MODEL        1
REMARK 921   NORMALIZED FREE ENERGY PREDICTED BY IDOCK:   -5.91 KCAL/MOL
REMARK 922        TOTAL FREE ENERGY PREDICTED BY IDOCK:   -6.74 KCAL/MOL
REMARK 923 INTER-LIGAND FREE ENERGY PREDICTED BY IDOCK:   -6.60 KCAL/MOL
REMARK 924 INTRA-LIGAND FREE ENERGY PREDICTED BY IDOCK:   -0.14 KCAL/MOL
REMARK 927      BINDING AFFINITY PREDICTED BY RF-SCORE:    0.00 PKD
ROOT
HETATM    1  C   UNL     1     -12.112  13.113  63.734  1.00  0.00    -0.563 C  
HETATM    2  C   UNL     1     -12.486  14.135  64.798  1.00  0.00    -0.373 C  
ENDROOT
BRANCH   2   3
HETATM    3  N   UNL     1     -11.313  14.791  65.333  1.00  0.00    -0.348 N  
HETATM    4  C   UNL     1     -10.561  14.306  66.361  1.00  0.00    -0.286 C  
HETATM    5  N   UNL     1      -9.583  15.223  66.662  1.00  0.00    -0.242 NA 
HETATM    6  O   UNL     1     -10.707  13.250  66.954  1.00  0.00    -0.269 OA 
HETATM    7  C   UNL     1      -9.683  16.409  65.853  1.00  0.00    -0.294 C  
HETATM    8  O   UNL     1     -11.363  16.741  64.089  1.00  0.00    -1.194 OA 
HETATM    9  C   UNL     1     -10.877  16.039  64.965  1.00  0.00    -0.404 C  
BRANCH   7  10
HETATM   10  C   UNL     1      -9.892  17.648  66.686  1.00  0.00    -0.309 A  
HETATM   11  C   UNL     1      -9.799  17.574  68.085  1.00  0.00    -0.306 A  
HETATM   12  C   UNL     1      -9.987  18.712  68.872  1.00  0.00    -0.399 A  
HETATM   13  C   UNL     1     -10.271  19.938  68.274  1.00  0.00    -0.562 A  
HETATM   14  C   UNL     1     -10.372  20.027  66.888  1.00  0.00    -0.567 A  
HETATM   15  C   UNL     1     -10.188  18.891  66.099  1.00  0.00    -0.485 A  
ENDBRANCH   7  10
ENDBRANCH   2   3
TORSDOF 2
ENDMDL
MODEL        2
REMARK 921   NORMALIZED FREE ENERGY PREDICTED BY IDOCK:   -5.81 KCAL/MOL
REMARK 922        TOTAL FREE ENERGY PREDICTED BY IDOCK:   -6.63 KCAL/MOL
REMARK 923 INTER-LIGAND FREE ENERGY PREDICTED BY IDOCK:   -6.32 KCAL/MOL
REMARK 924 INTRA-LIGAND FREE ENERGY PREDICTED BY IDOCK:   -0.31 KCAL/MOL
REMARK 927      BINDING AFFINITY PREDICTED BY RF-SCORE:    0.00 PKD
ROOT
HETATM    1  C   UNL     1     -11.205  14.126  64.898  1.00  0.00    -0.373 C  
HETATM    2  C   UNL     1     -12.323  14.155  65.930  1.00  0.00    -0.463 C  
ENDROOT
BRANCH   2   3
HETATM    3  N   UNL     1     -11.810  13.958  67.269  1.00  0.00    -0.386 N  
HETATM    4  C   UNL     1     -11.776  12.757  67.911  1.00  0.00    -0.357 C  
HETATM    5  N   UNL     1     -11.309  12.954  69.188  1.00  0.00    -0.273 NA 
HETATM    6  O   UNL     1     -12.111  11.670  67.470  1.00  0.00    -0.611 OA 
HETATM    7  C   UNL     1     -11.055  14.342  69.465  1.00  0.00    -0.231 C  
HETATM    8  O   UNL     1     -11.354  16.155  67.832  1.00  0.00    -0.294 OA 
HETATM    9  C   UNL     1     -11.409  14.965  68.110  1.00  0.00    -0.312 C  
BRANCH   7  10
HETATM   10  C   UNL     1     -11.885  14.853  70.616  1.00  0.00    -0.357 A  
HETATM   11  C   UNL     1     -13.277  14.669  70.610  1.00  0.00    -0.259 A  
HETATM   12  C   UNL     1     -14.061  15.132  71.668  1.00  0.00    -0.645 A  
HETATM   13  C   UNL     1     -13.467  15.786  72.746  1.00  0.00    -0.659 A  
HETATM   14  C   UNL     1     -12.088  15.982  72.765  1.00  0.00    -0.635 A  
HETATM   15  C   UNL     1     -11.302  15.522  71.707  1.00  0.00    -0.463 A  
ENDBRANCH   7  10
ENDBRANCH   2   3
TORSDOF 2
ENDMDL
MODEL        3
REMARK 921   NORMALIZED FREE ENERGY PREDICTED BY IDOCK:   -5.79 KCAL/MOL
REMARK 922        TOTAL FREE ENERGY PREDICTED BY IDOCK:   -6.60 KCAL/MOL
REMARK 923 INTER-LIGAND FREE ENERGY PREDICTED BY IDOCK:   -6.28 KCAL/MOL
REMARK 924 INTRA-LIGAND FREE ENERGY PREDICTED BY IDOCK:   -0.32 KCAL/MOL
REMARK 927      BINDING AFFINITY PREDICTED BY RF-SCORE:    0.00 PKD
ROOT
HETATM    1  C   UNL     1     -11.225  13.932  65.125  1.00  0.00    -0.326 C  
HETATM    2  C   UNL     1     -12.349  14.088  66.139  1.00  0.00    -0.458 C  
ENDROOT
BRANCH   2   3
HETATM    3  N   UNL     1     -11.866  13.916  67.492  1.00  0.00    -0.378 N  
HETATM    4  C   UNL     1     -11.834  12.724  68.151  1.00  0.00    -0.324 C  
HETATM    5  N   UNL     1     -11.400  12.943  69.436  1.00  0.00    -0.233 NA 
HETATM    6  O   UNL     1     -12.146  11.627  67.718  1.00  0.00    -0.613 OA 
HETATM    7  C   UNL     1     -11.168  14.338  69.700  1.00  0.00    -0.210 C  
HETATM    8  O   UNL     1     -11.449  16.125  68.036  1.00  0.00    -0.289 OA 
HETATM    9  C   UNL     1     -11.497  14.938  68.328  1.00  0.00    -0.324 C  
BRANCH   7  10
HETATM   10  C   UNL     1     -12.032  14.854  70.824  1.00  0.00    -0.372 A  
HETATM   11  C   UNL     1     -11.448  15.561  71.887  1.00  0.00    -0.506 A  
HETATM   12  C   UNL     1     -12.232  16.048  72.934  1.00  0.00    -0.621 A  
HETATM   13  C   UNL     1     -13.609  15.836  72.935  1.00  0.00    -0.660 A  
HETATM   14  C   UNL     1     -14.203  15.131  71.891  1.00  0.00    -0.676 A  
HETATM   15  C   UNL     1     -13.422  14.640  70.845  1.00  0.00    -0.293 A  
ENDBRANCH   7  10
ENDBRANCH   2   3
TORSDOF 2
ENDMDL
MODEL        4
REMARK 921   NORMALIZED FREE ENERGY PREDICTED BY IDOCK:   -5.51 KCAL/MOL
REMARK 922        TOTAL FREE ENERGY PREDICTED BY IDOCK:   -6.29 KCAL/MOL
REMARK 923 INTER-LIGAND FREE ENERGY PREDICTED BY IDOCK:   -6.37 KCAL/MOL
REMARK 924 INTRA-LIGAND FREE ENERGY PREDICTED BY IDOCK:    0.08 KCAL/MOL
REMARK 927      BINDING AFFINITY PREDICTED BY RF-SCORE:    0.00 PKD
ROOT
HETATM    1  C   UNL     1     -12.162  12.441  64.034  1.00  0.00    -0.579 C  
HETATM    2  C   UNL     1     -12.528  13.781  64.655  1.00  0.00    -0.315 C  
ENDROOT
BRANCH   2   3
HETATM    3  N   UNL     1     -11.354  14.478  65.135  1.00  0.00    -0.350 N  
HETATM    4  C   UNL     1     -10.503  13.992  66.081  1.00  0.00    -0.297 C  
HETATM    5  N   UNL     1      -9.555  14.948  66.354  1.00  0.00    -0.276 NA 
HETATM    6  O   UNL     1     -10.549  12.904  66.632  1.00  0.00    -0.258 OA 
HETATM    7  C   UNL     1      -9.778  16.160  65.612  1.00  0.00    -0.204 C  
HETATM    8  O   UNL     1     -11.600  16.475  63.993  1.00  0.00    -1.154 OA 
HETATM    9  C   UNL     1     -11.014  15.763  64.797  1.00  0.00    -0.393 C  
BRANCH   7  10
HETATM   10  C   UNL     1      -9.989  17.348  66.517  1.00  0.00    -0.314 A  
HETATM   11  C   UNL     1     -10.241  18.613  65.962  1.00  0.00    -0.386 A  
HETATM   12  C   UNL     1     -10.442  19.723  66.785  1.00  0.00    -0.610 A  
HETATM   13  C   UNL     1     -10.393  19.586  68.170  1.00  0.00    -0.550 A  
HETATM   14  C   UNL     1     -10.138  18.340  68.736  1.00  0.00    -0.393 A  
HETATM   15  C   UNL     1      -9.934  17.229  67.917  1.00  0.00    -0.297 A  
ENDBRANCH   7  10
ENDBRANCH   2   3
TORSDOF 2
ENDMDL
MODEL        5
REMARK 921   NORMALIZED FREE ENERGY PREDICTED BY IDOCK:   -5.44 KCAL/MOL
REMARK 922        TOTAL FREE ENERGY PREDICTED BY IDOCK:   -6.21 KCAL/MOL
REMARK 923 INTER-LIGAND FREE ENERGY PREDICTED BY IDOCK:   -5.97 KCAL/MOL
REMARK 924 INTRA-LIGAND FREE ENERGY PREDICTED BY IDOCK:   -0.25 KCAL/MOL
REMARK 927      BINDING AFFINITY PREDICTED BY RF-SCORE:    0.00 PKD
ROOT
HETATM    1  C   UNL     1     -10.774  15.492  65.809  1.00  0.00    -0.362 C  
HETATM    2  C   UNL     1     -10.085  14.138  65.906  1.00  0.00    -0.321 C  
ENDROOT
BRANCH   2   3
HETATM    3  N   UNL     1     -10.682  13.315  66.935  1.00  0.00    -0.270 N  
HETATM    4  C   UNL     1     -11.748  12.489  66.738  1.00  0.00    -0.384 C  
HETATM    5  N   UNL     1     -12.101  11.931  67.943  1.00  0.00    -0.522 NA 
HETATM    6  O   UNL     1     -12.332  12.267  65.690  1.00  0.00    -0.619 OA 
HETATM    7  C   UNL     1     -11.289  12.419  69.026  1.00  0.00    -0.283 C  
HETATM    8  O   UNL     1      -9.439  14.016  68.755  1.00  0.00    -0.175 OA 
HETATM    9  C   UNL     1     -10.339  13.350  68.262  1.00  0.00    -0.249 C  
BRANCH   7  10
HETATM   10  C   UNL     1     -12.111  13.109  70.086  1.00  0.00    -0.392 A  
HETATM   11  C   UNL     1     -12.627  12.369  71.161  1.00  0.00    -0.349 A  
HETATM   12  C   UNL     1     -13.388  12.992  72.153  1.00  0.00    -0.622 A  
HETATM   13  C   UNL     1     -13.644  14.359  72.084  1.00  0.00    -0.529 A  
HETATM   14  C   UNL     1     -13.145  15.106  71.020  1.00  0.00    -0.513 A  
HETATM   15  C   UNL     1     -12.386  14.486  70.026  1.00  0.00    -0.376 A  
ENDBRANCH   7  10
ENDBRANCH   2   3
TORSDOF 2
ENDMDL
MODEL        6
REMARK 921   NORMALIZED FREE ENERGY PREDICTED BY IDOCK:   -5.40 KCAL/MOL
REMARK 922        TOTAL FREE ENERGY PREDICTED BY IDOCK:   -6.17 KCAL/MOL
REMARK 923 INTER-LIGAND FREE ENERGY PREDICTED BY IDOCK:   -5.96 KCAL/MOL
REMARK 924 INTRA-LIGAND FREE ENERGY PREDICTED BY IDOCK:   -0.21 KCAL/MOL
REMARK 927      BINDING AFFINITY PREDICTED BY RF-SCORE:    0.00 PKD
ROOT
HETATM    1  C   UNL     1      -9.280  16.113  65.991  1.00  0.00    -0.363 C  
HETATM    2  C   UNL     1     -10.631  16.423  66.618  1.00  0.00    -0.239 C  
ENDROOT
BRANCH   2   3
HETATM    3  N   UNL     1     -10.958  15.478  67.663  1.00  0.00    -0.310 N  
HETATM    4  C   UNL     1     -11.860  14.466  67.531  1.00  0.00    -0.386 C  
HETATM    5  N   UNL     1     -11.981  13.823  68.739  1.00  0.00    -0.361 NA 
HETATM    6  O   UNL     1     -12.490  14.158  66.532  1.00  0.00    -0.447 OA 
HETATM    7  C   UNL     1     -11.176  14.435  69.762  1.00  0.00    -0.205 C  
HETATM    8  O   UNL     1      -9.700  16.365  69.389  1.00  0.00    -0.234 OA 
HETATM    9  C   UNL     1     -10.500  15.549  68.954  1.00  0.00    -0.223 C  
BRANCH   7  10
HETATM   10  C   UNL     1     -12.007  14.928  70.920  1.00  0.00    -0.374 A  
HETATM   11  C   UNL     1     -13.408  14.898  70.837  1.00  0.00    -0.393 A  
HETATM   12  C   UNL     1     -14.193  15.348  71.901  1.00  0.00    -0.640 A  
HETATM   13  C   UNL     1     -13.592  15.834  73.059  1.00  0.00    -0.638 A  
HETATM   14  C   UNL     1     -12.203  15.877  73.154  1.00  0.00    -0.622 A  
HETATM   15  C   UNL     1     -11.415  15.430  72.092  1.00  0.00    -0.525 A  
ENDBRANCH   7  10
ENDBRANCH   2   3
TORSDOF 2
ENDMDL
MODEL        7
REMARK 921   NORMALIZED FREE ENERGY PREDICTED BY IDOCK:   -5.38 KCAL/MOL
REMARK 922        TOTAL FREE ENERGY PREDICTED BY IDOCK:   -6.14 KCAL/MOL
REMARK 923 INTER-LIGAND FREE ENERGY PREDICTED BY IDOCK:   -5.85 KCAL/MOL
REMARK 924 INTRA-LIGAND FREE ENERGY PREDICTED BY IDOCK:   -0.29 KCAL/MOL
REMARK 927      BINDING AFFINITY PREDICTED BY RF-SCORE:    0.00 PKD
ROOT
HETATM    1  C   UNL     1      -9.699  11.573  63.119  1.00  0.00    -0.412 C  
HETATM    2  C   UNL     1     -10.526  10.900  64.205  1.00  0.00    -0.335 C  
ENDROOT
BRANCH   2   3
HETATM    3  N   UNL     1     -11.296  11.866  64.957  1.00  0.00    -0.302 N  
HETATM    4  C   UNL     1     -12.417  12.486  64.493  1.00  0.00    -0.459 C  
HETATM    5  N   UNL     1     -12.836  13.398  65.432  1.00  0.00    -0.628 NA 
HETATM    6  O   UNL     1     -12.977  12.305  63.424  1.00  0.00    -0.753 OA 
HETATM    7  C   UNL     1     -11.954  13.454  66.567  1.00  0.00    -0.400 C  
HETATM    8  O   UNL     1      -9.960  12.041  66.837  1.00  0.00    -0.200 OA 
HETATM    9  C   UNL     1     -10.934  12.377  66.178  1.00  0.00    -0.286 C  
BRANCH   7  10
HETATM   10  C   UNL     1     -11.360  14.828  66.757  1.00  0.00    -0.347 A  
HETATM   11  C   UNL     1     -10.756  15.484  65.673  1.00  0.00    -0.378 A  
HETATM   12  C   UNL     1     -10.205  16.758  65.831  1.00  0.00    -0.345 A  
HETATM   13  C   UNL     1     -10.248  17.391  67.070  1.00  0.00    -0.323 A  
HETATM   14  C   UNL     1     -10.838  16.751  68.157  1.00  0.00    -0.353 A  
HETATM   15  C   UNL     1     -11.388  15.477  68.004  1.00  0.00    -0.332 A  
ENDBRANCH   7  10
ENDBRANCH   2   3
TORSDOF 2
ENDMDL
MODEL        8
REMARK 921   NORMALIZED FREE ENERGY PREDICTED BY IDOCK:   -5.30 KCAL/MOL
REMARK 922        TOTAL FREE ENERGY PREDICTED BY IDOCK:   -6.06 KCAL/MOL
REMARK 923 INTER-LIGAND FREE ENERGY PREDICTED BY IDOCK:   -5.76 KCAL/MOL
REMARK 924 INTRA-LIGAND FREE ENERGY PREDICTED BY IDOCK:   -0.29 KCAL/MOL
REMARK 927      BINDING AFFINITY PREDICTED BY RF-SCORE:    0.00 PKD
ROOT
HETATM    1  C   UNL     1     -10.359  16.482  66.114  1.00  0.00    -0.344 C  
HETATM    2  C   UNL     1     -10.241  15.324  65.134  1.00  0.00    -0.339 C  
ENDROOT
BRANCH   2   3
HETATM    3  N   UNL     1     -10.847  14.122  65.663  1.00  0.00    -0.296 N  
HETATM    4  C   UNL     1     -12.103  13.693  65.354  1.00  0.00    -0.403 C  
HETATM    5  N   UNL     1     -12.381  12.572  66.098  1.00  0.00    -0.539 NA 
HETATM    6  O   UNL     1     -12.888  14.198  64.569  1.00  0.00    -0.642 OA 
HETATM    7  C   UNL     1     -11.305  12.234  66.992  1.00  0.00    -0.334 C  
HETATM    8  O   UNL     1      -9.186  13.471  67.135  1.00  0.00    -0.218 OA 
HETATM    9  C   UNL     1     -10.292  13.327  66.633  1.00  0.00    -0.274 C  
BRANCH   7  10
HETATM   10  C   UNL     1     -11.743  12.246  68.436  1.00  0.00    -0.390 A  
HETATM   11  C   UNL     1     -11.979  13.468  69.084  1.00  0.00    -0.378 A  
HETATM   12  C   UNL     1     -12.388  13.497  70.419  1.00  0.00    -0.397 A  
HETATM   13  C   UNL     1     -12.564  12.309  71.124  1.00  0.00    -0.353 A  
HETATM   14  C   UNL     1     -12.327  11.088  70.497  1.00  0.00    -0.462 A  
HETATM   15  C   UNL     1     -11.917  11.055  69.164  1.00  0.00    -0.394 A  
ENDBRANCH   7  10
ENDBRANCH   2   3
TORSDOF 2
ENDMDL
MODEL        9
REMARK 921   NORMALIZED FREE ENERGY PREDICTED BY IDOCK:   -5.29 KCAL/MOL
REMARK 922        TOTAL FREE ENERGY PREDICTED BY IDOCK:   -6.04 KCAL/MOL
REMARK 923 INTER-LIGAND FREE ENERGY PREDICTED BY IDOCK:   -5.76 KCAL/MOL
REMARK 924 INTRA-LIGAND FREE ENERGY PREDICTED BY IDOCK:   -0.28 KCAL/MOL
REMARK 927      BINDING AFFINITY PREDICTED BY RF-SCORE:    0.00 PKD
ROOT
HETATM    1  C   UNL     1     -10.399  16.309  65.953  1.00  0.00    -0.381 C  
HETATM    2  C   UNL     1     -10.200  15.056  65.113  1.00  0.00    -0.365 C  
ENDROOT
BRANCH   2   3
HETATM    3  N   UNL     1     -10.795  13.898  65.744  1.00  0.00    -0.285 N  
HETATM    4  C   UNL     1     -12.037  13.418  65.457  1.00  0.00    -0.428 C  
HETATM    5  N   UNL     1     -12.309  12.368  66.300  1.00  0.00    -0.479 NA 
HETATM    6  O   UNL     1     -12.816  13.831  64.614  1.00  0.00    -0.662 OA 
HETATM    7  C   UNL     1     -11.245  12.137  67.241  1.00  0.00    -0.306 C  
HETATM    8  O   UNL     1      -9.150  13.422  67.299  1.00  0.00    -0.203 OA 
HETATM    9  C   UNL     1     -10.244  13.210  66.796  1.00  0.00    -0.252 C  
BRANCH   7  10
HETATM   10  C   UNL     1     -11.709  12.278  68.669  1.00  0.00    -0.377 A  
HETATM   11  C   UNL     1     -12.006  11.133  69.424  1.00  0.00    -0.420 A  
HETATM   12  C   UNL     1     -12.433  11.245  70.749  1.00  0.00    -0.471 A  
HETATM   13  C   UNL     1     -12.572  12.500  71.336  1.00  0.00    -0.297 A  
HETATM   14  C   UNL     1     -12.287  13.647  70.599  1.00  0.00    -0.440 A  
HETATM   15  C   UNL     1     -11.862  13.538  69.274  1.00  0.00    -0.392 A  
ENDBRANCH   7  10
ENDBRANCH   2   3
TORSDOF 2
ENDMDL
MODEL       10
REMARK 921   NORMALIZED FREE ENERGY PREDICTED BY IDOCK:   -5.22 KCAL/MOL
REMARK 922        TOTAL FREE ENERGY PREDICTED BY IDOCK:   -5.97 KCAL/MOL
REMARK 923 INTER-LIGAND FREE ENERGY PREDICTED BY IDOCK:   -5.67 KCAL/MOL
REMARK 924 INTRA-LIGAND FREE ENERGY PREDICTED BY IDOCK:   -0.30 KCAL/MOL
REMARK 927      BINDING AFFINITY PREDICTED BY RF-SCORE:    0.00 PKD
ROOT
HETATM    1  C   UNL     1     -10.508  19.096  66.363  1.00  0.00    -0.548 C  
HETATM    2  C   UNL     1      -9.706  17.827  66.114  1.00  0.00    -0.217 C  
ENDROOT
BRANCH   2   3
HETATM    3  N   UNL     1     -10.534  16.647  66.232  1.00  0.00    -0.296 N  
HETATM    4  C   UNL     1     -10.621  15.876  67.352  1.00  0.00    -0.315 C  
HETATM    5  N   UNL     1     -11.428  14.797  67.082  1.00  0.00    -0.364 NA 
HETATM    6  O   UNL     1     -10.077  16.065  68.427  1.00  0.00    -0.221 OA 
HETATM    7  C   UNL     1     -11.881  14.786  65.717  1.00  0.00    -0.202 C  
HETATM    8  O   UNL     1     -11.335  16.523  64.065  1.00  0.00    -1.064 OA 
HETATM    9  C   UNL     1     -11.241  16.080  65.201  1.00  0.00    -0.189 C  
BRANCH   7  10
HETATM   10  C   UNL     1     -11.441  13.544  64.983  1.00  0.00    -0.334 A  
HETATM   11  C   UNL     1     -10.276  12.870  65.385  1.00  0.00    -0.301 A  
HETATM   12  C   UNL     1      -9.856  11.717  64.720  1.00  0.00    -0.261 A  
HETATM   13  C   UNL     1     -10.590  11.222  63.645  1.00  0.00    -0.453 A  
HETATM   14  C   UNL     1     -11.744  11.881  63.229  1.00  0.00    -0.397 A  
HETATM   15  C   UNL     1     -12.165  13.036  63.891  1.00  0.00    -0.511 A  
ENDBRANCH   7  10
ENDBRANCH   2   3
TORSDOF 2
ENDMDL
MODEL       11
REMARK 921   NORMALIZED FREE ENERGY PREDICTED BY IDOCK:   -5.22 KCAL/MOL
REMARK 922        TOTAL FREE ENERGY PREDICTED BY IDOCK:   -5.96 KCAL/MOL
REMARK 923 INTER-LIGAND FREE ENERGY PREDICTED BY IDOCK:   -5.65 KCAL/MOL
REMARK 924 INTRA-LIGAND FREE ENERGY PREDICTED BY IDOCK:   -0.31 KCAL/MOL
REMARK 927      BINDING AFFINITY PREDICTED BY RF-SCORE:    0.00 PKD
ROOT
HETATM    1  C   UNL     1      -9.977  19.630  68.870  1.00  0.00    -0.524 C  
HETATM    2  C   UNL     1     -10.661  19.072  67.630  1.00  0.00    -0.441 C  
ENDROOT
BRANCH   2   3
HETATM    3  N   UNL     1     -10.143  17.766  67.284  1.00  0.00    -0.324 N  
HETATM    4  C   UNL     1      -9.173  17.544  66.353  1.00  0.00    -0.245 C  
HETATM    5  N   UNL     1      -8.990  16.189  66.222  1.00  0.00    -0.317 NA 
HETATM    6  O   UNL     1      -8.559  18.379  65.708  1.00  0.00    -0.450 OA 
HETATM    7  C   UNL     1      -9.893  15.437  67.052  1.00  0.00    -0.232 C  
HETATM    8  O   UNL     1     -11.534  16.447  68.579  1.00  0.00    -0.351 OA 
HETATM    9  C   UNL     1     -10.641  16.577  67.753  1.00  0.00    -0.332 C  
BRANCH   7  10
HETATM   10  C   UNL     1     -10.779  14.523  66.242  1.00  0.00    -0.309 A  
HETATM   11  C   UNL     1     -10.982  13.198  66.659  1.00  0.00    -0.301 A  
HETATM   12  C   UNL     1     -11.801  12.338  65.923  1.00  0.00    -0.420 A  
HETATM   13  C   UNL     1     -12.426  12.789  64.763  1.00  0.00    -0.539 A  
HETATM   14  C   UNL     1     -12.230  14.099  64.333  1.00  0.00    -0.466 A  
HETATM   15  C   UNL     1     -11.410  14.960  65.064  1.00  0.00    -0.398 A  
ENDBRANCH   7  10
ENDBRANCH   2   3
TORSDOF 2
ENDMDL
MODEL       12
REMARK 921   NORMALIZED FREE ENERGY PREDICTED BY IDOCK:   -5.20 KCAL/MOL
REMARK 922        TOTAL FREE ENERGY PREDICTED BY IDOCK:   -5.95 KCAL/MOL
REMARK 923 INTER-LIGAND FREE ENERGY PREDICTED BY IDOCK:   -5.64 KCAL/MOL
REMARK 924 INTRA-LIGAND FREE ENERGY PREDICTED BY IDOCK:   -0.31 KCAL/MOL
REMARK 927      BINDING AFFINITY PREDICTED BY RF-SCORE:    0.00 PKD
ROOT
HETATM    1  C   UNL     1      -9.299  12.593  66.656  1.00  0.00    -0.236 C  
HETATM    2  C   UNL     1      -9.234  13.120  68.082  1.00  0.00    -0.215 C  
ENDROOT
BRANCH   2   3
HETATM    3  N   UNL     1     -10.291  14.074  68.341  1.00  0.00    -0.245 N  
HETATM    4  C   UNL     1     -10.181  15.417  68.139  1.00  0.00    -0.230 C  
HETATM    5  N   UNL     1     -11.337  16.022  68.568  1.00  0.00    -0.378 NA 
HETATM    6  O   UNL     1      -9.229  16.022  67.674  1.00  0.00    -0.203 OA 
HETATM    7  C   UNL     1     -12.266  15.080  69.134  1.00  0.00    -0.151 C  
HETATM    8  O   UNL     1     -11.869  12.657  69.264  1.00  0.00    -0.301 OA 
HETATM    9  C   UNL     1     -11.489  13.773  68.937  1.00  0.00    -0.304 C  
BRANCH   7  10
HETATM   10  C   UNL     1     -12.588  15.396  70.573  1.00  0.00    -0.471 A  
HETATM   11  C   UNL     1     -13.852  15.076  71.093  1.00  0.00    -0.468 A  
HETATM   12  C   UNL     1     -14.167  15.359  72.424  1.00  0.00    -0.584 A  
HETATM   13  C   UNL     1     -13.226  15.965  73.252  1.00  0.00    -0.698 A  
HETATM   14  C   UNL     1     -11.969  16.294  72.751  1.00  0.00    -0.636 A  
HETATM   15  C   UNL     1     -11.652  16.015  71.421  1.00  0.00    -0.520 A  
ENDBRANCH   7  10
ENDBRANCH   2   3
TORSDOF 2
ENDMDL
MODEL       13
REMARK 921   NORMALIZED FREE ENERGY PREDICTED BY IDOCK:   -5.17 KCAL/MOL
REMARK 922        TOTAL FREE ENERGY PREDICTED BY IDOCK:   -5.91 KCAL/MOL
REMARK 923 INTER-LIGAND FREE ENERGY PREDICTED BY IDOCK:   -5.72 KCAL/MOL
REMARK 924 INTRA-LIGAND FREE ENERGY PREDICTED BY IDOCK:   -0.19 KCAL/MOL
REMARK 927      BINDING AFFINITY PREDICTED BY RF-SCORE:    0.00 PKD
ROOT
HETATM    1  C   UNL     1     -10.581  19.756  67.196  1.00  0.00    -0.577 C  
HETATM    2  C   UNL     1      -9.682  18.964  66.258  1.00  0.00    -0.344 C  
ENDROOT
BRANCH   2   3
HETATM    3  N   UNL     1      -9.886  17.540  66.408  1.00  0.00    -0.302 N  
HETATM    4  C   UNL     1     -10.650  16.779  65.575  1.00  0.00    -0.230 C  
HETATM    5  N   UNL     1     -10.690  15.496  66.064  1.00  0.00    -0.323 NA 
HETATM    6  O   UNL     1     -11.232  17.141  64.565  1.00  0.00    -1.104 OA 
HETATM    7  C   UNL     1      -9.974  15.365  67.304  1.00  0.00    -0.226 C  
HETATM    8  O   UNL     1      -8.759  17.200  68.399  1.00  0.00    -0.230 OA 
HETATM    9  C   UNL     1      -9.445  16.794  67.472  1.00  0.00    -0.237 C  
BRANCH   7  10
HETATM   10  C   UNL     1     -10.866  14.899  68.428  1.00  0.00    -0.252 A  
HETATM   11  C   UNL     1     -11.574  15.839  69.193  1.00  0.00    -0.399 A  
HETATM   12  C   UNL     1     -12.407  15.426  70.235  1.00  0.00    -0.425 A  
HETATM   13  C   UNL     1     -12.542  14.071  70.528  1.00  0.00    -0.399 A  
HETATM   14  C   UNL     1     -11.842  13.126  69.782  1.00  0.00    -0.386 A  
HETATM   15  C   UNL     1     -11.007  13.536  68.742  1.00  0.00    -0.291 A  
ENDBRANCH   7  10
ENDBRANCH   2   3
TORSDOF 2
ENDMDL
MODEL       14
REMARK 921   NORMALIZED FREE ENERGY PREDICTED BY IDOCK:   -5.16 KCAL/MOL
REMARK 922        TOTAL FREE ENERGY PREDICTED BY IDOCK:   -5.89 KCAL/MOL
REMARK 923 INTER-LIGAND FREE ENERGY PREDICTED BY IDOCK:   -5.56 KCAL/MOL
REMARK 924 INTRA-LIGAND FREE ENERGY PREDICTED BY IDOCK:   -0.33 KCAL/MOL
REMARK 927      BINDING AFFINITY PREDICTED BY RF-SCORE:    0.00 PKD
ROOT
HETATM    1  C   UNL     1      -9.070  12.856  67.181  1.00  0.00    -0.220 C  
HETATM    2  C   UNL     1      -9.382  14.297  66.802  1.00  0.00    -0.276 C  
ENDROOT
BRANCH   2   3
HETATM    3  N   UNL     1     -10.107  14.974  67.855  1.00  0.00    -0.226 N  
HETATM    4  C   UNL     1      -9.520  15.632  68.894  1.00  0.00    -0.228 C  
HETATM    5  N   UNL     1     -10.502  16.078  69.744  1.00  0.00    -0.295 NA 
HETATM    6  O   UNL     1      -8.327  15.804  69.084  1.00  0.00    -0.218 OA 
HETATM    7  C   UNL     1     -11.816  15.678  69.314  1.00  0.00    -0.363 C  
HETATM    8  O   UNL     1     -12.269  14.400  67.263  1.00  0.00    -0.383 OA 
HETATM    9  C   UNL     1     -11.469  14.938  68.016  1.00  0.00    -0.337 C  
BRANCH   7  10
HETATM   10  C   UNL     1     -12.515  14.826  70.344  1.00  0.00    -0.405 A  
HETATM   11  C   UNL     1     -13.535  15.380  71.133  1.00  0.00    -0.565 A  
HETATM   12  C   UNL     1     -14.195  14.605  72.089  1.00  0.00    -0.608 A  
HETATM   13  C   UNL     1     -13.846  13.269  72.270  1.00  0.00    -0.637 A  
HETATM   14  C   UNL     1     -12.832  12.706  71.499  1.00  0.00    -0.368 A  
HETATM   15  C   UNL     1     -12.169  13.478  70.545  1.00  0.00    -0.433 A  
ENDBRANCH   7  10
ENDBRANCH   2   3
TORSDOF 2
ENDMDL
MODEL       15
REMARK 921   NORMALIZED FREE ENERGY PREDICTED BY IDOCK:   -5.13 KCAL/MOL
REMARK 922        TOTAL FREE ENERGY PREDICTED BY IDOCK:   -5.87 KCAL/MOL
REMARK 923 INTER-LIGAND FREE ENERGY PREDICTED BY IDOCK:   -5.53 KCAL/MOL
REMARK 924 INTRA-LIGAND FREE ENERGY PREDICTED BY IDOCK:   -0.34 KCAL/MOL
REMARK 927      BINDING AFFINITY PREDICTED BY RF-SCORE:    0.00 PKD
ROOT
HETATM    1  C   UNL     1     -11.415   6.328  69.770  1.00  0.00    -0.449 C  
HETATM    2  C   UNL     1     -11.601   6.610  71.254  1.00  0.00    -0.323 C  
ENDROOT
BRANCH   2   3
HETATM    3  N   UNL     1     -12.149   7.931  71.475  1.00  0.00    -0.297 N  
HETATM    4  C   UNL     1     -13.480   8.224  71.459  1.00  0.00    -0.289 C  
HETATM    5  N   UNL     1     -13.633   9.580  71.619  1.00  0.00    -0.372 NA 
HETATM    6  O   UNL     1     -14.410   7.448  71.313  1.00  0.00    -0.421 OA 
HETATM    7  C   UNL     1     -12.370  10.264  71.700  1.00  0.00    -0.349 C  
HETATM    8  O   UNL     1     -10.184   9.141  71.627  1.00  0.00    -0.336 OA 
HETATM    9  C   UNL     1     -11.405   9.076  71.604  1.00  0.00    -0.360 C  
BRANCH   7  10
HETATM   10  C   UNL     1     -12.206  11.284  70.601  1.00  0.00    -0.489 A  
HETATM   11  C   UNL     1     -12.331  12.651  70.893  1.00  0.00    -0.352 A  
HETATM   12  C   UNL     1     -12.179  13.610  69.889  1.00  0.00    -0.367 A  
HETATM   13  C   UNL     1     -11.902  13.217  68.581  1.00  0.00    -0.363 A  
HETATM   14  C   UNL     1     -11.781  11.864  68.274  1.00  0.00    -0.385 A  
HETATM   15  C   UNL     1     -11.934  10.903  69.275  1.00  0.00    -0.382 A  
ENDBRANCH   7  10
ENDBRANCH   2   3
TORSDOF 2
ENDMDL
MODEL       16
REMARK 921   NORMALIZED FREE ENERGY PREDICTED BY IDOCK:   -5.08 KCAL/MOL
REMARK 922        TOTAL FREE ENERGY PREDICTED BY IDOCK:   -5.81 KCAL/MOL
REMARK 923 INTER-LIGAND FREE ENERGY PREDICTED BY IDOCK:   -5.53 KCAL/MOL
REMARK 924 INTRA-LIGAND FREE ENERGY PREDICTED BY IDOCK:   -0.28 KCAL/MOL
REMARK 927      BINDING AFFINITY PREDICTED BY RF-SCORE:    0.00 PKD
ROOT
HETATM    1  C   UNL     1     -12.184  13.941  66.045  1.00  0.00    -0.495 C  
HETATM    2  C   UNL     1     -10.787  14.500  65.818  1.00  0.00    -0.315 C  
ENDROOT
BRANCH   2   3
HETATM    3  N   UNL     1     -10.773  15.943  65.926  1.00  0.00    -0.317 N  
HETATM    4  C   UNL     1     -11.120  16.794  64.920  1.00  0.00    -0.054 C  
HETATM    5  N   UNL     1     -10.907  18.084  65.342  1.00  0.00    -0.502 NA 
HETATM    6  O   UNL     1     -11.536  16.502  63.811  1.00  0.00    -1.109 OA 
HETATM    7  C   UNL     1     -10.348  18.137  66.667  1.00  0.00    -0.376 C  
HETATM    8  O   UNL     1      -9.882  16.159  68.050  1.00  0.00    -0.227 OA 
HETATM    9  C   UNL     1     -10.293  16.642  67.004  1.00  0.00    -0.301 C  
BRANCH   7  10
HETATM   10  C   UNL     1      -9.006  18.825  66.689  1.00  0.00    -0.315 A  
HETATM   11  C   UNL     1      -7.894  18.208  66.095  1.00  0.00    -0.239 A  
HETATM   12  C   UNL     1      -6.644  18.832  66.103  1.00  0.00    -0.256 A  
HETATM   13  C   UNL     1      -6.488  20.079  66.704  1.00  0.00    -0.215 A  
HETATM   14  C   UNL     1      -7.580  20.702  67.304  1.00  0.00    -0.381 A  
HETATM   15  C   UNL     1      -8.829  20.080  67.299  1.00  0.00    -0.428 A  
ENDBRANCH   7  10
ENDBRANCH   2   3
TORSDOF 2
ENDMDL
MODEL       17
REMARK 921   NORMALIZED FREE ENERGY PREDICTED BY IDOCK:   -5.06 KCAL/MOL
REMARK 922        TOTAL FREE ENERGY PREDICTED BY IDOCK:   -5.79 KCAL/MOL
REMARK 923 INTER-LIGAND FREE ENERGY PREDICTED BY IDOCK:   -5.50 KCAL/MOL
REMARK 924 INTRA-LIGAND FREE ENERGY PREDICTED BY IDOCK:   -0.29 KCAL/MOL
REMARK 927      BINDING AFFINITY PREDICTED BY RF-SCORE:    0.00 PKD
ROOT
HETATM    1  C   UNL     1     -10.772  18.116  67.693  1.00  0.00    -0.364 C  
HETATM    2  C   UNL     1     -10.019  16.800  67.564  1.00  0.00    -0.266 C  
ENDROOT
BRANCH   2   3
HETATM    3  N   UNL     1     -10.886  15.741  67.093  1.00  0.00    -0.315 N  
HETATM    4  C   UNL     1     -11.602  14.914  67.904  1.00  0.00    -0.344 C  
HETATM    5  N   UNL     1     -12.241  13.979  67.126  1.00  0.00    -0.388 NA 
HETATM    6  O   UNL     1     -11.677  14.950  69.122  1.00  0.00    -0.282 OA 
HETATM    7  C   UNL     1     -11.924  14.126  65.731  1.00  0.00    -0.402 C  
HETATM    8  O   UNL     1     -10.461  15.881  64.823  1.00  0.00    -0.538 OA 
HETATM    9  C   UNL     1     -11.004  15.351  65.783  1.00  0.00    -0.309 C  
BRANCH   7  10
HETATM   10  C   UNL     1     -11.274  12.888  65.164  1.00  0.00    -0.319 A  
HETATM   11  C   UNL     1     -11.238  12.692  63.774  1.00  0.00    -0.519 A  
HETATM   12  C   UNL     1     -10.637  11.553  63.232  1.00  0.00    -0.405 A  
HETATM   13  C   UNL     1     -10.067  10.597  64.068  1.00  0.00    -0.378 A  
HETATM   14  C   UNL     1     -10.099  10.774  65.449  1.00  0.00    -0.347 A  
HETATM   15  C   UNL     1     -10.700  11.909  65.994  1.00  0.00    -0.326 A  
ENDBRANCH   7  10
ENDBRANCH   2   3
TORSDOF 2
ENDMDL
MODEL       18
REMARK 921   NORMALIZED FREE ENERGY PREDICTED BY IDOCK:   -5.05 KCAL/MOL
REMARK 922        TOTAL FREE ENERGY PREDICTED BY IDOCK:   -5.77 KCAL/MOL
REMARK 923 INTER-LIGAND FREE ENERGY PREDICTED BY IDOCK:   -5.47 KCAL/MOL
REMARK 924 INTRA-LIGAND FREE ENERGY PREDICTED BY IDOCK:   -0.30 KCAL/MOL
REMARK 927      BINDING AFFINITY PREDICTED BY RF-SCORE:    0.00 PKD
ROOT
HETATM    1  C   UNL     1     -10.782  19.699  66.904  1.00  0.00    -0.570 C  
HETATM    2  C   UNL     1      -9.826  19.029  67.881  1.00  0.00    -0.337 C  
ENDROOT
BRANCH   2   3
HETATM    3  N   UNL     1      -9.470  17.698  67.441  1.00  0.00    -0.253 N  
HETATM    4  C   UNL     1      -8.586  17.429  66.439  1.00  0.00    -0.247 C  
HETATM    5  N   UNL     1      -8.555  16.071  66.233  1.00  0.00    -0.331 NA 
HETATM    6  O   UNL     1      -7.927  18.229  65.797  1.00  0.00    -0.513 OA 
HETATM    7  C   UNL     1      -9.482  15.371  67.082  1.00  0.00    -0.213 C  
HETATM    8  O   UNL     1     -10.913  16.460  68.758  1.00  0.00    -0.313 OA 
HETATM    9  C   UNL     1     -10.062  16.542  67.884  1.00  0.00    -0.256 C  
BRANCH   7  10
HETATM   10  C   UNL     1     -10.505  14.597  66.289  1.00  0.00    -0.302 A  
HETATM   11  C   UNL     1     -11.137  15.198  65.189  1.00  0.00    -0.410 A  
HETATM   12  C   UNL     1     -12.084  14.496  64.441  1.00  0.00    -0.492 A  
HETATM   13  C   UNL     1     -12.414  13.186  64.782  1.00  0.00    -0.460 A  
HETATM   14  C   UNL     1     -11.801  12.577  65.874  1.00  0.00    -0.489 A  
HETATM   15  C   UNL     1     -10.855  13.278  66.625  1.00  0.00    -0.289 A  
ENDBRANCH   7  10
ENDBRANCH   2   3
TORSDOF 2
ENDMDL
MODEL       19
REMARK 921   NORMALIZED FREE ENERGY PREDICTED BY IDOCK:   -5.04 KCAL/MOL
REMARK 922        TOTAL FREE ENERGY PREDICTED BY IDOCK:   -5.77 KCAL/MOL
REMARK 923 INTER-LIGAND FREE ENERGY PREDICTED BY IDOCK:   -5.79 KCAL/MOL
REMARK 924 INTRA-LIGAND FREE ENERGY PREDICTED BY IDOCK:    0.03 KCAL/MOL
REMARK 927      BINDING AFFINITY PREDICTED BY RF-SCORE:    0.00 PKD
ROOT
HETATM    1  C   UNL     1     -11.586   6.523  72.015  1.00  0.00    -0.354 C  
HETATM    2  C   UNL     1     -11.294   7.895  72.604  1.00  0.00    -0.408 C  
ENDROOT
BRANCH   2   3
HETATM    3  N   UNL     1     -11.454   8.939  71.615  1.00  0.00    -0.313 N  
HETATM    4  C   UNL     1     -10.434   9.467  70.881  1.00  0.00    -0.310 C  
HETATM    5  N   UNL     1     -10.931  10.488  70.109  1.00  0.00    -0.290 NA 
HETATM    6  O   UNL     1      -9.261   9.131  70.891  1.00  0.00    -0.234 OA 
HETATM    7  C   UNL     1     -12.332  10.716  70.345  1.00  0.00    -0.343 C  
HETATM    8  O   UNL     1     -13.704   9.395  71.899  1.00  0.00    -0.389 OA 
HETATM    9  C   UNL     1     -12.621   9.618  71.375  1.00  0.00    -0.371 C  
BRANCH   7  10
HETATM   10  C   UNL     1     -12.604  12.115  70.839  1.00  0.00    -0.340 A  
HETATM   11  C   UNL     1     -12.100  13.217  70.131  1.00  0.00    -0.403 A  
HETATM   12  C   UNL     1     -12.345  14.519  70.572  1.00  0.00    -0.403 A  
HETATM   13  C   UNL     1     -13.093  14.738  71.726  1.00  0.00    -0.421 A  
HETATM   14  C   UNL     1     -13.595  13.656  72.444  1.00  0.00    -0.703 A  
HETATM   15  C   UNL     1     -13.350  12.353  72.007  1.00  0.00    -0.511 A  
ENDBRANCH   7  10
ENDBRANCH   2   3
TORSDOF 2
ENDMDL
MODEL       20
REMARK 921   NORMALIZED FREE ENERGY PREDICTED BY IDOCK:   -5.03 KCAL/MOL
REMARK 922        TOTAL FREE ENERGY PREDICTED BY IDOCK:   -5.75 KCAL/MOL
REMARK 923 INTER-LIGAND FREE ENERGY PREDICTED BY IDOCK:   -5.54 KCAL/MOL
REMARK 924 INTRA-LIGAND FREE ENERGY PREDICTED BY IDOCK:   -0.21 KCAL/MOL
REMARK 927      BINDING AFFINITY PREDICTED BY RF-SCORE:    0.00 PKD
ROOT
HETATM    1  C   UNL     1      -9.576  19.230  66.518  1.00  0.00    -0.420 C  
HETATM    2  C   UNL     1      -8.888  17.907  66.217  1.00  0.00    -0.163 C  
ENDROOT
BRANCH   2   3
HETATM    3  N   UNL     1      -9.774  16.787  66.448  1.00  0.00    -0.275 N  
HETATM    4  C   UNL     1      -9.679  15.936  67.508  1.00  0.00    -0.223 C  
HETATM    5  N   UNL     1     -10.621  14.946  67.363  1.00  0.00    -0.259 NA 
HETATM    6  O   UNL     1      -8.893  15.995  68.440  1.00  0.00    -0.177 OA 
HETATM    7  C   UNL     1     -11.366  15.080  66.140  1.00  0.00    -0.270 C  
HETATM    8  O   UNL     1     -11.045  16.900  64.519  1.00  0.00    -1.054 OA 
HETATM    9  C   UNL     1     -10.741  16.360  65.573  1.00  0.00    -0.287 C  
BRANCH   7  10
HETATM   10  C   UNL     1     -11.216  13.872  65.249  1.00  0.00    -0.313 A  
HETATM   11  C   UNL     1     -12.053  13.718  64.133  1.00  0.00    -0.478 A  
HETATM   12  C   UNL     1     -11.925  12.608  63.296  1.00  0.00    -0.526 A  
HETATM   13  C   UNL     1     -10.963  11.637  63.562  1.00  0.00    -0.485 A  
HETATM   14  C   UNL     1     -10.128  11.772  64.668  1.00  0.00    -0.310 A  
HETATM   15  C   UNL     1     -10.255  12.879  65.508  1.00  0.00    -0.299 A  
ENDBRANCH   7  10
ENDBRANCH   2   3
TORSDOF 2
ENDMDL
MODEL       21
REMARK 921   NORMALIZED FREE ENERGY PREDICTED BY IDOCK:   -4.97 KCAL/MOL
REMARK 922        TOTAL FREE ENERGY PREDICTED BY IDOCK:   -5.69 KCAL/MOL
REMARK 923 INTER-LIGAND FREE ENERGY PREDICTED BY IDOCK:   -5.38 KCAL/MOL
REMARK 924 INTRA-LIGAND FREE ENERGY PREDICTED BY IDOCK:   -0.31 KCAL/MOL
REMARK 927      BINDING AFFINITY PREDICTED BY RF-SCORE:    0.00 PKD
ROOT
HETATM    1  C   UNL     1      -7.240  17.864  67.447  1.00  0.00    -0.198 C  
HETATM    2  C   UNL     1      -8.237  18.142  68.563  1.00  0.00    -0.307 C  
ENDROOT
BRANCH   2   3
HETATM    3  N   UNL     1      -9.355  17.225  68.512  1.00  0.00    -0.270 N  
HETATM    4  C   UNL     1     -10.558  17.509  67.939  1.00  0.00    -0.390 C  
HETATM    5  N   UNL     1     -11.406  16.449  68.148  1.00  0.00    -0.281 NA 
HETATM    6  O   UNL     1     -10.876  18.527  67.346  1.00  0.00    -0.421 OA 
HETATM    7  C   UNL     1     -10.795  15.411  68.935  1.00  0.00    -0.251 C  
HETATM    8  O   UNL     1      -8.480  15.484  69.759  1.00  0.00    -0.202 OA 
HETATM    9  C   UNL     1      -9.396  16.005  69.137  1.00  0.00    -0.251 C  
BRANCH   7  10
HETATM   10  C   UNL     1     -11.548  15.151  70.216  1.00  0.00    -0.325 A  
HETATM   11  C   UNL     1     -12.279  13.963  70.368  1.00  0.00    -0.438 A  
HETATM   12  C   UNL     1     -12.980  13.705  71.548  1.00  0.00    -0.443 A  
HETATM   13  C   UNL     1     -12.960  14.629  72.591  1.00  0.00    -0.534 A  
HETATM   14  C   UNL     1     -12.244  15.816  72.453  1.00  0.00    -0.568 A  
HETATM   15  C   UNL     1     -11.545  16.078  71.274  1.00  0.00    -0.506 A  
ENDBRANCH   7  10
ENDBRANCH   2   3
TORSDOF 2
ENDMDL
MODEL       22
REMARK 921   NORMALIZED FREE ENERGY PREDICTED BY IDOCK:   -4.94 KCAL/MOL
REMARK 922        TOTAL FREE ENERGY PREDICTED BY IDOCK:   -5.65 KCAL/MOL
REMARK 923 INTER-LIGAND FREE ENERGY PREDICTED BY IDOCK:   -5.43 KCAL/MOL
REMARK 924 INTRA-LIGAND FREE ENERGY PREDICTED BY IDOCK:   -0.23 KCAL/MOL
REMARK 927      BINDING AFFINITY PREDICTED BY RF-SCORE:    0.00 PKD
ROOT
HETATM    1  C   UNL     1     -11.750   9.953  71.319  1.00  0.00    -0.472 C  
HETATM    2  C   UNL     1     -12.652  10.696  70.346  1.00  0.00    -0.316 C  
ENDROOT
BRANCH   2   3
HETATM    3  N   UNL     1     -11.881  11.462  69.391  1.00  0.00    -0.325 N  
HETATM    4  C   UNL     1     -11.803  12.822  69.378  1.00  0.00    -0.300 C  
HETATM    5  N   UNL     1     -11.058  13.211  68.291  1.00  0.00    -0.253 NA 
HETATM    6  O   UNL     1     -12.308  13.602  70.169  1.00  0.00    -0.331 OA 
HETATM    7  C   UNL     1     -10.643  12.090  67.489  1.00  0.00    -0.221 C  
HETATM    8  O   UNL     1     -11.145   9.745  68.027  1.00  0.00    -0.222 OA 
HETATM    9  C   UNL     1     -11.231  10.933  68.305  1.00  0.00    -0.286 C  
BRANCH   7  10
HETATM   10  C   UNL     1     -11.164  12.179  66.077  1.00  0.00    -0.382 A  
HETATM   11  C   UNL     1     -12.272  12.993  65.790  1.00  0.00    -0.511 A  
HETATM   12  C   UNL     1     -12.766  13.089  64.488  1.00  0.00    -0.318 A  
HETATM   13  C   UNL     1     -12.163  12.375  63.455  1.00  0.00    -0.661 A  
HETATM   14  C   UNL     1     -11.067  11.559  63.724  1.00  0.00    -0.471 A  
HETATM   15  C   UNL     1     -10.572  11.458  65.025  1.00  0.00    -0.359 A  
ENDBRANCH   7  10
ENDBRANCH   2   3
TORSDOF 2
ENDMDL
MODEL       23
REMARK 921   NORMALIZED FREE ENERGY PREDICTED BY IDOCK:   -4.94 KCAL/MOL
REMARK 922        TOTAL FREE ENERGY PREDICTED BY IDOCK:   -5.65 KCAL/MOL
REMARK 923 INTER-LIGAND FREE ENERGY PREDICTED BY IDOCK:   -5.39 KCAL/MOL
REMARK 924 INTRA-LIGAND FREE ENERGY PREDICTED BY IDOCK:   -0.26 KCAL/MOL
REMARK 927      BINDING AFFINITY PREDICTED BY RF-SCORE:    0.00 PKD
ROOT
HETATM    1  C   UNL     1     -11.097   6.129  72.552  1.00  0.00    -0.313 C  
HETATM    2  C   UNL     1     -11.554   6.759  71.244  1.00  0.00    -0.320 C  
ENDROOT
BRANCH   2   3
HETATM    3  N   UNL     1     -12.095   8.083  71.458  1.00  0.00    -0.290 N  
HETATM    4  C   UNL     1     -13.425   8.381  71.456  1.00  0.00    -0.286 C  
HETATM    5  N   UNL     1     -13.572   9.739  71.603  1.00  0.00    -0.329 NA 
HETATM    6  O   UNL     1     -14.359   7.606  71.331  1.00  0.00    -0.433 OA 
HETATM    7  C   UNL     1     -12.306  10.419  71.660  1.00  0.00    -0.304 C  
HETATM    8  O   UNL     1     -10.125   9.289  71.571  1.00  0.00    -0.317 OA 
HETATM    9  C   UNL     1     -11.346   9.227  71.564  1.00  0.00    -0.385 C  
BRANCH   7  10
HETATM   10  C   UNL     1     -12.153  11.427  70.548  1.00  0.00    -0.487 A  
HETATM   11  C   UNL     1     -11.903  10.990  69.238  1.00  0.00    -0.411 A  
HETATM   12  C   UNL     1     -11.762  11.909  68.196  1.00  0.00    -0.388 A  
HETATM   13  C   UNL     1     -11.867  13.274  68.447  1.00  0.00    -0.395 A  
HETATM   14  C   UNL     1     -12.109  13.725  69.743  1.00  0.00    -0.400 A  
HETATM   15  C   UNL     1     -12.248  12.809  70.787  1.00  0.00    -0.338 A  
ENDBRANCH   7  10
ENDBRANCH   2   3
TORSDOF 2
ENDMDL
MODEL       24
REMARK 921   NORMALIZED FREE ENERGY PREDICTED BY IDOCK:   -4.94 KCAL/MOL
REMARK 922        TOTAL FREE ENERGY PREDICTED BY IDOCK:   -5.65 KCAL/MOL
REMARK 923 INTER-LIGAND FREE ENERGY PREDICTED BY IDOCK:   -5.39 KCAL/MOL
REMARK 924 INTRA-LIGAND FREE ENERGY PREDICTED BY IDOCK:   -0.26 KCAL/MOL
REMARK 927      BINDING AFFINITY PREDICTED BY RF-SCORE:    0.00 PKD
ROOT
HETATM    1  C   UNL     1     -11.570  13.503  64.012  1.00  0.00    -0.394 C  
HETATM    2  C   UNL     1     -12.243  12.497  64.935  1.00  0.00    -0.470 C  
ENDROOT
BRANCH   2   3
HETATM    3  N   UNL     1     -11.554  12.402  66.203  1.00  0.00    -0.380 N  
HETATM    4  C   UNL     1     -10.700  11.395  66.541  1.00  0.00    -0.277 C  
HETATM    5  N   UNL     1     -10.298  11.577  67.842  1.00  0.00    -0.179 NA 
HETATM    6  O   UNL     1     -10.339  10.462  65.843  1.00  0.00    -0.245 OA 
HETATM    7  C   UNL     1     -10.929  12.718  68.451  1.00  0.00    -0.254 C  
HETATM    8  O   UNL     1     -12.494  14.215  67.288  1.00  0.00    -0.253 OA 
HETATM    9  C   UNL     1     -11.762  13.235  67.272  1.00  0.00    -0.377 C  
BRANCH   7  10
HETATM   10  C   UNL     1     -11.741  12.338  69.663  1.00  0.00    -0.386 A  
HETATM   11  C   UNL     1     -12.142  13.328  70.574  1.00  0.00    -0.391 A  
HETATM   12  C   UNL     1     -12.897  12.995  71.701  1.00  0.00    -0.376 A  
HETATM   13  C   UNL     1     -13.261  11.670  71.933  1.00  0.00    -0.475 A  
HETATM   14  C   UNL     1     -12.866  10.675  71.042  1.00  0.00    -0.496 A  
HETATM   15  C   UNL     1     -12.109  11.005  69.917  1.00  0.00    -0.435 A  
ENDBRANCH   7  10
ENDBRANCH   2   3
TORSDOF 2
ENDMDL
MODEL       25
REMARK 921   NORMALIZED FREE ENERGY PREDICTED BY IDOCK:   -4.93 KCAL/MOL
REMARK 922        TOTAL FREE ENERGY PREDICTED BY IDOCK:   -5.64 KCAL/MOL
REMARK 923 INTER-LIGAND FREE ENERGY PREDICTED BY IDOCK:   -5.28 KCAL/MOL
REMARK 924 INTRA-LIGAND FREE ENERGY PREDICTED BY IDOCK:   -0.36 KCAL/MOL
REMARK 927      BINDING AFFINITY PREDICTED BY RF-SCORE:    0.00 PKD
ROOT
HETATM    1  C   UNL     1     -11.059  16.203  68.079  1.00  0.00    -0.317 C  
HETATM    2  C   UNL     1     -10.472  15.446  66.897  1.00  0.00    -0.295 C  
ENDROOT
BRANCH   2   3
HETATM    3  N   UNL     1     -10.789  14.036  66.964  1.00  0.00    -0.288 N  
HETATM    4  C   UNL     1     -11.906  13.471  66.424  1.00  0.00    -0.394 C  
HETATM    5  N   UNL     1     -11.926  12.137  66.750  1.00  0.00    -0.615 NA 
HETATM    6  O   UNL     1     -12.775  14.024  65.770  1.00  0.00    -0.516 OA 
HETATM    7  C   UNL     1     -10.815  11.765  67.586  1.00  0.00    -0.217 C  
HETATM    8  O   UNL     1      -9.045  13.314  68.300  1.00  0.00    -0.196 OA 
HETATM    9  C   UNL     1     -10.079  13.107  67.682  1.00  0.00    -0.221 C  
BRANCH   7  10
HETATM   10  C   UNL     1     -11.265  11.210  68.914  1.00  0.00    -0.317 A  
HETATM   11  C   UNL     1     -10.935   9.893  69.270  1.00  0.00    -0.244 A  
HETATM   12  C   UNL     1     -11.341   9.365  70.497  1.00  0.00    -0.328 A  
HETATM   13  C   UNL     1     -12.082  10.142  71.384  1.00  0.00    -0.475 A  
HETATM   14  C   UNL     1     -12.423  11.449  71.044  1.00  0.00    -0.486 A  
HETATM   15  C   UNL     1     -12.021  11.979  69.817  1.00  0.00    -0.370 A  
ENDBRANCH   7  10
ENDBRANCH   2   3
TORSDOF 2
ENDMDL
MODEL       26
REMARK 921   NORMALIZED FREE ENERGY PREDICTED BY IDOCK:   -4.91 KCAL/MOL
REMARK 922        TOTAL FREE ENERGY PREDICTED BY IDOCK:   -5.62 KCAL/MOL
REMARK 923 INTER-LIGAND FREE ENERGY PREDICTED BY IDOCK:   -5.68 KCAL/MOL
REMARK 924 INTRA-LIGAND FREE ENERGY PREDICTED BY IDOCK:    0.05 KCAL/MOL
REMARK 927      BINDING AFFINITY PREDICTED BY RF-SCORE:    0.00 PKD
ROOT
HETATM    1  C   UNL     1      -9.642  14.398  67.041  1.00  0.00    -0.251 C  
HETATM    2  C   UNL     1     -10.968  15.145  67.027  1.00  0.00    -0.322 C  
ENDROOT
BRANCH   2   3
HETATM    3  N   UNL     1     -10.770  16.570  66.875  1.00  0.00    -0.235 N  
HETATM    4  C   UNL     1     -10.701  17.214  65.676  1.00  0.00    -0.136 C  
HETATM    5  N   UNL     1     -10.421  18.540  65.904  1.00  0.00    -0.600 NA 
HETATM    6  O   UNL     1     -10.840  16.731  64.564  1.00  0.00    -0.886 OA 
HETATM    7  C   UNL     1     -10.239  18.823  67.303  1.00  0.00    -0.390 C  
HETATM    8  O   UNL     1     -10.465  17.153  69.092  1.00  0.00    -0.323 OA 
HETATM    9  C   UNL     1     -10.501  17.437  67.903  1.00  0.00    -0.383 C  
BRANCH   7  10
HETATM   10  C   UNL     1      -8.866  19.375  67.597  1.00  0.00    -0.355 A  
HETATM   11  C   UNL     1      -8.184  18.972  68.756  1.00  0.00    -0.369 A  
HETATM   12  C   UNL     1      -6.911  19.471  69.041  1.00  0.00    -0.392 A  
HETATM   13  C   UNL     1      -6.304  20.377  68.176  1.00  0.00    -0.328 A  
HETATM   14  C   UNL     1      -6.969  20.791  67.024  1.00  0.00    -0.386 A  
HETATM   15  C   UNL     1      -8.242  20.297  66.737  1.00  0.00    -0.317 A  
ENDBRANCH   7  10
ENDBRANCH   2   3
TORSDOF 2
ENDMDL
MODEL       27
REMARK 921   NORMALIZED FREE ENERGY PREDICTED BY IDOCK:   -4.90 KCAL/MOL
REMARK 922        TOTAL FREE ENERGY PREDICTED BY IDOCK:   -5.61 KCAL/MOL
REMARK 923 INTER-LIGAND FREE ENERGY PREDICTED BY IDOCK:   -5.31 KCAL/MOL
REMARK 924 INTRA-LIGAND FREE ENERGY PREDICTED BY IDOCK:   -0.31 KCAL/MOL
REMARK 927      BINDING AFFINITY PREDICTED BY RF-SCORE:    0.00 PKD
ROOT
HETATM    1  C   UNL     1      -6.983  20.714  67.494  1.00  0.00    -0.395 C  
HETATM    2  C   UNL     1      -7.430  19.404  68.126  1.00  0.00    -0.293 C  
ENDROOT
BRANCH   2   3
HETATM    3  N   UNL     1      -8.695  18.961  67.582  1.00  0.00    -0.285 N  
HETATM    4  C   UNL     1      -9.904  19.169  68.175  1.00  0.00    -0.369 C  
HETATM    5  N   UNL     1     -10.874  18.543  67.430  1.00  0.00    -0.379 NA 
HETATM    6  O   UNL     1     -10.130  19.787  69.203  1.00  0.00    -0.438 OA 
HETATM    7  C   UNL     1     -10.322  17.832  66.308  1.00  0.00    -0.358 C  
HETATM    8  O   UNL     1      -7.930  17.789  65.740  1.00  0.00    -0.544 OA 
HETATM    9  C   UNL     1      -8.835  18.169  66.470  1.00  0.00    -0.271 C  
BRANCH   7  10
HETATM   10  C   UNL     1     -10.630  16.356  66.364  1.00  0.00    -0.236 A  
HETATM   11  C   UNL     1     -10.699  15.611  65.176  1.00  0.00    -0.463 A  
HETATM   12  C   UNL     1     -10.980  14.243  65.209  1.00  0.00    -0.347 A  
HETATM   13  C   UNL     1     -11.198  13.603  66.427  1.00  0.00    -0.317 A  
HETATM   14  C   UNL     1     -11.140  14.329  67.614  1.00  0.00    -0.305 A  
HETATM   15  C   UNL     1     -10.861  15.696  67.584  1.00  0.00    -0.307 A  
ENDBRANCH   7  10
ENDBRANCH   2   3
TORSDOF 2
ENDMDL
MODEL       28
REMARK 921   NORMALIZED FREE ENERGY PREDICTED BY IDOCK:   -4.88 KCAL/MOL
REMARK 922        TOTAL FREE ENERGY PREDICTED BY IDOCK:   -5.59 KCAL/MOL
REMARK 923 INTER-LIGAND FREE ENERGY PREDICTED BY IDOCK:   -5.31 KCAL/MOL
REMARK 924 INTRA-LIGAND FREE ENERGY PREDICTED BY IDOCK:   -0.28 KCAL/MOL
REMARK 927      BINDING AFFINITY PREDICTED BY RF-SCORE:    0.00 PKD
ROOT
HETATM    1  C   UNL     1      -9.386  15.676  68.252  1.00  0.00    -0.192 C  
HETATM    2  C   UNL     1     -10.800  15.927  67.748  1.00  0.00    -0.324 C  
ENDROOT
BRANCH   2   3
HETATM    3  N   UNL     1     -11.377  14.728  67.179  1.00  0.00    -0.347 N  
HETATM    4  C   UNL     1     -11.911  13.710  67.910  1.00  0.00    -0.366 C  
HETATM    5  N   UNL     1     -12.285  12.703  67.054  1.00  0.00    -0.428 NA 
HETATM    6  O   UNL     1     -12.037  13.653  69.123  1.00  0.00    -0.345 OA 
HETATM    7  C   UNL     1     -11.959  13.004  65.686  1.00  0.00    -0.429 C  
HETATM    8  O   UNL     1     -10.913  15.102  64.945  1.00  0.00    -0.396 OA 
HETATM    9  C   UNL     1     -11.353  14.403  65.847  1.00  0.00    -0.332 C  
BRANCH   7  10
HETATM   10  C   UNL     1     -11.018  11.987  65.089  1.00  0.00    -0.359 A  
HETATM   11  C   UNL     1     -10.875  11.901  63.695  1.00  0.00    -0.510 A  
HETATM   12  C   UNL     1     -10.006  10.967  63.126  1.00  0.00    -0.382 A  
HETATM   13  C   UNL     1      -9.271  10.108  63.939  1.00  0.00    -0.322 A  
HETATM   14  C   UNL     1      -9.406  10.177  65.324  1.00  0.00    -0.278 A  
HETATM   15  C   UNL     1     -10.275  11.107  65.896  1.00  0.00    -0.303 A  
ENDBRANCH   7  10
ENDBRANCH   2   3
TORSDOF 2
ENDMDL
MODEL       29
REMARK 921   NORMALIZED FREE ENERGY PREDICTED BY IDOCK:   -4.86 KCAL/MOL
REMARK 922        TOTAL FREE ENERGY PREDICTED BY IDOCK:   -5.57 KCAL/MOL
REMARK 923 INTER-LIGAND FREE ENERGY PREDICTED BY IDOCK:   -5.36 KCAL/MOL
REMARK 924 INTRA-LIGAND FREE ENERGY PREDICTED BY IDOCK:   -0.21 KCAL/MOL
REMARK 927      BINDING AFFINITY PREDICTED BY RF-SCORE:    0.00 PKD
ROOT
HETATM    1  C   UNL     1     -11.949  13.797  67.025  1.00  0.00    -0.452 C  
HETATM    2  C   UNL     1     -10.974  13.278  68.071  1.00  0.00    -0.244 C  
ENDROOT
BRANCH   2   3
HETATM    3  N   UNL     1     -11.662  12.575  69.132  1.00  0.00    -0.309 N  
HETATM    4  C   UNL     1     -11.977  13.122  70.340  1.00  0.00    -0.266 C  
HETATM    5  N   UNL     1     -12.546  12.151  71.128  1.00  0.00    -0.330 NA 
HETATM    6  O   UNL     1     -11.786  14.270  70.707  1.00  0.00    -0.307 OA 
HETATM    7  C   UNL     1     -12.586  10.872  70.469  1.00  0.00    -0.324 C  
HETATM    8  O   UNL     1     -11.793  10.472  68.177  1.00  0.00    -0.417 OA 
HETATM    9  C   UNL     1     -11.977  11.240  69.111  1.00  0.00    -0.336 C  
BRANCH   7  10
HETATM   10  C   UNL     1     -11.817   9.819  71.227  1.00  0.00    -0.481 A  
HETATM   11  C   UNL     1     -10.431   9.697  71.042  1.00  0.00    -0.327 A  
HETATM   12  C   UNL     1      -9.703   8.730  71.738  1.00  0.00    -0.380 A  
HETATM   13  C   UNL     1     -10.348   7.872  72.626  1.00  0.00    -0.372 A  
HETATM   14  C   UNL     1     -11.723   7.976  72.817  1.00  0.00    -0.352 A  
HETATM   15  C   UNL     1     -12.454   8.940  72.121  1.00  0.00    -0.459 A  
ENDBRANCH   7  10
ENDBRANCH   2   3
TORSDOF 2
ENDMDL
MODEL       30
REMARK 921   NORMALIZED FREE ENERGY PREDICTED BY IDOCK:   -4.82 KCAL/MOL
REMARK 922        TOTAL FREE ENERGY PREDICTED BY IDOCK:   -5.52 KCAL/MOL
REMARK 923 INTER-LIGAND FREE ENERGY PREDICTED BY IDOCK:   -5.39 KCAL/MOL
REMARK 924 INTRA-LIGAND FREE ENERGY PREDICTED BY IDOCK:   -0.13 KCAL/MOL
REMARK 927      BINDING AFFINITY PREDICTED BY RF-SCORE:    0.00 PKD
ROOT
HETATM    1  C   UNL     1     -11.582  13.014  65.932  1.00  0.00    -0.405 C  
HETATM    2  C   UNL     1     -10.678  13.888  65.075  1.00  0.00    -0.386 C  
ENDROOT
BRANCH   2   3
HETATM    3  N   UNL     1     -10.632  15.246  65.572  1.00  0.00    -0.344 N  
HETATM    4  C   UNL     1     -11.047  16.337  64.869  1.00  0.00    -0.290 C  
HETATM    5  N   UNL     1     -10.780  17.464  65.608  1.00  0.00    -0.459 NA 
HETATM    6  O   UNL     1     -11.558  16.357  63.761  1.00  0.00    -1.055 OA 
HETATM    7  C   UNL     1     -10.112  17.157  66.845  1.00  0.00    -0.298 C  
HETATM    8  O   UNL     1      -9.565  14.879  67.591  1.00  0.00    -0.199 OA 
HETATM    9  C   UNL     1     -10.053  15.627  66.755  1.00  0.00    -0.272 C  
BRANCH   7  10
HETATM   10  C   UNL     1      -8.762  17.823  66.941  1.00  0.00    -0.262 A  
HETATM   11  C   UNL     1      -8.592  18.943  67.770  1.00  0.00    -0.318 A  
HETATM   12  C   UNL     1      -7.349  19.570  67.873  1.00  0.00    -0.310 A  
HETATM   13  C   UNL     1      -6.259  19.088  67.151  1.00  0.00    -0.179 A  
HETATM   14  C   UNL     1      -6.412  17.982  66.320  1.00  0.00    -0.263 A  
HETATM   15  C   UNL     1      -7.654  17.354  66.212  1.00  0.00    -0.348 A  
ENDBRANCH   7  10
ENDBRANCH   2   3
TORSDOF 2
ENDMDL
MODEL       31
REMARK 921   NORMALIZED FREE ENERGY PREDICTED BY IDOCK:   -4.81 KCAL/MOL
REMARK 922        TOTAL FREE ENERGY PREDICTED BY IDOCK:   -5.50 KCAL/MOL
REMARK 923 INTER-LIGAND FREE ENERGY PREDICTED BY IDOCK:   -5.19 KCAL/MOL
REMARK 924 INTRA-LIGAND FREE ENERGY PREDICTED BY IDOCK:   -0.31 KCAL/MOL
REMARK 927      BINDING AFFINITY PREDICTED BY RF-SCORE:    0.00 PKD
ROOT
HETATM    1  C   UNL     1      -7.586  19.498  67.834  1.00  0.00    -0.324 C  
HETATM    2  C   UNL     1      -8.561  18.413  68.268  1.00  0.00    -0.303 C  
ENDROOT
BRANCH   2   3
HETATM    3  N   UNL     1      -9.233  17.822  67.131  1.00  0.00    -0.249 N  
HETATM    4  C   UNL     1     -10.381  18.305  66.580  1.00  0.00    -0.392 C  
HETATM    5  N   UNL     1     -10.780  17.453  65.579  1.00  0.00    -0.522 NA 
HETATM    6  O   UNL     1     -10.994  19.310  66.901  1.00  0.00    -0.427 OA 
HETATM    7  C   UNL     1      -9.912  16.312  65.458  1.00  0.00    -0.182 C  
HETATM    8  O   UNL     1      -7.907  15.950  66.833  1.00  0.00    -0.212 OA 
HETATM    9  C   UNL     1      -8.876  16.637  66.541  1.00  0.00    -0.279 C  
BRANCH   7  10
HETATM   10  C   UNL     1     -10.648  15.013  65.676  1.00  0.00    -0.360 A  
HETATM   11  C   UNL     1     -11.350  14.800  66.872  1.00  0.00    -0.358 A  
HETATM   12  C   UNL     1     -12.040  13.605  67.089  1.00  0.00    -0.404 A  
HETATM   13  C   UNL     1     -12.037  12.608  66.117  1.00  0.00    -0.399 A  
HETATM   14  C   UNL     1     -11.340  12.802  64.926  1.00  0.00    -0.341 A  
HETATM   15  C   UNL     1     -10.648  13.994  64.708  1.00  0.00    -0.441 A  
ENDBRANCH   7  10
ENDBRANCH   2   3
TORSDOF 2
ENDMDL
MODEL       32
REMARK 921   NORMALIZED FREE ENERGY PREDICTED BY IDOCK:   -4.79 KCAL/MOL
REMARK 922        TOTAL FREE ENERGY PREDICTED BY IDOCK:   -5.49 KCAL/MOL
REMARK 923 INTER-LIGAND FREE ENERGY PREDICTED BY IDOCK:   -5.23 KCAL/MOL
REMARK 924 INTRA-LIGAND FREE ENERGY PREDICTED BY IDOCK:   -0.26 KCAL/MOL
REMARK 927      BINDING AFFINITY PREDICTED BY RF-SCORE:    0.00 PKD
ROOT
HETATM    1  C   UNL     1     -11.785  15.431  71.562  1.00  0.00    -0.467 C  
HETATM    2  C   UNL     1     -12.524  15.220  70.249  1.00  0.00    -0.363 C  
ENDROOT
BRANCH   2   3
HETATM    3  N   UNL     1     -11.605  14.968  69.161  1.00  0.00    -0.293 N  
HETATM    4  C   UNL     1     -10.911  15.936  68.499  1.00  0.00    -0.324 C  
HETATM    5  N   UNL     1     -10.205  15.351  67.477  1.00  0.00    -0.241 NA 
HETATM    6  O   UNL     1     -10.904  17.134  68.731  1.00  0.00    -0.305 OA 
HETATM    7  C   UNL     1     -10.449  13.936  67.388  1.00  0.00    -0.263 C  
HETATM    8  O   UNL     1     -11.908  12.687  68.923  1.00  0.00    -0.302 OA 
HETATM    9  C   UNL     1     -11.405  13.745  68.572  1.00  0.00    -0.285 C  
BRANCH   7  10
HETATM   10  C   UNL     1     -11.033  13.543  66.054  1.00  0.00    -0.281 A  
HETATM   11  C   UNL     1     -11.737  14.490  65.293  1.00  0.00    -0.361 A  
HETATM   12  C   UNL     1     -12.281  14.145  64.054  1.00  0.00    -0.369 A  
HETATM   13  C   UNL     1     -12.131  12.851  63.559  1.00  0.00    -0.633 A  
HETATM   14  C   UNL     1     -11.440  11.899  64.304  1.00  0.00    -0.423 A  
HETATM   15  C   UNL     1     -10.898  12.240  65.544  1.00  0.00    -0.319 A  
ENDBRANCH   7  10
ENDBRANCH   2   3
TORSDOF 2
ENDMDL
MODEL       33
REMARK 921   NORMALIZED FREE ENERGY PREDICTED BY IDOCK:   -4.77 KCAL/MOL
REMARK 922        TOTAL FREE ENERGY PREDICTED BY IDOCK:   -5.47 KCAL/MOL
REMARK 923 INTER-LIGAND FREE ENERGY PREDICTED BY IDOCK:   -5.35 KCAL/MOL
REMARK 924 INTRA-LIGAND FREE ENERGY PREDICTED BY IDOCK:   -0.12 KCAL/MOL
REMARK 927      BINDING AFFINITY PREDICTED BY RF-SCORE:    0.00 PKD
ROOT
HETATM    1  C   UNL     1      -8.556  10.360  65.819  1.00  0.00    -0.172 C  
HETATM    2  C   UNL     1      -9.952  10.158  65.248  1.00  0.00    -0.311 C  
ENDROOT
BRANCH   2   3
HETATM    3  N   UNL     1     -10.624  11.422  65.036  1.00  0.00    -0.297 N  
HETATM    4  C   UNL     1     -10.448  12.212  63.940  1.00  0.00    -0.409 C  
HETATM    5  N   UNL     1     -11.171  13.368  64.111  1.00  0.00    -0.375 NA 
HETATM    6  O   UNL     1      -9.761  11.979  62.959  1.00  0.00    -0.383 OA 
HETATM    7  C   UNL     1     -11.834  13.410  65.387  1.00  0.00    -0.353 C  
HETATM    8  O   UNL     1     -11.745  11.603  67.051  1.00  0.00    -0.564 OA 
HETATM    9  C   UNL     1     -11.423  12.048  65.958  1.00  0.00    -0.338 C  
BRANCH   7  10
HETATM   10  C   UNL     1     -11.389  14.588  66.218  1.00  0.00    -0.352 A  
HETATM   11  C   UNL     1     -11.801  14.695  67.556  1.00  0.00    -0.375 A  
HETATM   12  C   UNL     1     -11.396  15.777  68.341  1.00  0.00    -0.372 A  
HETATM   13  C   UNL     1     -10.578  16.766  67.801  1.00  0.00    -0.341 A  
HETATM   14  C   UNL     1     -10.166  16.679  66.474  1.00  0.00    -0.314 A  
HETATM   15  C   UNL     1     -10.570  15.600  65.686  1.00  0.00    -0.393 A  
ENDBRANCH   7  10
ENDBRANCH   2   3
TORSDOF 2
ENDMDL
MODEL       34
REMARK 921   NORMALIZED FREE ENERGY PREDICTED BY IDOCK:   -4.77 KCAL/MOL
REMARK 922        TOTAL FREE ENERGY PREDICTED BY IDOCK:   -5.46 KCAL/MOL
REMARK 923 INTER-LIGAND FREE ENERGY PREDICTED BY IDOCK:   -5.16 KCAL/MOL
REMARK 924 INTRA-LIGAND FREE ENERGY PREDICTED BY IDOCK:   -0.30 KCAL/MOL
REMARK 927      BINDING AFFINITY PREDICTED BY RF-SCORE:    0.00 PKD
ROOT
HETATM    1  C   UNL     1      -9.739  20.131  67.336  1.00  0.00    -0.563 C  
HETATM    2  C   UNL     1     -10.717  18.969  67.434  1.00  0.00    -0.473 C  
ENDROOT
BRANCH   2   3
HETATM    3  N   UNL     1     -10.142  17.751  66.907  1.00  0.00    -0.326 N  
HETATM    4  C   UNL     1     -10.331  17.296  65.637  1.00  0.00    -0.171 C  
HETATM    5  N   UNL     1      -9.714  16.076  65.509  1.00  0.00    -0.443 NA 
HETATM    6  O   UNL     1     -10.952  17.841  64.738  1.00  0.00    -0.855 OA 
HETATM    7  C   UNL     1      -9.116  15.638  66.743  1.00  0.00    -0.254 C  
HETATM    8  O   UNL     1      -9.133  16.943  68.826  1.00  0.00    -0.256 OA 
HETATM    9  C   UNL     1      -9.439  16.834  67.647  1.00  0.00    -0.234 C  
BRANCH   7  10
HETATM   10  C   UNL     1      -9.692  14.328  67.219  1.00  0.00    -0.234 A  
HETATM   11  C   UNL     1     -11.034  14.017  66.952  1.00  0.00    -0.301 A  
HETATM   12  C   UNL     1     -11.583  12.807  67.383  1.00  0.00    -0.415 A  
HETATM   13  C   UNL     1     -10.801  11.894  68.087  1.00  0.00    -0.259 A  
HETATM   14  C   UNL     1      -9.469  12.191  68.366  1.00  0.00    -0.179 A  
HETATM   15  C   UNL     1      -8.918  13.400  67.939  1.00  0.00    -0.201 A  
ENDBRANCH   7  10
ENDBRANCH   2   3
TORSDOF 2
ENDMDL
MODEL       35
REMARK 921   NORMALIZED FREE ENERGY PREDICTED BY IDOCK:   -4.76 KCAL/MOL
REMARK 922        TOTAL FREE ENERGY PREDICTED BY IDOCK:   -5.45 KCAL/MOL
REMARK 923 INTER-LIGAND FREE ENERGY PREDICTED BY IDOCK:   -5.25 KCAL/MOL
REMARK 924 INTRA-LIGAND FREE ENERGY PREDICTED BY IDOCK:   -0.20 KCAL/MOL
REMARK 927      BINDING AFFINITY PREDICTED BY RF-SCORE:    0.00 PKD
ROOT
HETATM    1  C   UNL     1      -9.298  18.764  68.860  1.00  0.00    -0.302 C  
HETATM    2  C   UNL     1     -10.268  17.615  68.627  1.00  0.00    -0.377 C  
ENDROOT
BRANCH   2   3
HETATM    3  N   UNL     1     -10.066  17.009  67.329  1.00  0.00    -0.287 N  
HETATM    4  C   UNL     1     -10.362  17.612  66.143  1.00  0.00    -0.334 C  
HETATM    5  N   UNL     1     -10.124  16.720  65.125  1.00  0.00    -0.382 NA 
HETATM    6  O   UNL     1     -10.784  18.743  65.971  1.00  0.00    -0.419 OA 
HETATM    7  C   UNL     1      -9.696  15.437  65.616  1.00  0.00    -0.331 C  
HETATM    8  O   UNL     1      -9.361  14.908  67.993  1.00  0.00    -0.188 OA 
HETATM    9  C   UNL     1      -9.670  15.712  67.124  1.00  0.00    -0.223 C  
BRANCH   7  10
HETATM   10  C   UNL     1     -10.635  14.331  65.204  1.00  0.00    -0.423 A  
HETATM   11  C   UNL     1     -10.176  13.297  64.373  1.00  0.00    -0.300 A  
HETATM   12  C   UNL     1     -11.030  12.263  63.985  1.00  0.00    -0.438 A  
HETATM   13  C   UNL     1     -12.353  12.247  64.420  1.00  0.00    -0.493 A  
HETATM   14  C   UNL     1     -12.826  13.268  65.241  1.00  0.00    -0.368 A  
HETATM   15  C   UNL     1     -11.975  14.304  65.628  1.00  0.00    -0.390 A  
ENDBRANCH   7  10
ENDBRANCH   2   3
TORSDOF 2
ENDMDL
MODEL       36
REMARK 921   NORMALIZED FREE ENERGY PREDICTED BY IDOCK:   -4.75 KCAL/MOL
REMARK 922        TOTAL FREE ENERGY PREDICTED BY IDOCK:   -5.44 KCAL/MOL
REMARK 923 INTER-LIGAND FREE ENERGY PREDICTED BY IDOCK:   -5.31 KCAL/MOL
REMARK 924 INTRA-LIGAND FREE ENERGY PREDICTED BY IDOCK:   -0.13 KCAL/MOL
REMARK 927      BINDING AFFINITY PREDICTED BY RF-SCORE:    0.00 PKD
ROOT
HETATM    1  C   UNL     1      -9.642  11.291  66.408  1.00  0.00    -0.223 C  
HETATM    2  C   UNL     1      -9.563  11.574  67.901  1.00  0.00    -0.177 C  
ENDROOT
BRANCH   2   3
HETATM    3  N   UNL     1     -10.305  12.766  68.252  1.00  0.00    -0.238 N  
HETATM    4  C   UNL     1      -9.788  14.027  68.237  1.00  0.00    -0.233 C  
HETATM    5  N   UNL     1     -10.741  14.898  68.706  1.00  0.00    -0.244 NA 
HETATM    6  O   UNL     1      -8.669  14.366  67.890  1.00  0.00    -0.154 OA 
HETATM    7  C   UNL     1     -11.945  14.221  69.109  1.00  0.00    -0.335 C  
HETATM    8  O   UNL     1     -12.295  11.795  68.922  1.00  0.00    -0.293 OA 
HETATM    9  C   UNL     1     -11.578  12.773  68.761  1.00  0.00    -0.312 C  
BRANCH   7  10
HETATM   10  C   UNL     1     -12.262  14.446  70.566  1.00  0.00    -0.411 A  
HETATM   11  C   UNL     1     -11.529  15.389  71.304  1.00  0.00    -0.444 A  
HETATM   12  C   UNL     1     -11.811  15.612  72.653  1.00  0.00    -0.590 A  
HETATM   13  C   UNL     1     -12.827  14.898  73.284  1.00  0.00    -0.646 A  
HETATM   14  C   UNL     1     -13.560  13.954  72.568  1.00  0.00    -0.680 A  
HETATM   15  C   UNL     1     -13.279  13.727  71.220  1.00  0.00    -0.331 A  
ENDBRANCH   7  10
ENDBRANCH   2   3
TORSDOF 2
ENDMDL
MODEL       37
REMARK 921   NORMALIZED FREE ENERGY PREDICTED BY IDOCK:   -4.75 KCAL/MOL
REMARK 922        TOTAL FREE ENERGY PREDICTED BY IDOCK:   -5.44 KCAL/MOL
REMARK 923 INTER-LIGAND FREE ENERGY PREDICTED BY IDOCK:   -5.12 KCAL/MOL
REMARK 924 INTRA-LIGAND FREE ENERGY PREDICTED BY IDOCK:   -0.32 KCAL/MOL
REMARK 927      BINDING AFFINITY PREDICTED BY RF-SCORE:    0.00 PKD
ROOT
HETATM    1  C   UNL     1      -9.100  12.999  66.706  1.00  0.00    -0.212 C  
HETATM    2  C   UNL     1      -9.314  13.100  68.209  1.00  0.00    -0.201 C  
ENDROOT
BRANCH   2   3
HETATM    3  N   UNL     1     -10.036  14.304  68.559  1.00  0.00    -0.242 N  
HETATM    4  C   UNL     1     -11.386  14.451  68.447  1.00  0.00    -0.287 C  
HETATM    5  N   UNL     1     -11.717  15.742  68.783  1.00  0.00    -0.395 NA 
HETATM    6  O   UNL     1     -12.198  13.612  68.094  1.00  0.00    -0.322 OA 
HETATM    7  C   UNL     1     -10.558  16.536  69.093  1.00  0.00    -0.319 C  
HETATM    8  O   UNL     1      -8.254  15.680  69.089  1.00  0.00    -0.212 OA 
HETATM    9  C   UNL     1      -9.451  15.488  68.929  1.00  0.00    -0.223 C  
BRANCH   7  10
HETATM   10  C   UNL     1     -10.425  17.726  68.176  1.00  0.00    -0.382 A  
HETATM   11  C   UNL     1     -10.067  18.977  68.702  1.00  0.00    -0.449 A  
HETATM   12  C   UNL     1      -9.935  20.089  67.867  1.00  0.00    -0.558 A  
HETATM   13  C   UNL     1     -10.160  19.967  66.498  1.00  0.00    -0.606 A  
HETATM   14  C   UNL     1     -10.522  18.734  65.961  1.00  0.00    -0.483 A  
HETATM   15  C   UNL     1     -10.656  17.622  66.793  1.00  0.00    -0.224 A  
ENDBRANCH   7  10
ENDBRANCH   2   3
TORSDOF 2
ENDMDL
MODEL       38
REMARK 921   NORMALIZED FREE ENERGY PREDICTED BY IDOCK:   -4.74 KCAL/MOL
REMARK 922        TOTAL FREE ENERGY PREDICTED BY IDOCK:   -5.44 KCAL/MOL
REMARK 923 INTER-LIGAND FREE ENERGY PREDICTED BY IDOCK:   -5.18 KCAL/MOL
REMARK 924 INTRA-LIGAND FREE ENERGY PREDICTED BY IDOCK:   -0.25 KCAL/MOL
REMARK 927      BINDING AFFINITY PREDICTED BY RF-SCORE:    0.00 PKD
ROOT
HETATM    1  C   UNL     1     -11.200  15.194  65.030  1.00  0.00    -0.414 C  
HETATM    2  C   UNL     1     -10.287  14.390  65.944  1.00  0.00    -0.314 C  
ENDROOT
BRANCH   2   3
HETATM    3  N   UNL     1     -10.936  14.084  67.200  1.00  0.00    -0.292 N  
HETATM    4  C   UNL     1     -10.724  14.763  68.362  1.00  0.00    -0.243 C  
HETATM    5  N   UNL     1     -11.435  14.151  69.366  1.00  0.00    -0.273 NA 
HETATM    6  O   UNL     1     -10.017  15.744  68.531  1.00  0.00    -0.203 OA 
HETATM    7  C   UNL     1     -12.128  12.978  68.903  1.00  0.00    -0.168 C  
HETATM    8  O   UNL     1     -12.102  12.186  66.576  1.00  0.00    -0.627 OA 
HETATM    9  C   UNL     1     -11.749  13.000  67.418  1.00  0.00    -0.374 C  
BRANCH   7  10
HETATM   10  C   UNL     1     -11.687  11.734  69.635  1.00  0.00    -0.413 A  
HETATM   11  C   UNL     1     -12.463  11.234  70.692  1.00  0.00    -0.439 A  
HETATM   12  C   UNL     1     -12.073  10.082  71.379  1.00  0.00    -0.498 A  
HETATM   13  C   UNL     1     -10.903   9.416  71.020  1.00  0.00    -0.406 A  
HETATM   14  C   UNL     1     -10.119   9.903  69.978  1.00  0.00    -0.308 A  
HETATM   15  C   UNL     1     -10.505  11.055  69.291  1.00  0.00    -0.210 A  
ENDBRANCH   7  10
ENDBRANCH   2   3
TORSDOF 2
ENDMDL
MODEL       39
REMARK 921   NORMALIZED FREE ENERGY PREDICTED BY IDOCK:   -4.70 KCAL/MOL
REMARK 922        TOTAL FREE ENERGY PREDICTED BY IDOCK:   -5.38 KCAL/MOL
REMARK 923 INTER-LIGAND FREE ENERGY PREDICTED BY IDOCK:   -5.12 KCAL/MOL
REMARK 924 INTRA-LIGAND FREE ENERGY PREDICTED BY IDOCK:   -0.27 KCAL/MOL
REMARK 927      BINDING AFFINITY PREDICTED BY RF-SCORE:    0.00 PKD
ROOT
HETATM    1  C   UNL     1      -7.680  19.782  65.864  1.00  0.00    -0.328 C  
HETATM    2  C   UNL     1      -8.233  20.013  67.263  1.00  0.00    -0.326 C  
ENDROOT
BRANCH   2   3
HETATM    3  N   UNL     1      -8.817  18.805  67.806  1.00  0.00    -0.287 N  
HETATM    4  C   UNL     1      -8.116  17.839  68.463  1.00  0.00    -0.297 C  
HETATM    5  N   UNL     1      -8.968  16.803  68.761  1.00  0.00    -0.257 NA 
HETATM    6  O   UNL     1      -6.929  17.845  68.745  1.00  0.00    -0.244 OA 
HETATM    7  C   UNL     1     -10.295  17.029  68.253  1.00  0.00    -0.347 C  
HETATM    8  O   UNL     1     -10.988  19.056  67.047  1.00  0.00    -0.399 OA 
HETATM    9  C   UNL     1     -10.119  18.415  67.622  1.00  0.00    -0.360 C  
BRANCH   7  10
HETATM   10  C   UNL     1     -10.719  15.957  67.280  1.00  0.00    -0.306 A  
HETATM   11  C   UNL     1     -10.344  16.049  65.930  1.00  0.00    -0.386 A  
HETATM   12  C   UNL     1     -10.725  15.064  65.017  1.00  0.00    -0.448 A  
HETATM   13  C   UNL     1     -11.486  13.976  65.437  1.00  0.00    -0.315 A  
HETATM   14  C   UNL     1     -11.872  13.873  66.771  1.00  0.00    -0.452 A  
HETATM   15  C   UNL     1     -11.495  14.856  67.686  1.00  0.00    -0.366 A  
ENDBRANCH   7  10
ENDBRANCH   2   3
TORSDOF 2
ENDMDL
MODEL       40
REMARK 921   NORMALIZED FREE ENERGY PREDICTED BY IDOCK:   -4.69 KCAL/MOL
REMARK 922        TOTAL FREE ENERGY PREDICTED BY IDOCK:   -5.37 KCAL/MOL
REMARK 923 INTER-LIGAND FREE ENERGY PREDICTED BY IDOCK:   -5.13 KCAL/MOL
REMARK 924 INTRA-LIGAND FREE ENERGY PREDICTED BY IDOCK:   -0.24 KCAL/MOL
REMARK 927      BINDING AFFINITY PREDICTED BY RF-SCORE:    0.00 PKD
ROOT
HETATM    1  C   UNL     1      -8.395  18.914  68.703  1.00  0.00    -0.384 C  
HETATM    2  C   UNL     1      -8.045  17.599  68.022  1.00  0.00    -0.243 C  
ENDROOT
BRANCH   2   3
HETATM    3  N   UNL     1      -9.153  16.670  68.068  1.00  0.00    -0.215 N  
HETATM    4  C   UNL     1     -10.309  16.816  67.362  1.00  0.00    -0.302 C  
HETATM    5  N   UNL     1     -11.169  15.802  67.711  1.00  0.00    -0.320 NA 
HETATM    6  O   UNL     1     -10.584  17.693  66.559  1.00  0.00    -0.304 OA 
HETATM    7  C   UNL     1     -10.616  14.949  68.729  1.00  0.00    -0.247 C  
HETATM    8  O   UNL     1      -8.372  15.222  69.693  1.00  0.00    -0.235 OA 
HETATM    9  C   UNL     1      -9.239  15.595  68.915  1.00  0.00    -0.226 C  
BRANCH   7  10
HETATM   10  C   UNL     1     -11.465  14.930  69.976  1.00  0.00    -0.317 A  
HETATM   11  C   UNL     1     -11.495  16.054  70.817  1.00  0.00    -0.444 A  
HETATM   12  C   UNL     1     -12.278  16.056  71.974  1.00  0.00    -0.582 A  
HETATM   13  C   UNL     1     -13.038  14.937  72.307  1.00  0.00    -0.439 A  
HETATM   14  C   UNL     1     -13.014  13.812  71.486  1.00  0.00    -0.444 A  
HETATM   15  C   UNL     1     -12.231  13.806  70.331  1.00  0.00    -0.433 A  
ENDBRANCH   7  10
ENDBRANCH   2   3
TORSDOF 2
ENDMDL
MODEL       41
REMARK 921   NORMALIZED FREE ENERGY PREDICTED BY IDOCK:   -4.67 KCAL/MOL
REMARK 922        TOTAL FREE ENERGY PREDICTED BY IDOCK:   -5.35 KCAL/MOL
REMARK 923 INTER-LIGAND FREE ENERGY PREDICTED BY IDOCK:   -5.22 KCAL/MOL
REMARK 924 INTRA-LIGAND FREE ENERGY PREDICTED BY IDOCK:   -0.13 KCAL/MOL
REMARK 927      BINDING AFFINITY PREDICTED BY RF-SCORE:    0.00 PKD
ROOT
HETATM    1  C   UNL     1     -10.659  17.729  66.940  1.00  0.00    -0.247 C  
HETATM    2  C   UNL     1     -10.432  17.393  65.474  1.00  0.00    -0.101 C  
ENDROOT
BRANCH   2   3
HETATM    3  N   UNL     1     -10.580  15.974  65.229  1.00  0.00    -0.415 N  
HETATM    4  C   UNL     1     -11.588  15.421  64.498  1.00  0.00    -0.296 C  
HETATM    5  N   UNL     1     -11.465  14.053  64.545  1.00  0.00    -0.375 NA 
HETATM    6  O   UNL     1     -12.479  16.003  63.902  1.00  0.00    -0.806 OA 
HETATM    7  C   UNL     1     -10.367  13.634  65.375  1.00  0.00    -0.332 C  
HETATM    8  O   UNL     1      -8.839  15.177  66.527  1.00  0.00    -0.275 OA 
HETATM    9  C   UNL     1      -9.805  14.996  65.798  1.00  0.00    -0.353 C  
BRANCH   7  10
HETATM   10  C   UNL     1     -10.821  12.768  66.523  1.00  0.00    -0.280 A  
HETATM   11  C   UNL     1     -10.669  11.375  66.451  1.00  0.00    -0.325 A  
HETATM   12  C   UNL     1     -11.081  10.558  67.506  1.00  0.00    -0.358 A  
HETATM   13  C   UNL     1     -11.651  11.121  68.646  1.00  0.00    -0.383 A  
HETATM   14  C   UNL     1     -11.815  12.501  68.731  1.00  0.00    -0.347 A  
HETATM   15  C   UNL     1     -11.406  13.320  67.677  1.00  0.00    -0.328 A  
ENDBRANCH   7  10
ENDBRANCH   2   3
TORSDOF 2
ENDMDL
MODEL       42
REMARK 921   NORMALIZED FREE ENERGY PREDICTED BY IDOCK:   -4.66 KCAL/MOL
REMARK 922        TOTAL FREE ENERGY PREDICTED BY IDOCK:   -5.34 KCAL/MOL
REMARK 923 INTER-LIGAND FREE ENERGY PREDICTED BY IDOCK:   -5.03 KCAL/MOL
REMARK 924 INTRA-LIGAND FREE ENERGY PREDICTED BY IDOCK:   -0.32 KCAL/MOL
REMARK 927      BINDING AFFINITY PREDICTED BY RF-SCORE:    0.00 PKD
ROOT
HETATM    1  C   UNL     1     -11.737   9.828  71.482  1.00  0.00    -0.450 C  
HETATM    2  C   UNL     1     -12.497  10.479  70.336  1.00  0.00    -0.310 C  
ENDROOT
BRANCH   2   3
HETATM    3  N   UNL     1     -11.827  11.675  69.871  1.00  0.00    -0.337 N  
HETATM    4  C   UNL     1     -12.049  12.924  70.368  1.00  0.00    -0.306 C  
HETATM    5  N   UNL     1     -11.311  13.825  69.639  1.00  0.00    -0.218 NA 
HETATM    6  O   UNL     1     -12.784  13.236  71.291  1.00  0.00    -0.359 OA 
HETATM    7  C   UNL     1     -10.588  13.193  68.568  1.00  0.00    -0.259 C  
HETATM    8  O   UNL     1     -10.610  10.776  68.121  1.00  0.00    -0.179 OA 
HETATM    9  C   UNL     1     -10.980  11.729  68.793  1.00  0.00    -0.234 C  
BRANCH   7  10
HETATM   10  C   UNL     1     -10.983  13.739  67.218  1.00  0.00    -0.302 A  
HETATM   11  C   UNL     1     -10.067  14.499  66.475  1.00  0.00    -0.280 A  
HETATM   12  C   UNL     1     -10.415  15.009  65.223  1.00  0.00    -0.428 A  
HETATM   13  C   UNL     1     -11.682  14.769  64.696  1.00  0.00    -0.426 A  
HETATM   14  C   UNL     1     -12.605  14.021  65.423  1.00  0.00    -0.529 A  
HETATM   15  C   UNL     1     -12.261  13.512  66.676  1.00  0.00    -0.411 A  
ENDBRANCH   7  10
ENDBRANCH   2   3
TORSDOF 2
ENDMDL
MODEL       43
REMARK 921   NORMALIZED FREE ENERGY PREDICTED BY IDOCK:   -4.66 KCAL/MOL
REMARK 922        TOTAL FREE ENERGY PREDICTED BY IDOCK:   -5.34 KCAL/MOL
REMARK 923 INTER-LIGAND FREE ENERGY PREDICTED BY IDOCK:   -5.11 KCAL/MOL
REMARK 924 INTRA-LIGAND FREE ENERGY PREDICTED BY IDOCK:   -0.23 KCAL/MOL
REMARK 927      BINDING AFFINITY PREDICTED BY RF-SCORE:    0.00 PKD
ROOT
HETATM    1  C   UNL     1      -8.819  11.027  66.130  1.00  0.00    -0.197 C  
HETATM    2  C   UNL     1     -10.219  11.045  65.533  1.00  0.00    -0.268 C  
ENDROOT
BRANCH   2   3
HETATM    3  N   UNL     1     -10.975  12.188  65.996  1.00  0.00    -0.281 N  
HETATM    4  C   UNL     1     -10.903  13.433  65.446  1.00  0.00    -0.294 C  
HETATM    5  N   UNL     1     -11.684  14.287  66.186  1.00  0.00    -0.378 NA 
HETATM    6  O   UNL     1     -10.252  13.778  64.473  1.00  0.00    -0.414 OA 
HETATM    7  C   UNL     1     -12.284  13.632  67.317  1.00  0.00    -0.275 C  
HETATM    8  O   UNL     1     -12.003  11.246  67.842  1.00  0.00    -0.630 OA 
HETATM    9  C   UNL     1     -11.764  12.203  67.118  1.00  0.00    -0.302 C  
BRANCH   7  10
HETATM   10  C   UNL     1     -11.871  14.264  68.623  1.00  0.00    -0.379 A  
HETATM   11  C   UNL     1     -10.938  15.313  68.628  1.00  0.00    -0.257 A  
HETATM   12  C   UNL     1     -10.547  15.912  69.827  1.00  0.00    -0.322 A  
HETATM   13  C   UNL     1     -11.079  15.471  71.037  1.00  0.00    -0.387 A  
HETATM   14  C   UNL     1     -12.001  14.426  71.050  1.00  0.00    -0.389 A  
HETATM   15  C   UNL     1     -12.392  13.824  69.853  1.00  0.00    -0.334 A  
ENDBRANCH   7  10
ENDBRANCH   2   3
TORSDOF 2
ENDMDL
MODEL       44
REMARK 921   NORMALIZED FREE ENERGY PREDICTED BY IDOCK:   -4.66 KCAL/MOL
REMARK 922        TOTAL FREE ENERGY PREDICTED BY IDOCK:   -5.34 KCAL/MOL
REMARK 923 INTER-LIGAND FREE ENERGY PREDICTED BY IDOCK:   -5.06 KCAL/MOL
REMARK 924 INTRA-LIGAND FREE ENERGY PREDICTED BY IDOCK:   -0.28 KCAL/MOL
REMARK 927      BINDING AFFINITY PREDICTED BY RF-SCORE:    0.00 PKD
ROOT
HETATM    1  C   UNL     1     -12.577  12.074  63.598  1.00  0.00    -0.605 C  
HETATM    2  C   UNL     1     -11.074  12.239  63.426  1.00  0.00    -0.418 C  
ENDROOT
BRANCH   2   3
HETATM    3  N   UNL     1     -10.428  12.526  64.688  1.00  0.00    -0.304 N  
HETATM    4  C   UNL     1      -9.950  11.578  65.542  1.00  0.00    -0.242 C  
HETATM    5  N   UNL     1      -9.482  12.200  66.674  1.00  0.00    -0.218 NA 
HETATM    6  O   UNL     1      -9.936  10.369  65.375  1.00  0.00    -0.261 OA 
HETATM    7  C   UNL     1      -9.683  13.624  66.633  1.00  0.00    -0.284 C  
HETATM    8  O   UNL     1     -10.687  14.824  64.738  1.00  0.00    -0.407 OA 
HETATM    9  C   UNL     1     -10.323  13.774  65.249  1.00  0.00    -0.361 C  
BRANCH   7  10
HETATM   10  C   UNL     1     -10.548  14.106  67.771  1.00  0.00    -0.243 A  
HETATM   11  C   UNL     1     -10.612  15.477  68.067  1.00  0.00    -0.270 A  
HETATM   12  C   UNL     1     -11.411  15.942  69.115  1.00  0.00    -0.366 A  
HETATM   13  C   UNL     1     -12.154  15.046  69.879  1.00  0.00    -0.376 A  
HETATM   14  C   UNL     1     -12.097  13.682  69.602  1.00  0.00    -0.378 A  
HETATM   15  C   UNL     1     -11.298  13.214  68.557  1.00  0.00    -0.321 A  
ENDBRANCH   7  10
ENDBRANCH   2   3
TORSDOF 2
ENDMDL
MODEL       45
REMARK 921   NORMALIZED FREE ENERGY PREDICTED BY IDOCK:   -4.65 KCAL/MOL
REMARK 922        TOTAL FREE ENERGY PREDICTED BY IDOCK:   -5.34 KCAL/MOL
REMARK 923 INTER-LIGAND FREE ENERGY PREDICTED BY IDOCK:   -5.08 KCAL/MOL
REMARK 924 INTRA-LIGAND FREE ENERGY PREDICTED BY IDOCK:   -0.26 KCAL/MOL
REMARK 927      BINDING AFFINITY PREDICTED BY RF-SCORE:    0.00 PKD
ROOT
HETATM    1  C   UNL     1     -10.534  12.626  64.617  1.00  0.00    -0.361 C  
HETATM    2  C   UNL     1     -10.412  14.122  64.866  1.00  0.00    -0.438 C  
ENDROOT
BRANCH   2   3
HETATM    3  N   UNL     1     -10.624  14.444  66.260  1.00  0.00    -0.286 N  
HETATM    4  C   UNL     1      -9.627  14.734  67.143  1.00  0.00    -0.227 C  
HETATM    5  N   UNL     1     -10.180  14.905  68.390  1.00  0.00    -0.226 NA 
HETATM    6  O   UNL     1      -8.432  14.820  66.912  1.00  0.00    -0.225 OA 
HETATM    7  C   UNL     1     -11.601  14.679  68.389  1.00  0.00    -0.323 C  
HETATM    8  O   UNL     1     -12.910  14.117  66.386  1.00  0.00    -0.240 OA 
HETATM    9  C   UNL     1     -11.833  14.379  66.904  1.00  0.00    -0.410 C  
BRANCH   7  10
HETATM   10  C   UNL     1     -11.997  13.556  69.316  1.00  0.00    -0.378 A  
HETATM   11  C   UNL     1     -12.595  13.848  70.552  1.00  0.00    -0.382 A  
HETATM   12  C   UNL     1     -12.971  12.822  71.420  1.00  0.00    -0.359 A  
HETATM   13  C   UNL     1     -12.755  11.492  71.068  1.00  0.00    -0.426 A  
HETATM   14  C   UNL     1     -12.157  11.185  69.848  1.00  0.00    -0.418 A  
HETATM   15  C   UNL     1     -11.778  12.209  68.979  1.00  0.00    -0.377 A  
ENDBRANCH   7  10
ENDBRANCH   2   3
TORSDOF 2
ENDMDL
MODEL       46
REMARK 921   NORMALIZED FREE ENERGY PREDICTED BY IDOCK:   -4.65 KCAL/MOL
REMARK 922        TOTAL FREE ENERGY PREDICTED BY IDOCK:   -5.33 KCAL/MOL
REMARK 923 INTER-LIGAND FREE ENERGY PREDICTED BY IDOCK:   -4.99 KCAL/MOL
REMARK 924 INTRA-LIGAND FREE ENERGY PREDICTED BY IDOCK:   -0.34 KCAL/MOL
REMARK 927      BINDING AFFINITY PREDICTED BY RF-SCORE:    0.00 PKD
ROOT
HETATM    1  C   UNL     1      -9.965   9.924  66.101  1.00  0.00    -0.331 C  
HETATM    2  C   UNL     1      -9.735  11.352  65.627  1.00  0.00    -0.231 C  
ENDROOT
BRANCH   2   3
HETATM    3  N   UNL     1      -9.945  12.303  66.697  1.00  0.00    -0.212 N  
HETATM    4  C   UNL     1      -8.971  12.729  67.550  1.00  0.00    -0.192 C  
HETATM    5  N   UNL     1      -9.538  13.557  68.488  1.00  0.00    -0.191 NA 
HETATM    6  O   UNL     1      -7.787  12.435  67.531  1.00  0.00    -0.147 OA 
HETATM    7  C   UNL     1     -10.962  13.676  68.316  1.00  0.00    -0.254 C  
HETATM    8  O   UNL     1     -12.234  12.582  66.520  1.00  0.00    -0.569 OA 
HETATM    9  C   UNL     1     -11.165  12.803  67.073  1.00  0.00    -0.292 C  
BRANCH   7  10
HETATM   10  C   UNL     1     -11.721  13.207  69.533  1.00  0.00    -0.382 A  
HETATM   11  C   UNL     1     -11.772  11.838  69.840  1.00  0.00    -0.399 A  
HETATM   12  C   UNL     1     -12.467  11.386  70.964  1.00  0.00    -0.486 A  
HETATM   13  C   UNL     1     -13.121  12.294  71.794  1.00  0.00    -0.449 A  
HETATM   14  C   UNL     1     -13.085  13.654  71.500  1.00  0.00    -0.431 A  
HETATM   15  C   UNL     1     -12.393  14.109  70.376  1.00  0.00    -0.428 A  
ENDBRANCH   7  10
ENDBRANCH   2   3
TORSDOF 2
ENDMDL
MODEL       47
REMARK 921   NORMALIZED FREE ENERGY PREDICTED BY IDOCK:   -4.64 KCAL/MOL
REMARK 922        TOTAL FREE ENERGY PREDICTED BY IDOCK:   -5.31 KCAL/MOL
REMARK 923 INTER-LIGAND FREE ENERGY PREDICTED BY IDOCK:   -4.95 KCAL/MOL
REMARK 924 INTRA-LIGAND FREE ENERGY PREDICTED BY IDOCK:   -0.36 KCAL/MOL
REMARK 927      BINDING AFFINITY PREDICTED BY RF-SCORE:    0.00 PKD
ROOT
HETATM    1  C   UNL     1     -10.350  11.934  63.578  1.00  0.00    -0.495 C  
HETATM    2  C   UNL     1     -11.113  11.415  64.787  1.00  0.00    -0.188 C  
ENDROOT
BRANCH   2   3
HETATM    3  N   UNL     1     -11.301  12.452  65.778  1.00  0.00    -0.336 N  
HETATM    4  C   UNL     1     -12.318  13.359  65.760  1.00  0.00    -0.460 C  
HETATM    5  N   UNL     1     -12.138  14.242  66.796  1.00  0.00    -0.440 NA 
HETATM    6  O   UNL     1     -13.242  13.422  64.965  1.00  0.00    -0.715 OA 
HETATM    7  C   UNL     1     -10.932  13.976  67.533  1.00  0.00    -0.277 C  
HETATM    8  O   UNL     1      -9.396  12.120  67.046  1.00  0.00    -0.190 OA 
HETATM    9  C   UNL     1     -10.419  12.738  66.789  1.00  0.00    -0.241 C  
BRANCH   7  10
HETATM   10  C   UNL     1      -9.982  15.148  67.510  1.00  0.00    -0.225 A  
HETATM   11  C   UNL     1      -9.666  15.815  68.704  1.00  0.00    -0.205 A  
HETATM   12  C   UNL     1      -8.786  16.900  68.701  1.00  0.00    -0.262 A  
HETATM   13  C   UNL     1      -8.213  17.334  67.509  1.00  0.00    -0.204 A  
HETATM   14  C   UNL     1      -8.522  16.687  66.314  1.00  0.00    -0.355 A  
HETATM   15  C   UNL     1      -9.402  15.604  66.313  1.00  0.00    -0.358 A  
ENDBRANCH   7  10
ENDBRANCH   2   3
TORSDOF 2
ENDMDL
MODEL       48
REMARK 921   NORMALIZED FREE ENERGY PREDICTED BY IDOCK:   -4.64 KCAL/MOL
REMARK 922        TOTAL FREE ENERGY PREDICTED BY IDOCK:   -5.31 KCAL/MOL
REMARK 923 INTER-LIGAND FREE ENERGY PREDICTED BY IDOCK:   -5.31 KCAL/MOL
REMARK 924 INTRA-LIGAND FREE ENERGY PREDICTED BY IDOCK:   -0.00 KCAL/MOL
REMARK 927      BINDING AFFINITY PREDICTED BY RF-SCORE:    0.00 PKD
ROOT
HETATM    1  C   UNL     1     -11.764  12.204  65.711  1.00  0.00    -0.391 C  
HETATM    2  C   UNL     1     -12.188  13.652  65.917  1.00  0.00    -0.461 C  
ENDROOT
BRANCH   2   3
HETATM    3  N   UNL     1     -11.264  14.354  66.780  1.00  0.00    -0.327 N  
HETATM    4  C   UNL     1     -11.387  14.435  68.135  1.00  0.00    -0.294 C  
HETATM    5  N   UNL     1     -10.389  15.246  68.620  1.00  0.00    -0.227 NA 
HETATM    6  O   UNL     1     -12.234  13.907  68.837  1.00  0.00    -0.354 OA 
HETATM    7  C   UNL     1      -9.572  15.789  67.567  1.00  0.00    -0.224 C  
HETATM    8  O   UNL     1      -9.875  15.283  65.181  1.00  0.00    -0.278 OA 
HETATM    9  C   UNL     1     -10.221  15.131  66.344  1.00  0.00    -0.281 C  
BRANCH   7  10
HETATM   10  C   UNL     1      -9.602  17.297  67.547  1.00  0.00    -0.259 A  
HETATM   11  C   UNL     1     -10.210  17.970  66.476  1.00  0.00    -0.383 A  
HETATM   12  C   UNL     1     -10.250  19.366  66.442  1.00  0.00    -0.556 A  
HETATM   13  C   UNL     1      -9.684  20.107  67.476  1.00  0.00    -0.557 A  
HETATM   14  C   UNL     1      -9.072  19.455  68.544  1.00  0.00    -0.426 A  
HETATM   15  C   UNL     1      -9.028  18.061  68.579  1.00  0.00    -0.297 A  
ENDBRANCH   7  10
ENDBRANCH   2   3
TORSDOF 2
ENDMDL
MODEL       49
REMARK 921   NORMALIZED FREE ENERGY PREDICTED BY IDOCK:   -4.63 KCAL/MOL
REMARK 922        TOTAL FREE ENERGY PREDICTED BY IDOCK:   -5.30 KCAL/MOL
REMARK 923 INTER-LIGAND FREE ENERGY PREDICTED BY IDOCK:   -5.09 KCAL/MOL
REMARK 924 INTRA-LIGAND FREE ENERGY PREDICTED BY IDOCK:   -0.21 KCAL/MOL
REMARK 927      BINDING AFFINITY PREDICTED BY RF-SCORE:    0.00 PKD
ROOT
HETATM    1  C   UNL     1      -9.479   7.567  69.216  1.00  0.00    -0.154 C  
HETATM    2  C   UNL     1      -9.352   8.952  69.833  1.00  0.00    -0.166 C  
ENDROOT
BRANCH   2   3
HETATM    3  N   UNL     1     -10.551   9.735  69.624  1.00  0.00    -0.224 N  
HETATM    4  C   UNL     1     -10.833  10.421  68.481  1.00  0.00    -0.237 C  
HETATM    5  N   UNL     1     -12.004  11.116  68.663  1.00  0.00    -0.546 NA 
HETATM    6  O   UNL     1     -10.176  10.454  67.453  1.00  0.00    -0.192 OA 
HETATM    7  C   UNL     1     -12.532  10.952  69.991  1.00  0.00    -0.263 C  
HETATM    8  O   UNL     1     -11.505   9.542  71.722  1.00  0.00    -0.384 OA 
HETATM    9  C   UNL     1     -11.496   9.991  70.585  1.00  0.00    -0.345 C  
BRANCH   7  10
HETATM   10  C   UNL     1     -12.648  12.266  70.722  1.00  0.00    -0.302 A  
HETATM   11  C   UNL     1     -13.308  12.322  71.960  1.00  0.00    -0.491 A  
HETATM   12  C   UNL     1     -13.421  13.530  72.652  1.00  0.00    -0.572 A  
HETATM   13  C   UNL     1     -12.879  14.696  72.118  1.00  0.00    -0.408 A  
HETATM   14  C   UNL     1     -12.227  14.659  70.889  1.00  0.00    -0.391 A  
HETATM   15  C   UNL     1     -12.114  13.455  70.193  1.00  0.00    -0.415 A  
ENDBRANCH   7  10
ENDBRANCH   2   3
TORSDOF 2
ENDMDL
MODEL       50
REMARK 921   NORMALIZED FREE ENERGY PREDICTED BY IDOCK:   -4.57 KCAL/MOL
REMARK 922        TOTAL FREE ENERGY PREDICTED BY IDOCK:   -5.24 KCAL/MOL
REMARK 923 INTER-LIGAND FREE ENERGY PREDICTED BY IDOCK:   -5.18 KCAL/MOL
REMARK 924 INTRA-LIGAND FREE ENERGY PREDICTED BY IDOCK:   -0.06 KCAL/MOL
REMARK 927      BINDING AFFINITY PREDICTED BY RF-SCORE:    0.00 PKD
ROOT
HETATM    1  C   UNL     1     -12.049  13.935  64.044  1.00  0.00    -0.437 C  
HETATM    2  C   UNL     1     -12.567  12.748  64.842  1.00  0.00    -0.470 C  
ENDROOT
BRANCH   2   3
HETATM    3  N   UNL     1     -11.639  12.367  65.884  1.00  0.00    -0.379 N  
HETATM    4  C   UNL     1     -10.718  11.370  65.769  1.00  0.00    -0.251 C  
HETATM    5  N   UNL     1     -10.070  11.227  66.972  1.00  0.00    -0.201 NA 
HETATM    6  O   UNL     1     -10.488  10.682  64.787  1.00  0.00    -0.325 OA 
HETATM    7  C   UNL     1     -10.587  12.119  67.976  1.00  0.00    -0.210 C  
HETATM    8  O   UNL     1     -12.376  13.757  67.580  1.00  0.00    -0.287 OA 
HETATM    9  C   UNL     1     -11.646  12.871  67.160  1.00  0.00    -0.363 C  
BRANCH   7  10
HETATM   10  C   UNL     1     -11.137  11.375  69.167  1.00  0.00    -0.317 A  
HETATM   11  C   UNL     1     -10.744  10.048  69.404  1.00  0.00    -0.258 A  
HETATM   12  C   UNL     1     -11.241   9.345  70.504  1.00  0.00    -0.329 A  
HETATM   13  C   UNL     1     -12.136   9.956  71.379  1.00  0.00    -0.501 A  
HETATM   14  C   UNL     1     -12.540  11.269  71.154  1.00  0.00    -0.501 A  
HETATM   15  C   UNL     1     -12.048  11.974  70.055  1.00  0.00    -0.355 A  
ENDBRANCH   7  10
ENDBRANCH   2   3
TORSDOF 2
ENDMDL
MODEL       51
REMARK 921   NORMALIZED FREE ENERGY PREDICTED BY IDOCK:   -4.54 KCAL/MOL
REMARK 922        TOTAL FREE ENERGY PREDICTED BY IDOCK:   -5.21 KCAL/MOL
REMARK 923 INTER-LIGAND FREE ENERGY PREDICTED BY IDOCK:   -4.91 KCAL/MOL
REMARK 924 INTRA-LIGAND FREE ENERGY PREDICTED BY IDOCK:   -0.30 KCAL/MOL
REMARK 927      BINDING AFFINITY PREDICTED BY RF-SCORE:    0.00 PKD
ROOT
HETATM    1  C   UNL     1      -7.784  10.586  65.997  1.00  0.00    -0.147 C  
HETATM    2  C   UNL     1      -8.281  11.655  66.960  1.00  0.00    -0.170 C  
ENDROOT
BRANCH   2   3
HETATM    3  N   UNL     1      -9.650  11.409  67.358  1.00  0.00    -0.173 N  
HETATM    4  C   UNL     1     -10.742  11.818  66.654  1.00  0.00    -0.263 C  
HETATM    5  N   UNL     1     -11.872  11.491  67.364  1.00  0.00    -0.620 NA 
HETATM    6  O   UNL     1     -10.759  12.395  65.579  1.00  0.00    -0.266 OA 
HETATM    7  C   UNL     1     -11.560  10.879  68.628  1.00  0.00    -0.303 C  
HETATM    8  O   UNL     1      -9.278  10.407  69.410  1.00  0.00    -0.201 OA 
HETATM    9  C   UNL     1     -10.029  10.847  68.551  1.00  0.00    -0.182 C  
BRANCH   7  10
HETATM   10  C   UNL     1     -12.104  11.670  69.792  1.00  0.00    -0.357 A  
HETATM   11  C   UNL     1     -11.987  13.069  69.801  1.00  0.00    -0.377 A  
HETATM   12  C   UNL     1     -12.488  13.817  70.868  1.00  0.00    -0.451 A  
HETATM   13  C   UNL     1     -13.111  13.180  71.939  1.00  0.00    -0.482 A  
HETATM   14  C   UNL     1     -13.229  11.793  71.948  1.00  0.00    -0.468 A  
HETATM   15  C   UNL     1     -12.728  11.042  70.884  1.00  0.00    -0.452 A  
ENDBRANCH   7  10
ENDBRANCH   2   3
TORSDOF 2
ENDMDL
MODEL       52
REMARK 921   NORMALIZED FREE ENERGY PREDICTED BY IDOCK:   -4.53 KCAL/MOL
REMARK 922        TOTAL FREE ENERGY PREDICTED BY IDOCK:   -5.20 KCAL/MOL
REMARK 923 INTER-LIGAND FREE ENERGY PREDICTED BY IDOCK:   -4.88 KCAL/MOL
REMARK 924 INTRA-LIGAND FREE ENERGY PREDICTED BY IDOCK:   -0.32 KCAL/MOL
REMARK 927      BINDING AFFINITY PREDICTED BY RF-SCORE:    0.00 PKD
ROOT
HETATM    1  C   UNL     1      -7.832   6.241  71.803  1.00  0.00    -0.101 C  
HETATM    2  C   UNL     1      -9.006   5.444  72.352  1.00  0.00    -0.135 C  
ENDROOT
BRANCH   2   3
HETATM    3  N   UNL     1     -10.269   5.990  71.904  1.00  0.00    -0.196 N  
HETATM    4  C   UNL     1     -10.824   5.745  70.684  1.00  0.00    -0.267 C  
HETATM    5  N   UNL     1     -11.973   6.489  70.565  1.00  0.00    -0.349 NA 
HETATM    6  O   UNL     1     -10.396   5.011  69.808  1.00  0.00    -0.277 OA 
HETATM    7  C   UNL     1     -12.204   7.318  71.718  1.00  0.00    -0.334 C  
HETATM    8  O   UNL     1     -10.755   7.359  73.703  1.00  0.00    -0.371 OA 
HETATM    9  C   UNL     1     -11.009   6.918  72.591  1.00  0.00    -0.268 C  
BRANCH   7  10
HETATM   10  C   UNL     1     -12.249   8.783  71.363  1.00  0.00    -0.359 A  
HETATM   11  C   UNL     1     -11.403   9.286  70.362  1.00  0.00    -0.283 A  
HETATM   12  C   UNL     1     -11.432  10.639  70.019  1.00  0.00    -0.404 A  
HETATM   13  C   UNL     1     -12.305  11.508  70.670  1.00  0.00    -0.457 A  
HETATM   14  C   UNL     1     -13.147  11.026  71.670  1.00  0.00    -0.543 A  
HETATM   15  C   UNL     1     -13.117   9.675  72.017  1.00  0.00    -0.537 A  
ENDBRANCH   7  10
ENDBRANCH   2   3
TORSDOF 2
ENDMDL
MODEL       53
REMARK 921   NORMALIZED FREE ENERGY PREDICTED BY IDOCK:   -4.52 KCAL/MOL
REMARK 922        TOTAL FREE ENERGY PREDICTED BY IDOCK:   -5.18 KCAL/MOL
REMARK 923 INTER-LIGAND FREE ENERGY PREDICTED BY IDOCK:   -4.87 KCAL/MOL
REMARK 924 INTRA-LIGAND FREE ENERGY PREDICTED BY IDOCK:   -0.32 KCAL/MOL
REMARK 927      BINDING AFFINITY PREDICTED BY RF-SCORE:    0.00 PKD
ROOT
HETATM    1  C   UNL     1     -11.673  12.275  69.496  1.00  0.00    -0.398 C  
HETATM    2  C   UNL     1     -11.542  11.993  68.007  1.00  0.00    -0.342 C  
ENDROOT
BRANCH   2   3
HETATM    3  N   UNL     1     -10.769  13.020  67.342  1.00  0.00    -0.243 N  
HETATM    4  C   UNL     1      -9.410  13.115  67.393  1.00  0.00    -0.213 C  
HETATM    5  N   UNL     1      -9.023  14.251  66.724  1.00  0.00    -0.248 NA 
HETATM    6  O   UNL     1      -8.633  12.353  67.943  1.00  0.00    -0.153 OA 
HETATM    7  C   UNL     1     -10.148  15.001  66.232  1.00  0.00    -0.282 C  
HETATM    8  O   UNL     1     -12.492  14.308  66.493  1.00  0.00    -0.428 OA 
HETATM    9  C   UNL     1     -11.302  14.097  66.682  1.00  0.00    -0.344 C  
BRANCH   7  10
HETATM   10  C   UNL     1     -10.195  16.396  66.805  1.00  0.00    -0.285 A  
HETATM   11  C   UNL     1     -10.403  17.494  65.956  1.00  0.00    -0.309 A  
HETATM   12  C   UNL     1     -10.452  18.791  66.470  1.00  0.00    -0.484 A  
HETATM   13  C   UNL     1     -10.293  19.010  67.836  1.00  0.00    -0.485 A  
HETATM   14  C   UNL     1     -10.080  17.931  68.691  1.00  0.00    -0.394 A  
HETATM   15  C   UNL     1     -10.028  16.634  68.181  1.00  0.00    -0.259 A  
ENDBRANCH   7  10
ENDBRANCH   2   3
TORSDOF 2
ENDMDL
MODEL       54
REMARK 921   NORMALIZED FREE ENERGY PREDICTED BY IDOCK:   -4.47 KCAL/MOL
REMARK 922        TOTAL FREE ENERGY PREDICTED BY IDOCK:   -5.13 KCAL/MOL
REMARK 923 INTER-LIGAND FREE ENERGY PREDICTED BY IDOCK:   -4.82 KCAL/MOL
REMARK 924 INTRA-LIGAND FREE ENERGY PREDICTED BY IDOCK:   -0.31 KCAL/MOL
REMARK 927      BINDING AFFINITY PREDICTED BY RF-SCORE:    0.00 PKD
ROOT
HETATM    1  C   UNL     1     -10.128  12.851  67.838  1.00  0.00    -0.232 C  
HETATM    2  C   UNL     1     -11.375  13.591  67.377  1.00  0.00    -0.311 C  
ENDROOT
BRANCH   2   3
HETATM    3  N   UNL     1     -11.038  14.846  66.740  1.00  0.00    -0.331 N  
HETATM    4  C   UNL     1     -10.650  14.969  65.440  1.00  0.00    -0.380 C  
HETATM    5  N   UNL     1     -10.328  16.283  65.200  1.00  0.00    -0.603 NA 
HETATM    6  O   UNL     1     -10.570  14.086  64.602  1.00  0.00    -0.419 OA 
HETATM    7  C   UNL     1     -10.447  17.096  66.381  1.00  0.00    -0.255 C  
HETATM    8  O   UNL     1     -11.201  16.257  68.566  1.00  0.00    -0.350 OA 
HETATM    9  C   UNL     1     -10.944  16.051  67.387  1.00  0.00    -0.237 C  
BRANCH   7  10
HETATM   10  C   UNL     1      -9.138  17.745  66.758  1.00  0.00    -0.273 A  
HETATM   11  C   UNL     1      -7.928  17.166  66.346  1.00  0.00    -0.346 A  
HETATM   12  C   UNL     1      -6.707  17.755  66.683  1.00  0.00    -0.240 A  
HETATM   13  C   UNL     1      -6.679  18.926  67.436  1.00  0.00    -0.205 A  
HETATM   14  C   UNL     1      -7.871  19.509  67.858  1.00  0.00    -0.330 A  
HETATM   15  C   UNL     1      -9.092  18.922  67.524  1.00  0.00    -0.307 A  
ENDBRANCH   7  10
ENDBRANCH   2   3
TORSDOF 2
ENDMDL
MODEL       55
REMARK 921   NORMALIZED FREE ENERGY PREDICTED BY IDOCK:   -4.46 KCAL/MOL
REMARK 922        TOTAL FREE ENERGY PREDICTED BY IDOCK:   -5.12 KCAL/MOL
REMARK 923 INTER-LIGAND FREE ENERGY PREDICTED BY IDOCK:   -4.82 KCAL/MOL
REMARK 924 INTRA-LIGAND FREE ENERGY PREDICTED BY IDOCK:   -0.30 KCAL/MOL
REMARK 927      BINDING AFFINITY PREDICTED BY RF-SCORE:    0.00 PKD
ROOT
HETATM    1  C   UNL     1      -9.709   9.218  70.647  1.00  0.00    -0.334 C  
HETATM    2  C   UNL     1     -10.432   9.436  69.326  1.00  0.00    -0.218 C  
ENDROOT
BRANCH   2   3
HETATM    3  N   UNL     1     -10.709  10.839  69.102  1.00  0.00    -0.213 N  
HETATM    4  C   UNL     1     -11.783  11.502  69.613  1.00  0.00    -0.351 C  
HETATM    5  N   UNL     1     -11.777  12.788  69.130  1.00  0.00    -0.309 NA 
HETATM    6  O   UNL     1     -12.640  11.062  70.362  1.00  0.00    -0.304 OA 
HETATM    7  C   UNL     1     -10.693  13.018  68.213  1.00  0.00    -0.245 C  
HETATM    8  O   UNL     1      -9.002  11.334  67.621  1.00  0.00    -0.138 OA 
HETATM    9  C   UNL     1     -10.003  11.650  68.250  1.00  0.00    -0.201 C  
BRANCH   7  10
HETATM   10  C   UNL     1     -11.183  13.426  66.845  1.00  0.00    -0.330 A  
HETATM   11  C   UNL     1     -12.023  12.568  66.119  1.00  0.00    -0.432 A  
HETATM   12  C   UNL     1     -12.489  12.931  64.854  1.00  0.00    -0.540 A  
HETATM   13  C   UNL     1     -12.121  14.153  64.296  1.00  0.00    -0.471 A  
HETATM   14  C   UNL     1     -11.282  15.013  65.001  1.00  0.00    -0.413 A  
HETATM   15  C   UNL     1     -10.814  14.652  66.265  1.00  0.00    -0.321 A  
ENDBRANCH   7  10
ENDBRANCH   2   3
TORSDOF 2
ENDMDL
MODEL       56
REMARK 921   NORMALIZED FREE ENERGY PREDICTED BY IDOCK:   -4.46 KCAL/MOL
REMARK 922        TOTAL FREE ENERGY PREDICTED BY IDOCK:   -5.12 KCAL/MOL
REMARK 923 INTER-LIGAND FREE ENERGY PREDICTED BY IDOCK:   -5.20 KCAL/MOL
REMARK 924 INTRA-LIGAND FREE ENERGY PREDICTED BY IDOCK:    0.09 KCAL/MOL
REMARK 927      BINDING AFFINITY PREDICTED BY RF-SCORE:    0.00 PKD
ROOT
HETATM    1  C   UNL     1      -9.545  15.642  69.511  1.00  0.00    -0.279 C  
HETATM    2  C   UNL     1     -10.896  16.251  69.857  1.00  0.00    -0.352 C  
ENDROOT
BRANCH   2   3
HETATM    3  N   UNL     1     -11.784  15.268  70.438  1.00  0.00    -0.283 N  
HETATM    4  C   UNL     1     -12.090  15.196  71.764  1.00  0.00    -0.370 C  
HETATM    5  N   UNL     1     -12.888  14.097  71.972  1.00  0.00    -0.339 NA 
HETATM    6  O   UNL     1     -11.724  15.949  72.652  1.00  0.00    -0.445 OA 
HETATM    7  C   UNL     1     -13.108  13.349  70.764  1.00  0.00     0.036 C  
HETATM    8  O   UNL     1     -12.218  13.986  68.562  1.00  0.00    -0.333 OA 
HETATM    9  C   UNL     1     -12.334  14.211  69.759  1.00  0.00    -0.299 C  
BRANCH   7  10
HETATM   10  C   UNL     1     -12.607  11.930  70.876  1.00  0.00    -0.361 A  
HETATM   11  C   UNL     1     -11.572  11.486  70.038  1.00  0.00    -0.364 A  
HETATM   12  C   UNL     1     -11.094  10.177  70.130  1.00  0.00    -0.378 A  
HETATM   13  C   UNL     1     -11.643   9.295  71.058  1.00  0.00    -0.380 A  
HETATM   14  C   UNL     1     -12.674   9.719  71.893  1.00  0.00    -0.501 A  
HETATM   15  C   UNL     1     -13.155  11.025  71.802  1.00  0.00    -0.554 A  
ENDBRANCH   7  10
ENDBRANCH   2   3
TORSDOF 2
ENDMDL
MODEL       57
REMARK 921   NORMALIZED FREE ENERGY PREDICTED BY IDOCK:   -4.45 KCAL/MOL
REMARK 922        TOTAL FREE ENERGY PREDICTED BY IDOCK:   -5.11 KCAL/MOL
REMARK 923 INTER-LIGAND FREE ENERGY PREDICTED BY IDOCK:   -4.88 KCAL/MOL
REMARK 924 INTRA-LIGAND FREE ENERGY PREDICTED BY IDOCK:   -0.22 KCAL/MOL
REMARK 927      BINDING AFFINITY PREDICTED BY RF-SCORE:    0.00 PKD
ROOT
HETATM    1  C   UNL     1     -10.681   9.973  66.986  1.00  0.00    -0.248 C  
HETATM    2  C   UNL     1     -10.402  11.188  66.114  1.00  0.00    -0.250 C  
ENDROOT
BRANCH   2   3
HETATM    3  N   UNL     1     -11.140  12.346  66.570  1.00  0.00    -0.286 N  
HETATM    4  C   UNL     1     -12.176  12.914  65.891  1.00  0.00    -0.407 C  
HETATM    5  N   UNL     1     -12.582  14.038  66.568  1.00  0.00    -0.311 NA 
HETATM    6  O   UNL     1     -12.678  12.532  64.846  1.00  0.00    -0.657 OA 
HETATM    7  C   UNL     1     -11.773  14.293  67.731  1.00  0.00    -0.374 C  
HETATM    8  O   UNL     1      -9.920  12.856  68.467  1.00  0.00    -0.223 OA 
HETATM    9  C   UNL     1     -10.819  13.095  67.673  1.00  0.00    -0.254 C  
BRANCH   7  10
HETATM   10  C   UNL     1     -11.087  15.635  67.661  1.00  0.00    -0.305 A  
HETATM   11  C   UNL     1     -10.709  16.163  66.417  1.00  0.00    -0.211 A  
HETATM   12  C   UNL     1     -10.076  17.405  66.334  1.00  0.00    -0.330 A  
HETATM   13  C   UNL     1      -9.810  18.134  67.490  1.00  0.00    -0.317 A  
HETATM   14  C   UNL     1     -10.172  17.621  68.733  1.00  0.00    -0.373 A  
HETATM   15  C   UNL     1     -10.804  16.379  68.820  1.00  0.00    -0.338 A  
ENDBRANCH   7  10
ENDBRANCH   2   3
TORSDOF 2
ENDMDL
MODEL       58
REMARK 921   NORMALIZED FREE ENERGY PREDICTED BY IDOCK:   -4.43 KCAL/MOL
REMARK 922        TOTAL FREE ENERGY PREDICTED BY IDOCK:   -5.08 KCAL/MOL
REMARK 923 INTER-LIGAND FREE ENERGY PREDICTED BY IDOCK:   -4.79 KCAL/MOL
REMARK 924 INTRA-LIGAND FREE ENERGY PREDICTED BY IDOCK:   -0.29 KCAL/MOL
REMARK 927      BINDING AFFINITY PREDICTED BY RF-SCORE:    0.00 PKD
ROOT
HETATM    1  C   UNL     1     -11.483  15.451  64.789  1.00  0.00    -0.337 C  
HETATM    2  C   UNL     1     -11.994  14.164  65.420  1.00  0.00    -0.381 C  
ENDROOT
BRANCH   2   3
HETATM    3  N   UNL     1     -11.296  13.008  64.901  1.00  0.00    -0.295 N  
HETATM    4  C   UNL     1     -11.779  12.192  63.923  1.00  0.00    -0.458 C  
HETATM    5  N   UNL     1     -10.898  11.154  63.741  1.00  0.00    -0.345 NA 
HETATM    6  O   UNL     1     -12.821  12.315  63.300  1.00  0.00    -0.719 OA 
HETATM    7  C   UNL     1      -9.788  11.217  64.654  1.00  0.00    -0.268 C  
HETATM    8  O   UNL     1      -9.460  13.006  66.308  1.00  0.00    -0.253 OA 
HETATM    9  C   UNL     1     -10.121  12.511  65.406  1.00  0.00    -0.267 C  
BRANCH   7  10
HETATM   10  C   UNL     1      -9.705   9.994  65.533  1.00  0.00    -0.355 A  
HETATM   11  C   UNL     1      -8.721   9.023  65.290  1.00  0.00    -0.226 A  
HETATM   12  C   UNL     1      -8.628   7.887  66.096  1.00  0.00    -0.164 A  
HETATM   13  C   UNL     1      -9.517   7.703  67.153  1.00  0.00    -0.196 A  
HETATM   14  C   UNL     1     -10.503   8.654  67.404  1.00  0.00    -0.351 A  
HETATM   15  C   UNL     1     -10.600   9.790  66.599  1.00  0.00    -0.178 A  
ENDBRANCH   7  10
ENDBRANCH   2   3
TORSDOF 2
ENDMDL
MODEL       59
REMARK 921   NORMALIZED FREE ENERGY PREDICTED BY IDOCK:   -4.43 KCAL/MOL
REMARK 922        TOTAL FREE ENERGY PREDICTED BY IDOCK:   -5.08 KCAL/MOL
REMARK 923 INTER-LIGAND FREE ENERGY PREDICTED BY IDOCK:   -4.79 KCAL/MOL
REMARK 924 INTRA-LIGAND FREE ENERGY PREDICTED BY IDOCK:   -0.29 KCAL/MOL
REMARK 927      BINDING AFFINITY PREDICTED BY RF-SCORE:    0.00 PKD
ROOT
HETATM    1  C   UNL     1     -12.140  14.186  64.152  1.00  0.00    -0.437 C  
HETATM    2  C   UNL     1     -12.274  12.672  64.239  1.00  0.00    -0.445 C  
ENDROOT
BRANCH   2   3
HETATM    3  N   UNL     1     -11.182  12.088  64.987  1.00  0.00    -0.322 N  
HETATM    4  C   UNL     1     -10.053  11.571  64.425  1.00  0.00    -0.282 C  
HETATM    5  N   UNL     1      -9.276  11.028  65.418  1.00  0.00    -0.207 NA 
HETATM    6  O   UNL     1      -9.753  11.556  63.242  1.00  0.00    -0.344 OA 
HETATM    7  C   UNL     1      -9.901  11.123  66.711  1.00  0.00    -0.200 C  
HETATM    8  O   UNL     1     -12.078  12.190  67.117  1.00  0.00    -0.575 OA 
HETATM    9  C   UNL     1     -11.191  11.865  66.340  1.00  0.00    -0.331 C  
BRANCH   7  10
HETATM   10  C   UNL     1     -10.124   9.768  67.334  1.00  0.00    -0.259 A  
HETATM   11  C   UNL     1     -10.138   8.620  66.526  1.00  0.00    -0.339 A  
HETATM   12  C   UNL     1     -10.340   7.357  67.087  1.00  0.00    -0.377 A  
HETATM   13  C   UNL     1     -10.532   7.224  68.460  1.00  0.00    -0.215 A  
HETATM   14  C   UNL     1     -10.527   8.353  69.275  1.00  0.00    -0.223 A  
HETATM   15  C   UNL     1     -10.328   9.617  68.717  1.00  0.00    -0.233 A  
ENDBRANCH   7  10
ENDBRANCH   2   3
TORSDOF 2
ENDMDL
MODEL       60
REMARK 921   NORMALIZED FREE ENERGY PREDICTED BY IDOCK:   -4.41 KCAL/MOL
REMARK 922        TOTAL FREE ENERGY PREDICTED BY IDOCK:   -5.07 KCAL/MOL
REMARK 923 INTER-LIGAND FREE ENERGY PREDICTED BY IDOCK:   -5.10 KCAL/MOL
REMARK 924 INTRA-LIGAND FREE ENERGY PREDICTED BY IDOCK:    0.03 KCAL/MOL
REMARK 927      BINDING AFFINITY PREDICTED BY RF-SCORE:    0.00 PKD
ROOT
HETATM    1  C   UNL     1     -10.624  18.164  65.867  1.00  0.00    -0.247 C  
HETATM    2  C   UNL     1      -9.874  16.869  66.145  1.00  0.00    -0.297 C  
ENDROOT
BRANCH   2   3
HETATM    3  N   UNL     1     -10.772  15.821  66.578  1.00  0.00    -0.308 N  
HETATM    4  C   UNL     1     -11.246  15.690  67.849  1.00  0.00    -0.328 C  
HETATM    5  N   UNL     1     -11.999  14.543  67.921  1.00  0.00    -0.325 NA 
HETATM    6  O   UNL     1     -11.046  16.432  68.796  1.00  0.00    -0.328 OA 
HETATM    7  C   UNL     1     -12.013  13.823  66.676  1.00  0.00    -0.431 C  
HETATM    8  O   UNL     1     -10.879  14.579  64.630  1.00  0.00    -0.391 OA 
HETATM    9  C   UNL     1     -11.164  14.758  65.806  1.00  0.00    -0.337 C  
BRANCH   7  10
HETATM   10  C   UNL     1     -11.449  12.431  66.819  1.00  0.00    -0.423 A  
HETATM   11  C   UNL     1     -11.584  11.744  68.036  1.00  0.00    -0.386 A  
HETATM   12  C   UNL     1     -11.071  10.453  68.185  1.00  0.00    -0.344 A  
HETATM   13  C   UNL     1     -10.416   9.833  67.124  1.00  0.00    -0.316 A  
HETATM   14  C   UNL     1     -10.269  10.503  65.912  1.00  0.00    -0.311 A  
HETATM   15  C   UNL     1     -10.778  11.794  65.760  1.00  0.00    -0.328 A  
ENDBRANCH   7  10
ENDBRANCH   2   3
TORSDOF 2
ENDMDL
MODEL       61
REMARK 921   NORMALIZED FREE ENERGY PREDICTED BY IDOCK:   -4.40 KCAL/MOL
REMARK 922        TOTAL FREE ENERGY PREDICTED BY IDOCK:   -5.05 KCAL/MOL
REMARK 923 INTER-LIGAND FREE ENERGY PREDICTED BY IDOCK:   -4.83 KCAL/MOL
REMARK 924 INTRA-LIGAND FREE ENERGY PREDICTED BY IDOCK:   -0.22 KCAL/MOL
REMARK 927      BINDING AFFINITY PREDICTED BY RF-SCORE:    0.00 PKD
ROOT
HETATM    1  C   UNL     1     -10.539  13.307  64.130  1.00  0.00    -0.331 C  
HETATM    2  C   UNL     1     -10.171  12.794  65.515  1.00  0.00    -0.279 C  
ENDROOT
BRANCH   2   3
HETATM    3  N   UNL     1     -10.596  13.713  66.548  1.00  0.00    -0.280 N  
HETATM    4  C   UNL     1     -11.896  13.992  66.844  1.00  0.00    -0.430 C  
HETATM    5  N   UNL     1     -11.928  14.966  67.813  1.00  0.00    -0.258 NA 
HETATM    6  O   UNL     1     -12.894  13.497  66.345  1.00  0.00    -0.151 OA 
HETATM    7  C   UNL     1     -10.611  15.419  68.171  1.00  0.00    -0.263 C  
HETATM    8  O   UNL     1      -8.532  14.517  67.217  1.00  0.00    -0.191 OA 
HETATM    9  C   UNL     1      -9.754  14.515  67.277  1.00  0.00    -0.232 C  
BRANCH   7  10
HETATM   10  C   UNL     1     -10.428  16.894  67.915  1.00  0.00    -0.344 A  
HETATM   11  C   UNL     1     -10.153  17.760  68.984  1.00  0.00    -0.294 A  
HETATM   12  C   UNL     1      -9.978  19.128  68.765  1.00  0.00    -0.493 A  
HETATM   13  C   UNL     1     -10.077  19.649  67.477  1.00  0.00    -0.538 A  
HETATM   14  C   UNL     1     -10.355  18.804  66.405  1.00  0.00    -0.489 A  
HETATM   15  C   UNL     1     -10.533  17.437  66.622  1.00  0.00    -0.253 A  
ENDBRANCH   7  10
ENDBRANCH   2   3
TORSDOF 2
ENDMDL
MODEL       62
REMARK 921   NORMALIZED FREE ENERGY PREDICTED BY IDOCK:   -4.37 KCAL/MOL
REMARK 922        TOTAL FREE ENERGY PREDICTED BY IDOCK:   -5.02 KCAL/MOL
REMARK 923 INTER-LIGAND FREE ENERGY PREDICTED BY IDOCK:   -4.72 KCAL/MOL
REMARK 924 INTRA-LIGAND FREE ENERGY PREDICTED BY IDOCK:   -0.30 KCAL/MOL
REMARK 927      BINDING AFFINITY PREDICTED BY RF-SCORE:    0.00 PKD
ROOT
HETATM    1  C   UNL     1      -6.608  19.624  67.265  1.00  0.00    -0.216 C  
HETATM    2  C   UNL     1      -7.452  19.265  68.479  1.00  0.00    -0.325 C  
ENDROOT
BRANCH   2   3
HETATM    3  N   UNL     1      -8.683  18.611  68.091  1.00  0.00    -0.302 N  
HETATM    4  C   UNL     1      -9.902  19.219  68.062  1.00  0.00    -0.365 C  
HETATM    5  N   UNL     1     -10.853  18.284  67.732  1.00  0.00    -0.327 NA 
HETATM    6  O   UNL     1     -10.154  20.389  68.299  1.00  0.00    -0.326 OA 
HETATM    7  C   UNL     1     -10.289  16.970  67.573  1.00  0.00    -0.329 C  
HETATM    8  O   UNL     1      -7.896  16.455  67.799  1.00  0.00    -0.147 OA 
HETATM    9  C   UNL     1      -8.807  17.271  67.824  1.00  0.00    -0.234 C  
BRANCH   7  10
HETATM   10  C   UNL     1     -10.889  15.975  68.536  1.00  0.00    -0.304 A  
HETATM   11  C   UNL     1     -11.537  14.831  68.046  1.00  0.00    -0.367 A  
HETATM   12  C   UNL     1     -12.095  13.898  68.923  1.00  0.00    -0.355 A  
HETATM   13  C   UNL     1     -12.015  14.096  70.299  1.00  0.00    -0.404 A  
HETATM   14  C   UNL     1     -11.381  15.229  70.802  1.00  0.00    -0.365 A  
HETATM   15  C   UNL     1     -10.824  16.164  69.928  1.00  0.00    -0.355 A  
ENDBRANCH   7  10
ENDBRANCH   2   3
TORSDOF 2
ENDMDL
MODEL       63
REMARK 921   NORMALIZED FREE ENERGY PREDICTED BY IDOCK:   -4.32 KCAL/MOL
REMARK 922        TOTAL FREE ENERGY PREDICTED BY IDOCK:   -4.97 KCAL/MOL
REMARK 923 INTER-LIGAND FREE ENERGY PREDICTED BY IDOCK:   -4.63 KCAL/MOL
REMARK 924 INTRA-LIGAND FREE ENERGY PREDICTED BY IDOCK:   -0.34 KCAL/MOL
REMARK 927      BINDING AFFINITY PREDICTED BY RF-SCORE:    0.00 PKD
ROOT
HETATM    1  C   UNL     1     -11.341   4.704  73.225  1.00  0.00    -0.393 C  
HETATM    2  C   UNL     1     -10.268   4.712  72.147  1.00  0.00    -0.193 C  
ENDROOT
BRANCH   2   3
HETATM    3  N   UNL     1      -9.967   6.059  71.712  1.00  0.00    -0.169 N  
HETATM    4  C   UNL     1      -9.057   6.876  72.313  1.00  0.00    -0.134 C  
HETATM    5  N   UNL     1      -9.092   8.103  71.695  1.00  0.00    -0.149 NA 
HETATM    6  O   UNL     1      -8.327   6.610  73.254  1.00  0.00    -0.118 OA 
HETATM    7  C   UNL     1     -10.092   8.162  70.662  1.00  0.00    -0.194 C  
HETATM    8  O   UNL     1     -11.532   6.275  70.022  1.00  0.00    -0.412 OA 
HETATM    9  C   UNL     1     -10.640   6.732  70.725  1.00  0.00    -0.222 C  
BRANCH   7  10
HETATM   10  C   UNL     1     -11.121   9.232  70.929  1.00  0.00    -0.374 A  
HETATM   11  C   UNL     1     -11.094  10.427  70.194  1.00  0.00    -0.383 A  
HETATM   12  C   UNL     1     -12.042  11.426  70.426  1.00  0.00    -0.473 A  
HETATM   13  C   UNL     1     -13.026  11.247  71.395  1.00  0.00    -0.482 A  
HETATM   14  C   UNL     1     -13.063  10.069  72.137  1.00  0.00    -0.482 A  
HETATM   15  C   UNL     1     -12.116   9.069  71.909  1.00  0.00    -0.448 A  
ENDBRANCH   7  10
ENDBRANCH   2   3
TORSDOF 2
ENDMDL
MODEL       64
REMARK 921   NORMALIZED FREE ENERGY PREDICTED BY IDOCK:   -4.28 KCAL/MOL
REMARK 922        TOTAL FREE ENERGY PREDICTED BY IDOCK:   -4.91 KCAL/MOL
REMARK 923 INTER-LIGAND FREE ENERGY PREDICTED BY IDOCK:   -4.63 KCAL/MOL
REMARK 924 INTRA-LIGAND FREE ENERGY PREDICTED BY IDOCK:   -0.29 KCAL/MOL
REMARK 927      BINDING AFFINITY PREDICTED BY RF-SCORE:    0.00 PKD
ROOT
HETATM    1  C   UNL     1     -10.554  16.768  69.011  1.00  0.00    -0.343 C  
HETATM    2  C   UNL     1      -9.830  15.591  69.650  1.00  0.00    -0.278 C  
ENDROOT
BRANCH   2   3
HETATM    3  N   UNL     1      -9.589  14.536  68.689  1.00  0.00    -0.218 N  
HETATM    4  C   UNL     1      -8.449  14.412  67.953  1.00  0.00    -0.165 C  
HETATM    5  N   UNL     1      -8.597  13.355  67.088  1.00  0.00    -0.208 NA 
HETATM    6  O   UNL     1      -7.449  15.109  68.009  1.00  0.00    -0.105 OA 
HETATM    7  C   UNL     1      -9.899  12.751  67.186  1.00  0.00    -0.216 C  
HETATM    8  O   UNL     1     -11.643  13.475  68.760  1.00  0.00    -0.277 OA 
HETATM    9  C   UNL     1     -10.516  13.602  68.303  1.00  0.00    -0.249 C  
BRANCH   7  10
HETATM   10  C   UNL     1     -10.651  12.808  65.879  1.00  0.00    -0.295 A  
HETATM   11  C   UNL     1     -10.661  11.690  65.031  1.00  0.00    -0.351 A  
HETATM   12  C   UNL     1     -11.354  11.723  63.819  1.00  0.00    -0.524 A  
HETATM   13  C   UNL     1     -12.044  12.872  63.438  1.00  0.00    -0.610 A  
HETATM   14  C   UNL     1     -12.038  13.991  64.266  1.00  0.00    -0.476 A  
HETATM   15  C   UNL     1     -11.345  13.962  65.476  1.00  0.00    -0.310 A  
ENDBRANCH   7  10
ENDBRANCH   2   3
TORSDOF 2
ENDMDL
MODEL       65
REMARK 921   NORMALIZED FREE ENERGY PREDICTED BY IDOCK:   -4.28 KCAL/MOL
REMARK 922        TOTAL FREE ENERGY PREDICTED BY IDOCK:   -4.91 KCAL/MOL
REMARK 923 INTER-LIGAND FREE ENERGY PREDICTED BY IDOCK:   -4.60 KCAL/MOL
REMARK 924 INTRA-LIGAND FREE ENERGY PREDICTED BY IDOCK:   -0.31 KCAL/MOL
REMARK 927      BINDING AFFINITY PREDICTED BY RF-SCORE:    0.00 PKD
ROOT
HETATM    1  C   UNL     1     -11.418  11.078  68.108  1.00  0.00    -0.374 C  
HETATM    2  C   UNL     1     -10.767  10.899  69.472  1.00  0.00    -0.206 C  
ENDROOT
BRANCH   2   3
HETATM    3  N   UNL     1     -11.444   9.885  70.251  1.00  0.00    -0.273 N  
HETATM    4  C   UNL     1     -12.388  10.146  71.199  1.00  0.00    -0.385 C  
HETATM    5  N   UNL     1     -12.752   8.962  71.794  1.00  0.00    -0.342 NA 
HETATM    6  O   UNL     1     -12.848  11.232  71.509  1.00  0.00    -0.416 OA 
HETATM    7  C   UNL     1     -12.004   7.845  71.283  1.00  0.00    -0.298 C  
HETATM    8  O   UNL     1     -10.316   8.010  69.504  1.00  0.00    -0.212 OA 
HETATM    9  C   UNL     1     -11.140   8.548  70.229  1.00  0.00    -0.214 C  
BRANCH   7  10
HETATM   10  C   UNL     1     -11.216   7.147  72.363  1.00  0.00    -0.309 A  
HETATM   11  C   UNL     1     -10.204   7.839  73.048  1.00  0.00    -0.393 A  
HETATM   12  C   UNL     1      -9.467   7.210  74.053  1.00  0.00    -0.303 A  
HETATM   13  C   UNL     1      -9.728   5.884  74.387  1.00  0.00    -0.220 A  
HETATM   14  C   UNL     1     -10.724   5.181  73.714  1.00  0.00    -0.352 A  
HETATM   15  C   UNL     1     -11.461   5.806  72.707  1.00  0.00    -0.304 A  
ENDBRANCH   7  10
ENDBRANCH   2   3
TORSDOF 2
ENDMDL
MODEL       66
REMARK 921   NORMALIZED FREE ENERGY PREDICTED BY IDOCK:   -4.24 KCAL/MOL
REMARK 922        TOTAL FREE ENERGY PREDICTED BY IDOCK:   -4.87 KCAL/MOL
REMARK 923 INTER-LIGAND FREE ENERGY PREDICTED BY IDOCK:   -4.64 KCAL/MOL
REMARK 924 INTRA-LIGAND FREE ENERGY PREDICTED BY IDOCK:   -0.23 KCAL/MOL
REMARK 927      BINDING AFFINITY PREDICTED BY RF-SCORE:    0.00 PKD
ROOT
HETATM    1  C   UNL     1     -11.363  13.991  68.265  1.00  0.00    -0.317 C  
HETATM    2  C   UNL     1     -11.339  14.408  66.802  1.00  0.00    -0.352 C  
ENDROOT
BRANCH   2   3
HETATM    3  N   UNL     1     -11.054  13.283  65.937  1.00  0.00    -0.284 N  
HETATM    4  C   UNL     1     -11.975  12.675  65.137  1.00  0.00    -0.428 C  
HETATM    5  N   UNL     1     -11.382  11.597  64.525  1.00  0.00    -0.280 NA 
HETATM    6  O   UNL     1     -13.142  12.991  64.976  1.00  0.00    -0.761 OA 
HETATM    7  C   UNL     1     -10.018  11.416  64.947  1.00  0.00    -0.265 C  
HETATM    8  O   UNL     1      -8.852  12.893  66.528  1.00  0.00    -0.145 OA 
HETATM    9  C   UNL     1      -9.862  12.606  65.901  1.00  0.00    -0.244 C  
BRANCH   7  10
HETATM   10  C   UNL     1      -9.799  10.071  65.594  1.00  0.00    -0.363 A  
HETATM   11  C   UNL     1     -10.553   9.707  66.721  1.00  0.00    -0.209 A  
HETATM   12  C   UNL     1     -10.366   8.465  67.331  1.00  0.00    -0.355 A  
HETATM   13  C   UNL     1      -9.424   7.571  66.827  1.00  0.00    -0.230 A  
HETATM   14  C   UNL     1      -8.664   7.920  65.713  1.00  0.00    -0.163 A  
HETATM   15  C   UNL     1      -8.847   9.161  65.102  1.00  0.00    -0.241 A  
ENDBRANCH   7  10
ENDBRANCH   2   3
TORSDOF 2
ENDMDL
MODEL       67
REMARK 921   NORMALIZED FREE ENERGY PREDICTED BY IDOCK:   -4.23 KCAL/MOL
REMARK 922        TOTAL FREE ENERGY PREDICTED BY IDOCK:   -4.86 KCAL/MOL
REMARK 923 INTER-LIGAND FREE ENERGY PREDICTED BY IDOCK:   -4.66 KCAL/MOL
REMARK 924 INTRA-LIGAND FREE ENERGY PREDICTED BY IDOCK:   -0.20 KCAL/MOL
REMARK 927      BINDING AFFINITY PREDICTED BY RF-SCORE:    0.00 PKD
ROOT
HETATM    1  C   UNL     1      -9.514   5.535  66.482  1.00  0.00    -0.161 C  
HETATM    2  C   UNL     1     -10.756   6.188  67.073  1.00  0.00    -0.350 C  
ENDROOT
BRANCH   2   3
HETATM    3  N   UNL     1     -10.458   6.852  68.323  1.00  0.00    -0.193 N  
HETATM    4  C   UNL     1     -10.351   6.219  69.525  1.00  0.00    -0.212 C  
HETATM    5  N   UNL     1     -10.149   7.162  70.503  1.00  0.00    -0.194 NA 
HETATM    6  O   UNL     1     -10.433   5.021  69.742  1.00  0.00    -0.263 OA 
HETATM    7  C   UNL     1     -10.163   8.501  69.977  1.00  0.00    -0.198 C  
HETATM    8  O   UNL     1     -10.452   9.049  67.598  1.00  0.00    -0.245 OA 
HETATM    9  C   UNL     1     -10.370   8.211  68.486  1.00  0.00    -0.198 C  
BRANCH   7  10
HETATM   10  C   UNL     1     -11.249   9.343  70.599  1.00  0.00    -0.345 A  
HETATM   11  C   UNL     1     -12.175   8.754  71.475  1.00  0.00    -0.382 A  
HETATM   12  C   UNL     1     -13.185   9.519  72.063  1.00  0.00    -0.539 A  
HETATM   13  C   UNL     1     -13.285  10.880  71.784  1.00  0.00    -0.513 A  
HETATM   14  C   UNL     1     -12.378  11.478  70.912  1.00  0.00    -0.460 A  
HETATM   15  C   UNL     1     -11.369  10.716  70.321  1.00  0.00    -0.401 A  
ENDBRANCH   7  10
ENDBRANCH   2   3
TORSDOF 2
ENDMDL
MODEL       68
REMARK 921   NORMALIZED FREE ENERGY PREDICTED BY IDOCK:   -4.20 KCAL/MOL
REMARK 922        TOTAL FREE ENERGY PREDICTED BY IDOCK:   -4.83 KCAL/MOL
REMARK 923 INTER-LIGAND FREE ENERGY PREDICTED BY IDOCK:   -4.55 KCAL/MOL
REMARK 924 INTRA-LIGAND FREE ENERGY PREDICTED BY IDOCK:   -0.27 KCAL/MOL
REMARK 927      BINDING AFFINITY PREDICTED BY RF-SCORE:    0.00 PKD
ROOT
HETATM    1  C   UNL     1     -12.156  11.168  69.743  1.00  0.00    -0.414 C  
HETATM    2  C   UNL     1     -11.574  10.449  70.952  1.00  0.00    -0.337 C  
ENDROOT
BRANCH   2   3
HETATM    3  N   UNL     1     -11.975   9.060  70.982  1.00  0.00    -0.286 N  
HETATM    4  C   UNL     1     -13.031   8.578  71.696  1.00  0.00    -0.343 C  
HETATM    5  N   UNL     1     -13.067   7.212  71.562  1.00  0.00    -0.389 NA 
HETATM    6  O   UNL     1     -13.825   9.216  72.368  1.00  0.00    -0.469 OA 
HETATM    7  C   UNL     1     -11.973   6.715  70.771  1.00  0.00    -0.353 C  
HETATM    8  O   UNL     1     -10.268   8.141  69.720  1.00  0.00    -0.194 OA 
HETATM    9  C   UNL     1     -11.277   8.031  70.403  1.00  0.00    -0.229 C  
BRANCH   7  10
HETATM   10  C   UNL     1     -11.106   5.752  71.542  1.00  0.00    -0.281 A  
HETATM   11  C   UNL     1     -11.230   5.663  72.938  1.00  0.00    -0.338 A  
HETATM   12  C   UNL     1     -10.437   4.775  73.668  1.00  0.00    -0.286 A  
HETATM   13  C   UNL     1      -9.511   3.965  73.016  1.00  0.00    -0.144 A  
HETATM   14  C   UNL     1      -9.371   4.045  71.632  1.00  0.00    -0.199 A  
HETATM   15  C   UNL     1     -10.160   4.933  70.900  1.00  0.00    -0.292 A  
ENDBRANCH   7  10
ENDBRANCH   2   3
TORSDOF 2
ENDMDL
MODEL       69
REMARK 921   NORMALIZED FREE ENERGY PREDICTED BY IDOCK:   -4.19 KCAL/MOL
REMARK 922        TOTAL FREE ENERGY PREDICTED BY IDOCK:   -4.82 KCAL/MOL
REMARK 923 INTER-LIGAND FREE ENERGY PREDICTED BY IDOCK:   -4.61 KCAL/MOL
REMARK 924 INTRA-LIGAND FREE ENERGY PREDICTED BY IDOCK:   -0.21 KCAL/MOL
REMARK 927      BINDING AFFINITY PREDICTED BY RF-SCORE:    0.00 PKD
ROOT
HETATM    1  C   UNL     1      -7.503  15.853  67.892  1.00  0.00    -0.145 C  
HETATM    2  C   UNL     1      -8.418  15.977  66.682  1.00  0.00    -0.288 C  
ENDROOT
BRANCH   2   3
HETATM    3  N   UNL     1      -9.777  15.604  67.008  1.00  0.00    -0.224 N  
HETATM    4  C   UNL     1     -10.663  16.414  67.653  1.00  0.00    -0.312 C  
HETATM    5  N   UNL     1     -11.823  15.711  67.872  1.00  0.00    -0.100 NA 
HETATM    6  O   UNL     1     -10.491  17.568  68.010  1.00  0.00    -0.356 OA 
HETATM    7  C   UNL     1     -11.730  14.352  67.411  1.00  0.00    -0.397 C  
HETATM    8  O   UNL     1      -9.753  13.403  66.299  1.00  0.00    -0.280 OA 
HETATM    9  C   UNL     1     -10.312  14.355  66.826  1.00  0.00    -0.273 C  
BRANCH   7  10
HETATM   10  C   UNL     1     -11.936  13.358  68.527  1.00  0.00    -0.363 A  
HETATM   11  C   UNL     1     -12.102  13.812  69.845  1.00  0.00    -0.412 A  
HETATM   12  C   UNL     1     -12.297  12.907  70.890  1.00  0.00    -0.365 A  
HETATM   13  C   UNL     1     -12.328  11.538  70.634  1.00  0.00    -0.457 A  
HETATM   14  C   UNL     1     -12.159  11.071  69.333  1.00  0.00    -0.389 A  
HETATM   15  C   UNL     1     -11.961  11.973  68.287  1.00  0.00    -0.244 A  
ENDBRANCH   7  10
ENDBRANCH   2   3
TORSDOF 2
ENDMDL
MODEL       70
REMARK 921   NORMALIZED FREE ENERGY PREDICTED BY IDOCK:   -4.17 KCAL/MOL
REMARK 922        TOTAL FREE ENERGY PREDICTED BY IDOCK:   -4.80 KCAL/MOL
REMARK 923 INTER-LIGAND FREE ENERGY PREDICTED BY IDOCK:   -4.54 KCAL/MOL
REMARK 924 INTRA-LIGAND FREE ENERGY PREDICTED BY IDOCK:   -0.25 KCAL/MOL
REMARK 927      BINDING AFFINITY PREDICTED BY RF-SCORE:    0.00 PKD
ROOT
HETATM    1  C   UNL     1      -9.993   3.916  72.993  1.00  0.00    -0.194 C  
HETATM    2  C   UNL     1     -10.829   5.119  73.404  1.00  0.00    -0.302 C  
ENDROOT
BRANCH   2   3
HETATM    3  N   UNL     1     -10.342   6.335  72.790  1.00  0.00    -0.190 N  
HETATM    4  C   UNL     1      -9.507   7.224  73.400  1.00  0.00    -0.208 C  
HETATM    5  N   UNL     1      -9.321   8.297  72.563  1.00  0.00    -0.257 NA 
HETATM    6  O   UNL     1      -9.003   7.130  74.507  1.00  0.00    -0.205 OA 
HETATM    7  C   UNL     1     -10.087   8.180  71.351  1.00  0.00    -0.198 C  
HETATM    8  O   UNL     1     -11.516   6.258  70.800  1.00  0.00    -0.333 OA 
HETATM    9  C   UNL     1     -10.749   6.815  71.572  1.00  0.00    -0.226 C  
BRANCH   7  10
HETATM   10  C   UNL     1     -11.060   9.320  71.183  1.00  0.00    -0.411 A  
HETATM   11  C   UNL     1     -12.274   9.312  71.887  1.00  0.00    -0.448 A  
HETATM   12  C   UNL     1     -13.186  10.361  71.746  1.00  0.00    -0.529 A  
HETATM   13  C   UNL     1     -12.899  11.429  70.900  1.00  0.00    -0.323 A  
HETATM   14  C   UNL     1     -11.701  11.449  70.189  1.00  0.00    -0.414 A  
HETATM   15  C   UNL     1     -10.790  10.402  70.326  1.00  0.00    -0.308 A  
ENDBRANCH   7  10
ENDBRANCH   2   3
TORSDOF 2
ENDMDL
MODEL       71
REMARK 921   NORMALIZED FREE ENERGY PREDICTED BY IDOCK:   -4.13 KCAL/MOL
REMARK 922        TOTAL FREE ENERGY PREDICTED BY IDOCK:   -4.75 KCAL/MOL
REMARK 923 INTER-LIGAND FREE ENERGY PREDICTED BY IDOCK:   -4.46 KCAL/MOL
REMARK 924 INTRA-LIGAND FREE ENERGY PREDICTED BY IDOCK:   -0.29 KCAL/MOL
REMARK 927      BINDING AFFINITY PREDICTED BY RF-SCORE:    0.00 PKD
ROOT
HETATM    1  C   UNL     1      -7.199   6.169  71.456  1.00  0.00    -0.087 C  
HETATM    2  C   UNL     1      -7.953   5.909  72.752  1.00  0.00    -0.104 C  
ENDROOT
BRANCH   2   3
HETATM    3  N   UNL     1      -9.295   6.445  72.699  1.00  0.00    -0.142 N  
HETATM    4  C   UNL     1     -10.359   5.803  72.138  1.00  0.00    -0.205 C  
HETATM    5  N   UNL     1     -11.451   6.635  72.188  1.00  0.00    -0.274 NA 
HETATM    6  O   UNL     1     -10.377   4.686  71.648  1.00  0.00    -0.187 OA 
HETATM    7  C   UNL     1     -11.131   7.917  72.756  1.00  0.00    -0.400 C  
HETATM    8  O   UNL     1      -8.908   8.538  73.603  1.00  0.00    -0.249 OA 
HETATM    9  C   UNL     1      -9.649   7.711  73.089  1.00  0.00    -0.256 C  
BRANCH   7  10
HETATM   10  C   UNL     1     -11.397   9.047  71.792  1.00  0.00    -0.447 A  
HETATM   11  C   UNL     1     -12.594   9.775  71.882  1.00  0.00    -0.479 A  
HETATM   12  C   UNL     1     -12.855  10.826  71.000  1.00  0.00    -0.480 A  
HETATM   13  C   UNL     1     -11.928  11.163  70.017  1.00  0.00    -0.447 A  
HETATM   14  C   UNL     1     -10.738  10.446  69.911  1.00  0.00    -0.331 A  
HETATM   15  C   UNL     1     -10.475   9.394  70.789  1.00  0.00    -0.372 A  
ENDBRANCH   7  10
ENDBRANCH   2   3
TORSDOF 2
ENDMDL
MODEL       72
REMARK 921   NORMALIZED FREE ENERGY PREDICTED BY IDOCK:   -4.12 KCAL/MOL
REMARK 922        TOTAL FREE ENERGY PREDICTED BY IDOCK:   -4.74 KCAL/MOL
REMARK 923 INTER-LIGAND FREE ENERGY PREDICTED BY IDOCK:   -4.82 KCAL/MOL
REMARK 924 INTRA-LIGAND FREE ENERGY PREDICTED BY IDOCK:    0.09 KCAL/MOL
REMARK 927      BINDING AFFINITY PREDICTED BY RF-SCORE:    0.00 PKD
ROOT
HETATM    1  C   UNL     1     -12.394  11.860  63.396  1.00  0.00    -0.577 C  
HETATM    2  C   UNL     1     -11.080  12.546  63.742  1.00  0.00    -0.448 C  
ENDROOT
BRANCH   2   3
HETATM    3  N   UNL     1     -11.251  13.500  64.816  1.00  0.00    -0.337 N  
HETATM    4  C   UNL     1     -12.037  14.611  64.743  1.00  0.00    -0.421 C  
HETATM    5  N   UNL     1     -11.895  15.328  65.906  1.00  0.00     0.085 NA 
HETATM    6  O   UNL     1     -12.747  14.957  63.813  1.00  0.00    -0.754 OA 
HETATM    7  C   UNL     1     -10.943  14.726  66.802  1.00  0.00    -0.327 C  
HETATM    8  O   UNL     1      -9.751  12.626  66.345  1.00  0.00    -0.249 OA 
HETATM    9  C   UNL     1     -10.553  13.481  65.997  1.00  0.00    -0.285 C  
BRANCH   7  10
HETATM   10  C   UNL     1      -9.791  15.650  67.109  1.00  0.00    -0.229 A  
HETATM   11  C   UNL     1      -8.592  15.535  66.388  1.00  0.00    -0.292 A  
HETATM   12  C   UNL     1      -7.516  16.385  66.657  1.00  0.00    -0.267 A  
HETATM   13  C   UNL     1      -7.623  17.357  67.648  1.00  0.00    -0.199 A  
HETATM   14  C   UNL     1      -8.803  17.481  68.376  1.00  0.00    -0.276 A  
HETATM   15  C   UNL     1      -9.879  16.632  68.112  1.00  0.00    -0.250 A  
ENDBRANCH   7  10
ENDBRANCH   2   3
TORSDOF 2
ENDMDL
MODEL       73
REMARK 921   NORMALIZED FREE ENERGY PREDICTED BY IDOCK:   -4.12 KCAL/MOL
REMARK 922        TOTAL FREE ENERGY PREDICTED BY IDOCK:   -4.73 KCAL/MOL
REMARK 923 INTER-LIGAND FREE ENERGY PREDICTED BY IDOCK:   -4.42 KCAL/MOL
REMARK 924 INTRA-LIGAND FREE ENERGY PREDICTED BY IDOCK:   -0.32 KCAL/MOL
REMARK 927      BINDING AFFINITY PREDICTED BY RF-SCORE:    0.00 PKD
ROOT
HETATM    1  C   UNL     1      -8.629   6.152  72.412  1.00  0.00    -0.119 C  
HETATM    2  C   UNL     1      -9.066   6.583  71.019  1.00  0.00    -0.150 C  
ENDROOT
BRANCH   2   3
HETATM    3  N   UNL     1     -10.049   7.643  71.080  1.00  0.00    -0.190 N  
HETATM    4  C   UNL     1     -11.397   7.445  71.051  1.00  0.00    -0.275 C  
HETATM    5  N   UNL     1     -12.021   8.669  71.039  1.00  0.00    -0.276 NA 
HETATM    6  O   UNL     1     -11.991   6.379  71.022  1.00  0.00    -0.333 OA 
HETATM    7  C   UNL     1     -11.081   9.757  71.009  1.00  0.00    -0.361 C  
HETATM    8  O   UNL     1      -8.639   9.476  71.041  1.00  0.00    -0.273 OA 
HETATM    9  C   UNL     1      -9.759   8.983  71.048  1.00  0.00    -0.278 C  
BRANCH   7  10
HETATM   10  C   UNL     1     -11.255  10.623  69.786  1.00  0.00    -0.363 A  
HETATM   11  C   UNL     1     -11.731  11.937  69.921  1.00  0.00    -0.383 A  
HETATM   12  C   UNL     1     -11.895  12.753  68.800  1.00  0.00    -0.346 A  
HETATM   13  C   UNL     1     -11.587  12.270  67.531  1.00  0.00    -0.422 A  
HETATM   14  C   UNL     1     -11.119  10.967  67.379  1.00  0.00    -0.370 A  
HETATM   15  C   UNL     1     -10.957  10.148  68.497  1.00  0.00    -0.278 A  
ENDBRANCH   7  10
ENDBRANCH   2   3
TORSDOF 2
ENDMDL
MODEL       74
REMARK 921   NORMALIZED FREE ENERGY PREDICTED BY IDOCK:   -4.09 KCAL/MOL
REMARK 922        TOTAL FREE ENERGY PREDICTED BY IDOCK:   -4.71 KCAL/MOL
REMARK 923 INTER-LIGAND FREE ENERGY PREDICTED BY IDOCK:   -4.48 KCAL/MOL
REMARK 924 INTRA-LIGAND FREE ENERGY PREDICTED BY IDOCK:   -0.23 KCAL/MOL
REMARK 927      BINDING AFFINITY PREDICTED BY RF-SCORE:    0.00 PKD
ROOT
HETATM    1  C   UNL     1     -11.828  14.950  68.194  1.00  0.00    -0.307 C  
HETATM    2  C   UNL     1     -11.336  14.731  66.771  1.00  0.00    -0.346 C  
ENDROOT
BRANCH   2   3
HETATM    3  N   UNL     1     -10.004  15.265  66.586  1.00  0.00    -0.246 N  
HETATM    4  C   UNL     1      -8.872  14.705  67.098  1.00  0.00    -0.221 C  
HETATM    5  N   UNL     1      -7.805  15.518  66.801  1.00  0.00    -0.192 NA 
HETATM    6  O   UNL     1      -8.779  13.668  67.734  1.00  0.00    -0.162 OA 
HETATM    7  C   UNL     1      -8.209  16.709  66.102  1.00  0.00    -0.260 C  
HETATM    8  O   UNL     1     -10.526  17.212  65.451  1.00  0.00    -0.633 OA 
HETATM    9  C   UNL     1      -9.718  16.463  65.983  1.00  0.00    -0.326 C  
BRANCH   7  10
HETATM   10  C   UNL     1      -7.844  17.962  66.858  1.00  0.00    -0.245 A  
HETATM   11  C   UNL     1      -7.514  17.885  68.220  1.00  0.00    -0.260 A  
HETATM   12  C   UNL     1      -7.171  19.034  68.935  1.00  0.00    -0.364 A  
HETATM   13  C   UNL     1      -7.155  20.274  68.302  1.00  0.00    -0.266 A  
HETATM   14  C   UNL     1      -7.486  20.369  66.952  1.00  0.00    -0.345 A  
HETATM   15  C   UNL     1      -7.832  19.223  66.236  1.00  0.00    -0.311 A  
ENDBRANCH   7  10
ENDBRANCH   2   3
TORSDOF 2
ENDMDL
MODEL       75
REMARK 921   NORMALIZED FREE ENERGY PREDICTED BY IDOCK:   -4.07 KCAL/MOL
REMARK 922        TOTAL FREE ENERGY PREDICTED BY IDOCK:   -4.68 KCAL/MOL
REMARK 923 INTER-LIGAND FREE ENERGY PREDICTED BY IDOCK:   -4.44 KCAL/MOL
REMARK 924 INTRA-LIGAND FREE ENERGY PREDICTED BY IDOCK:   -0.24 KCAL/MOL
REMARK 927      BINDING AFFINITY PREDICTED BY RF-SCORE:    0.00 PKD
ROOT
HETATM    1  C   UNL     1      -9.413   7.299  69.489  1.00  0.00    -0.155 C  
HETATM    2  C   UNL     1     -10.620   7.963  68.843  1.00  0.00    -0.145 C  
ENDROOT
BRANCH   2   3
HETATM    3  N   UNL     1     -10.267   9.232  68.245  1.00  0.00    -0.193 N  
HETATM    4  C   UNL     1     -10.330  10.431  68.889  1.00  0.00    -0.209 C  
HETATM    5  N   UNL     1     -10.007  11.427  67.999  1.00  0.00    -0.177 NA 
HETATM    6  O   UNL     1     -10.634  10.633  70.053  1.00  0.00    -0.230 OA 
HETATM    7  C   UNL     1      -9.758  10.914  66.678  1.00  0.00    -0.189 C  
HETATM    8  O   UNL     1      -9.834   8.530  66.084  1.00  0.00    -0.244 OA 
HETATM    9  C   UNL     1      -9.944   9.412  66.924  1.00  0.00    -0.229 C  
BRANCH   7  10
HETATM   10  C   UNL     1     -10.704  11.495  65.656  1.00  0.00    -0.323 A  
HETATM   11  C   UNL     1     -11.777  12.297  66.074  1.00  0.00    -0.451 A  
HETATM   12  C   UNL     1     -12.660  12.846  65.142  1.00  0.00    -0.536 A  
HETATM   13  C   UNL     1     -12.485  12.601  63.782  1.00  0.00    -0.514 A  
HETATM   14  C   UNL     1     -11.428  11.802  63.352  1.00  0.00    -0.424 A  
HETATM   15  C   UNL     1     -10.545  11.251  64.281  1.00  0.00    -0.422 A  
ENDBRANCH   7  10
ENDBRANCH   2   3
TORSDOF 2
ENDMDL
MODEL       76
REMARK 921   NORMALIZED FREE ENERGY PREDICTED BY IDOCK:   -4.04 KCAL/MOL
REMARK 922        TOTAL FREE ENERGY PREDICTED BY IDOCK:   -4.65 KCAL/MOL
REMARK 923 INTER-LIGAND FREE ENERGY PREDICTED BY IDOCK:   -4.33 KCAL/MOL
REMARK 924 INTRA-LIGAND FREE ENERGY PREDICTED BY IDOCK:   -0.32 KCAL/MOL
REMARK 927      BINDING AFFINITY PREDICTED BY RF-SCORE:    0.00 PKD
ROOT
HETATM    1  C   UNL     1     -11.419  10.817  69.775  1.00  0.00    -0.386 C  
HETATM    2  C   UNL     1     -11.153  10.363  68.347  1.00  0.00    -0.268 C  
ENDROOT
BRANCH   2   3
HETATM    3  N   UNL     1     -10.472  11.387  67.586  1.00  0.00    -0.188 N  
HETATM    4  C   UNL     1      -9.130  11.618  67.634  1.00  0.00    -0.174 C  
HETATM    5  N   UNL     1      -8.843  12.713  66.856  1.00  0.00    -0.213 NA 
HETATM    6  O   UNL     1      -8.291  10.994  68.263  1.00  0.00    -0.120 OA 
HETATM    7  C   UNL     1     -10.027  13.297  66.284  1.00  0.00    -0.291 C  
HETATM    8  O   UNL     1     -12.298  12.411  66.602  1.00  0.00    -0.477 OA 
HETATM    9  C   UNL     1     -11.096  12.336  66.817  1.00  0.00    -0.296 C  
BRANCH   7  10
HETATM   10  C   UNL     1     -10.216  14.731  66.712  1.00  0.00    -0.266 A  
HETATM   11  C   UNL     1     -10.618  15.021  68.025  1.00  0.00    -0.250 A  
HETATM   12  C   UNL     1     -10.795  16.343  68.440  1.00  0.00    -0.342 A  
HETATM   13  C   UNL     1     -10.574  17.392  67.550  1.00  0.00    -0.330 A  
HETATM   14  C   UNL     1     -10.181  17.121  66.242  1.00  0.00    -0.340 A  
HETATM   15  C   UNL     1     -10.006  15.801  65.824  1.00  0.00    -0.389 A  
ENDBRANCH   7  10
ENDBRANCH   2   3
TORSDOF 2
ENDMDL
MODEL       77
REMARK 921   NORMALIZED FREE ENERGY PREDICTED BY IDOCK:   -4.03 KCAL/MOL
REMARK 922        TOTAL FREE ENERGY PREDICTED BY IDOCK:   -4.64 KCAL/MOL
REMARK 923 INTER-LIGAND FREE ENERGY PREDICTED BY IDOCK:   -4.36 KCAL/MOL
REMARK 924 INTRA-LIGAND FREE ENERGY PREDICTED BY IDOCK:   -0.28 KCAL/MOL
REMARK 927      BINDING AFFINITY PREDICTED BY RF-SCORE:    0.00 PKD
ROOT
HETATM    1  C   UNL     1     -10.536   5.395  69.841  1.00  0.00    -0.378 C  
HETATM    2  C   UNL     1     -11.315   6.696  69.714  1.00  0.00    -0.354 C  
ENDROOT
BRANCH   2   3
HETATM    3  N   UNL     1     -10.511   7.735  69.107  1.00  0.00    -0.219 N  
HETATM    4  C   UNL     1      -9.926   8.756  69.794  1.00  0.00    -0.190 C  
HETATM    5  N   UNL     1      -9.316   9.598  68.896  1.00  0.00    -0.147 NA 
HETATM    6  O   UNL     1      -9.933   8.939  71.000  1.00  0.00    -0.211 OA 
HETATM    7  C   UNL     1      -9.522   9.181  67.534  1.00  0.00    -0.139 C  
HETATM    8  O   UNL     1     -10.763   7.163  66.880  1.00  0.00    -0.330 OA 
HETATM    9  C   UNL     1     -10.336   7.901  67.757  1.00  0.00    -0.226 C  
BRANCH   7  10
HETATM   10  C   UNL     1     -10.234  10.233  66.721  1.00  0.00    -0.286 A  
HETATM   11  C   UNL     1     -10.083  10.258  65.325  1.00  0.00    -0.359 A  
HETATM   12  C   UNL     1     -10.737  11.223  64.556  1.00  0.00    -0.390 A  
HETATM   13  C   UNL     1     -11.548  12.175  65.168  1.00  0.00    -0.372 A  
HETATM   14  C   UNL     1     -11.704  12.167  66.552  1.00  0.00    -0.392 A  
HETATM   15  C   UNL     1     -11.050  11.206  67.324  1.00  0.00    -0.366 A  
ENDBRANCH   7  10
ENDBRANCH   2   3
TORSDOF 2
ENDMDL
MODEL       78
REMARK 921   NORMALIZED FREE ENERGY PREDICTED BY IDOCK:   -4.03 KCAL/MOL
REMARK 922        TOTAL FREE ENERGY PREDICTED BY IDOCK:   -4.64 KCAL/MOL
REMARK 923 INTER-LIGAND FREE ENERGY PREDICTED BY IDOCK:   -4.31 KCAL/MOL
REMARK 924 INTRA-LIGAND FREE ENERGY PREDICTED BY IDOCK:   -0.33 KCAL/MOL
REMARK 927      BINDING AFFINITY PREDICTED BY RF-SCORE:    0.00 PKD
ROOT
HETATM    1  C   UNL     1     -10.543   7.629  67.134  1.00  0.00    -0.410 C  
HETATM    2  C   UNL     1      -9.404   8.313  67.875  1.00  0.00    -0.138 C  
ENDROOT
BRANCH   2   3
HETATM    3  N   UNL     1      -9.629   9.738  67.990  1.00  0.00    -0.142 N  
HETATM    4  C   UNL     1     -10.453  10.315  68.910  1.00  0.00    -0.211 C  
HETATM    5  N   UNL     1     -10.494  11.668  68.676  1.00  0.00    -0.209 NA 
HETATM    6  O   UNL     1     -11.081   9.759  69.796  1.00  0.00    -0.239 OA 
HETATM    7  C   UNL     1      -9.714  12.044  67.527  1.00  0.00    -0.187 C  
HETATM    8  O   UNL     1      -8.404  10.469  66.170  1.00  0.00    -0.143 OA 
HETATM    9  C   UNL     1      -9.148  10.680  67.117  1.00  0.00    -0.143 C  
BRANCH   7  10
HETATM   10  C   UNL     1     -10.554  12.709  66.465  1.00  0.00    -0.272 A  
HETATM   11  C   UNL     1     -10.128  13.918  65.892  1.00  0.00    -0.331 A  
HETATM   12  C   UNL     1     -10.891  14.546  64.905  1.00  0.00    -0.436 A  
HETATM   13  C   UNL     1     -12.089  13.977  64.478  1.00  0.00    -0.484 A  
HETATM   14  C   UNL     1     -12.528  12.781  65.041  1.00  0.00    -0.572 A  
HETATM   15  C   UNL     1     -11.769  12.152  66.029  1.00  0.00    -0.388 A  
ENDBRANCH   7  10
ENDBRANCH   2   3
TORSDOF 2
ENDMDL
MODEL       79
REMARK 921   NORMALIZED FREE ENERGY PREDICTED BY IDOCK:   -4.01 KCAL/MOL
REMARK 922        TOTAL FREE ENERGY PREDICTED BY IDOCK:   -4.62 KCAL/MOL
REMARK 923 INTER-LIGAND FREE ENERGY PREDICTED BY IDOCK:   -4.27 KCAL/MOL
REMARK 924 INTRA-LIGAND FREE ENERGY PREDICTED BY IDOCK:   -0.35 KCAL/MOL
REMARK 927      BINDING AFFINITY PREDICTED BY RF-SCORE:    0.00 PKD
ROOT
HETATM    1  C   UNL     1      -7.198   7.187  70.405  1.00  0.00    -0.070 C  
HETATM    2  C   UNL     1      -7.847   5.827  70.194  1.00  0.00    -0.099 C  
ENDROOT
BRANCH   2   3
HETATM    3  N   UNL     1      -9.288   5.936  70.122  1.00  0.00    -0.154 N  
HETATM    4  C   UNL     1      -9.992   6.076  68.963  1.00  0.00    -0.158 C  
HETATM    5  N   UNL     1     -11.321   6.236  69.273  1.00  0.00    -0.407 NA 
HETATM    6  O   UNL     1      -9.554   6.083  67.824  1.00  0.00    -0.112 OA 
HETATM    7  C   UNL     1     -11.549   6.257  70.693  1.00  0.00    -0.281 C  
HETATM    8  O   UNL     1      -9.784   5.976  72.381  1.00  0.00    -0.159 OA 
HETATM    9  C   UNL     1     -10.121   6.038  71.206  1.00  0.00    -0.192 C  
BRANCH   7  10
HETATM   10  C   UNL     1     -12.178   7.550  71.147  1.00  0.00    -0.330 A  
HETATM   11  C   UNL     1     -13.493   7.554  71.638  1.00  0.00    -0.429 A  
HETATM   12  C   UNL     1     -14.090   8.741  72.066  1.00  0.00    -0.508 A  
HETATM   13  C   UNL     1     -13.384   9.940  72.009  1.00  0.00    -0.532 A  
HETATM   14  C   UNL     1     -12.080   9.955  71.518  1.00  0.00    -0.496 A  
HETATM   15  C   UNL     1     -11.482   8.771  71.088  1.00  0.00    -0.344 A  
ENDBRANCH   7  10
ENDBRANCH   2   3
TORSDOF 2
ENDMDL
MODEL       80
REMARK 921   NORMALIZED FREE ENERGY PREDICTED BY IDOCK:   -4.01 KCAL/MOL
REMARK 922        TOTAL FREE ENERGY PREDICTED BY IDOCK:   -4.62 KCAL/MOL
REMARK 923 INTER-LIGAND FREE ENERGY PREDICTED BY IDOCK:   -4.28 KCAL/MOL
REMARK 924 INTRA-LIGAND FREE ENERGY PREDICTED BY IDOCK:   -0.33 KCAL/MOL
REMARK 927      BINDING AFFINITY PREDICTED BY RF-SCORE:    0.00 PKD
ROOT
HETATM    1  C   UNL     1      -8.854   9.296  69.419  1.00  0.00    -0.149 C  
HETATM    2  C   UNL     1      -8.231   8.495  68.285  1.00  0.00    -0.123 C  
ENDROOT
BRANCH   2   3
HETATM    3  N   UNL     1      -8.441   9.138  67.007  1.00  0.00    -0.123 N  
HETATM    4  C   UNL     1      -7.595  10.054  66.458  1.00  0.00    -0.106 C  
HETATM    5  N   UNL     1      -8.146  10.516  65.287  1.00  0.00    -0.154 NA 
HETATM    6  O   UNL     1      -6.527  10.440  66.905  1.00  0.00    -0.070 OA 
HETATM    7  C   UNL     1      -9.441   9.943  65.034  1.00  0.00    -0.280 C  
HETATM    8  O   UNL     1     -10.524   8.280  66.484  1.00  0.00    -0.255 OA 
HETATM    9  C   UNL     1      -9.571   9.008  66.241  1.00  0.00    -0.260 C  
BRANCH   7  10
HETATM   10  C   UNL     1     -10.519  10.994  64.947  1.00  0.00    -0.371 A  
HETATM   11  C   UNL     1     -11.048  11.351  63.696  1.00  0.00    -0.411 A  
HETATM   12  C   UNL     1     -12.049  12.320  63.597  1.00  0.00    -0.648 A  
HETATM   13  C   UNL     1     -12.534  12.946  64.743  1.00  0.00    -0.517 A  
HETATM   14  C   UNL     1     -12.016  12.607  65.991  1.00  0.00    -0.478 A  
HETATM   15  C   UNL     1     -11.014  11.641  66.093  1.00  0.00    -0.339 A  
ENDBRANCH   7  10
ENDBRANCH   2   3
TORSDOF 2
ENDMDL
MODEL       81
REMARK 921   NORMALIZED FREE ENERGY PREDICTED BY IDOCK:   -3.99 KCAL/MOL
REMARK 922        TOTAL FREE ENERGY PREDICTED BY IDOCK:   -4.59 KCAL/MOL
REMARK 923 INTER-LIGAND FREE ENERGY PREDICTED BY IDOCK:   -4.35 KCAL/MOL
REMARK 924 INTRA-LIGAND FREE ENERGY PREDICTED BY IDOCK:   -0.24 KCAL/MOL
REMARK 927      BINDING AFFINITY PREDICTED BY RF-SCORE:    0.00 PKD
ROOT
HETATM    1  C   UNL     1      -8.330   4.484  67.979  1.00  0.00    -0.094 C  
HETATM    2  C   UNL     1      -9.777   4.897  68.207  1.00  0.00    -0.145 C  
ENDROOT
BRANCH   2   3
HETATM    3  N   UNL     1      -9.930   5.612  69.455  1.00  0.00    -0.181 N  
HETATM    4  C   UNL     1      -9.943   5.023  70.684  1.00  0.00    -0.230 C  
HETATM    5  N   UNL     1     -10.193   5.986  71.631  1.00  0.00    -0.197 NA 
HETATM    6  O   UNL     1      -9.782   3.841  70.942  1.00  0.00    -0.180 OA 
HETATM    7  C   UNL     1     -10.411   7.281  71.044  1.00  0.00    -0.199 C  
HETATM    8  O   UNL     1     -10.289   7.744  68.633  1.00  0.00    -0.199 OA 
HETATM    9  C   UNL     1     -10.207   6.951  69.561  1.00  0.00    -0.186 C  
BRANCH   7  10
HETATM   10  C   UNL     1     -11.777   7.831  71.374  1.00  0.00    -0.310 A  
HETATM   11  C   UNL     1     -12.903   6.998  71.291  1.00  0.00    -0.376 A  
HETATM   12  C   UNL     1     -14.175   7.489  71.596  1.00  0.00    -0.592 A  
HETATM   13  C   UNL     1     -14.338   8.817  71.985  1.00  0.00    -0.466 A  
HETATM   14  C   UNL     1     -13.231   9.658  72.066  1.00  0.00    -0.546 A  
HETATM   15  C   UNL     1     -11.959   9.171  71.760  1.00  0.00    -0.449 A  
ENDBRANCH   7  10
ENDBRANCH   2   3
TORSDOF 2
ENDMDL
MODEL       82
REMARK 921   NORMALIZED FREE ENERGY PREDICTED BY IDOCK:   -3.97 KCAL/MOL
REMARK 922        TOTAL FREE ENERGY PREDICTED BY IDOCK:   -4.57 KCAL/MOL
REMARK 923 INTER-LIGAND FREE ENERGY PREDICTED BY IDOCK:   -4.38 KCAL/MOL
REMARK 924 INTRA-LIGAND FREE ENERGY PREDICTED BY IDOCK:   -0.19 KCAL/MOL
REMARK 927      BINDING AFFINITY PREDICTED BY RF-SCORE:    0.00 PKD
ROOT
HETATM    1  C   UNL     1      -9.672   9.311  71.009  1.00  0.00    -0.341 C  
HETATM    2  C   UNL     1     -10.842   8.957  70.103  1.00  0.00    -0.231 C  
ENDROOT
BRANCH   2   3
HETATM    3  N   UNL     1     -11.323  10.118  69.385  1.00  0.00    -0.209 N  
HETATM    4  C   UNL     1     -11.032  10.392  68.082  1.00  0.00    -0.281 C  
HETATM    5  N   UNL     1     -11.581  11.608  67.755  1.00  0.00    -0.484 NA 
HETATM    6  O   UNL     1     -10.384   9.708  67.306  1.00  0.00    -0.217 OA 
HETATM    7  C   UNL     1     -12.233  12.228  68.877  1.00  0.00     0.042 C  
HETATM    8  O   UNL     1     -12.411  11.211  71.108  1.00  0.00    -0.365 OA 
HETATM    9  C   UNL     1     -12.025  11.152  69.949  1.00  0.00    -0.363 C  
BRANCH   7  10
HETATM   10  C   UNL     1     -11.625  13.566  69.219  1.00  0.00    -0.369 A  
HETATM   11  C   UNL     1     -12.259  14.404  70.150  1.00  0.00    -0.401 A  
HETATM   12  C   UNL     1     -11.708  15.645  70.480  1.00  0.00    -0.392 A  
HETATM   13  C   UNL     1     -10.521  16.065  69.886  1.00  0.00    -0.287 A  
HETATM   14  C   UNL     1      -9.883  15.247  68.955  1.00  0.00    -0.230 A  
HETATM   15  C   UNL     1     -10.432  14.008  68.621  1.00  0.00    -0.249 A  
ENDBRANCH   7  10
ENDBRANCH   2   3
TORSDOF 2
ENDMDL
MODEL       83
REMARK 921   NORMALIZED FREE ENERGY PREDICTED BY IDOCK:   -3.96 KCAL/MOL
REMARK 922        TOTAL FREE ENERGY PREDICTED BY IDOCK:   -4.56 KCAL/MOL
REMARK 923 INTER-LIGAND FREE ENERGY PREDICTED BY IDOCK:   -4.27 KCAL/MOL
REMARK 924 INTRA-LIGAND FREE ENERGY PREDICTED BY IDOCK:   -0.29 KCAL/MOL
REMARK 927      BINDING AFFINITY PREDICTED BY RF-SCORE:    0.00 PKD
ROOT
HETATM    1  C   UNL     1      -9.793  11.126  64.376  1.00  0.00    -0.334 C  
HETATM    2  C   UNL     1      -8.991  11.027  65.666  1.00  0.00    -0.199 C  
ENDROOT
BRANCH   2   3
HETATM    3  N   UNL     1      -9.847  11.117  66.828  1.00  0.00    -0.196 N  
HETATM    4  C   UNL     1      -9.987  12.235  67.596  1.00  0.00    -0.198 C  
HETATM    5  N   UNL     1     -10.807  11.939  68.658  1.00  0.00    -0.226 NA 
HETATM    6  O   UNL     1      -9.475  13.328  67.416  1.00  0.00    -0.205 OA 
HETATM    7  C   UNL     1     -11.214  10.559  68.662  1.00  0.00    -0.270 C  
HETATM    8  O   UNL     1     -10.578   8.925  66.938  1.00  0.00    -0.263 OA 
HETATM    9  C   UNL     1     -10.530  10.065  67.382  1.00  0.00    -0.260 C  
BRANCH   7  10
HETATM   10  C   UNL     1     -10.776   9.841  69.914  1.00  0.00    -0.303 A  
HETATM   11  C   UNL     1     -11.729   9.457  70.870  1.00  0.00    -0.378 A  
HETATM   12  C   UNL     1     -11.341   8.789  72.033  1.00  0.00    -0.441 A  
HETATM   13  C   UNL     1      -9.998   8.498  72.258  1.00  0.00    -0.385 A  
HETATM   14  C   UNL     1      -9.038   8.877  71.323  1.00  0.00    -0.323 A  
HETATM   15  C   UNL     1      -9.423   9.547  70.160  1.00  0.00    -0.287 A  
ENDBRANCH   7  10
ENDBRANCH   2   3
TORSDOF 2
ENDMDL
MODEL       84
REMARK 921   NORMALIZED FREE ENERGY PREDICTED BY IDOCK:   -3.94 KCAL/MOL
REMARK 922        TOTAL FREE ENERGY PREDICTED BY IDOCK:   -4.54 KCAL/MOL
REMARK 923 INTER-LIGAND FREE ENERGY PREDICTED BY IDOCK:   -4.19 KCAL/MOL
REMARK 924 INTRA-LIGAND FREE ENERGY PREDICTED BY IDOCK:   -0.35 KCAL/MOL
REMARK 927      BINDING AFFINITY PREDICTED BY RF-SCORE:    0.00 PKD
ROOT
HETATM    1  C   UNL     1      -8.177  12.634  67.264  1.00  0.00    -0.184 C  
HETATM    2  C   UNL     1      -7.759  11.172  67.225  1.00  0.00    -0.130 C  
ENDROOT
BRANCH   2   3
HETATM    3  N   UNL     1      -8.816  10.308  67.705  1.00  0.00    -0.125 N  
HETATM    4  C   UNL     1      -9.871   9.891  66.951  1.00  0.00    -0.199 C  
HETATM    5  N   UNL     1     -10.719   9.159  67.746  1.00  0.00    -0.223 NA 
HETATM    6  O   UNL     1     -10.076  10.120  65.770  1.00  0.00    -0.264 OA 
HETATM    7  C   UNL     1     -10.269   9.103  69.112  1.00  0.00    -0.207 C  
HETATM    8  O   UNL     1      -8.193  10.138  69.926  1.00  0.00    -0.177 OA 
HETATM    9  C   UNL     1      -8.963   9.900  69.006  1.00  0.00    -0.160 C  
BRANCH   7  10
HETATM   10  C   UNL     1     -11.278   9.693  70.066  1.00  0.00    -0.271 A  
HETATM   11  C   UNL     1     -11.860   8.885  71.055  1.00  0.00    -0.324 A  
HETATM   12  C   UNL     1     -12.793   9.416  71.949  1.00  0.00    -0.497 A  
HETATM   13  C   UNL     1     -13.158  10.757  71.866  1.00  0.00    -0.557 A  
HETATM   14  C   UNL     1     -12.594  11.571  70.886  1.00  0.00    -0.438 A  
HETATM   15  C   UNL     1     -11.664  11.043  69.990  1.00  0.00    -0.437 A  
ENDBRANCH   7  10
ENDBRANCH   2   3
TORSDOF 2
ENDMDL
MODEL       85
REMARK 921   NORMALIZED FREE ENERGY PREDICTED BY IDOCK:   -3.92 KCAL/MOL
REMARK 922        TOTAL FREE ENERGY PREDICTED BY IDOCK:   -4.51 KCAL/MOL
REMARK 923 INTER-LIGAND FREE ENERGY PREDICTED BY IDOCK:   -4.16 KCAL/MOL
REMARK 924 INTRA-LIGAND FREE ENERGY PREDICTED BY IDOCK:   -0.35 KCAL/MOL
REMARK 927      BINDING AFFINITY PREDICTED BY RF-SCORE:    0.00 PKD
ROOT
HETATM    1  C   UNL     1      -6.869  10.808  69.812  1.00  0.00    -0.151 C  
HETATM    2  C   UNL     1      -6.764   9.295  69.934  1.00  0.00    -0.050 C  
ENDROOT
BRANCH   2   3
HETATM    3  N   UNL     1      -8.070   8.685  70.062  1.00  0.00    -0.107 N  
HETATM    4  C   UNL     1      -8.814   8.234  69.013  1.00  0.00    -0.143 C  
HETATM    5  N   UNL     1     -10.026   7.797  69.490  1.00  0.00    -0.184 NA 
HETATM    6  O   UNL     1      -8.503   8.219  67.834  1.00  0.00    -0.130 OA 
HETATM    7  C   UNL     1     -10.154   7.992  70.910  1.00  0.00    -0.191 C  
HETATM    8  O   UNL     1      -8.391   8.938  72.338  1.00  0.00    -0.386 OA 
HETATM    9  C   UNL     1      -8.780   8.592  71.231  1.00  0.00    -0.194 C  
BRANCH   7  10
HETATM   10  C   UNL     1     -11.317   8.889  71.257  1.00  0.00    -0.371 A  
HETATM   11  C   UNL     1     -11.387  10.183  70.717  1.00  0.00    -0.436 A  
HETATM   12  C   UNL     1     -12.457  11.025  71.025  1.00  0.00    -0.512 A  
HETATM   13  C   UNL     1     -13.470  10.588  71.875  1.00  0.00    -0.358 A  
HETATM   14  C   UNL     1     -13.413   9.309  72.423  1.00  0.00    -0.526 A  
HETATM   15  C   UNL     1     -12.343   8.466  72.119  1.00  0.00    -0.426 A  
ENDBRANCH   7  10
ENDBRANCH   2   3
TORSDOF 2
ENDMDL
MODEL       86
REMARK 921   NORMALIZED FREE ENERGY PREDICTED BY IDOCK:   -3.85 KCAL/MOL
REMARK 922        TOTAL FREE ENERGY PREDICTED BY IDOCK:   -4.44 KCAL/MOL
REMARK 923 INTER-LIGAND FREE ENERGY PREDICTED BY IDOCK:   -4.10 KCAL/MOL
REMARK 924 INTRA-LIGAND FREE ENERGY PREDICTED BY IDOCK:   -0.34 KCAL/MOL
REMARK 927      BINDING AFFINITY PREDICTED BY RF-SCORE:    0.00 PKD
ROOT
HETATM    1  C   UNL     1      -9.790   4.749  69.196  1.00  0.00    -0.254 C  
HETATM    2  C   UNL     1      -8.638   5.699  68.901  1.00  0.00    -0.101 C  
ENDROOT
BRANCH   2   3
HETATM    3  N   UNL     1      -8.778   6.940  69.631  1.00  0.00    -0.140 N  
HETATM    4  C   UNL     1      -8.240   7.175  70.861  1.00  0.00    -0.116 C  
HETATM    5  N   UNL     1      -8.642   8.417  71.288  1.00  0.00    -0.146 NA 
HETATM    6  O   UNL     1      -7.529   6.429  71.515  1.00  0.00    -0.087 OA 
HETATM    7  C   UNL     1      -9.530   9.052  70.350  1.00  0.00    -0.210 C  
HETATM    8  O   UNL     1     -10.205   8.067  68.201  1.00  0.00    -0.194 OA 
HETATM    9  C   UNL     1      -9.569   7.991  69.244  1.00  0.00    -0.157 C  
BRANCH   7  10
HETATM   10  C   UNL     1     -10.875   9.358  70.961  1.00  0.00    -0.406 A  
HETATM   11  C   UNL     1     -11.501  10.585  70.693  1.00  0.00    -0.418 A  
HETATM   12  C   UNL     1     -12.748  10.884  71.247  1.00  0.00    -0.542 A  
HETATM   13  C   UNL     1     -13.384   9.964  72.076  1.00  0.00    -0.532 A  
HETATM   14  C   UNL     1     -12.774   8.744  72.357  1.00  0.00    -0.433 A  
HETATM   15  C   UNL     1     -11.527   8.443  71.806  1.00  0.00    -0.365 A  
ENDBRANCH   7  10
ENDBRANCH   2   3
TORSDOF 2
ENDMDL
MODEL       87
REMARK 921   NORMALIZED FREE ENERGY PREDICTED BY IDOCK:   -3.85 KCAL/MOL
REMARK 922        TOTAL FREE ENERGY PREDICTED BY IDOCK:   -4.43 KCAL/MOL
REMARK 923 INTER-LIGAND FREE ENERGY PREDICTED BY IDOCK:   -4.38 KCAL/MOL
REMARK 924 INTRA-LIGAND FREE ENERGY PREDICTED BY IDOCK:   -0.05 KCAL/MOL
REMARK 927      BINDING AFFINITY PREDICTED BY RF-SCORE:    0.00 PKD
ROOT
HETATM    1  C   UNL     1     -12.339  14.249  64.920  1.00  0.00    -0.435 C  
HETATM    2  C   UNL     1     -10.957  13.852  64.420  1.00  0.00    -0.308 C  
ENDROOT
BRANCH   2   3
HETATM    3  N   UNL     1     -10.426  12.736  65.172  1.00  0.00    -0.294 N  
HETATM    4  C   UNL     1     -10.512  11.434  64.781  1.00  0.00    -0.308 C  
HETATM    5  N   UNL     1      -9.982  10.641  65.769  1.00  0.00    -0.244 NA 
HETATM    6  O   UNL     1     -10.989  11.000  63.744  1.00  0.00    -0.298 OA 
HETATM    7  C   UNL     1      -9.555  11.408  66.909  1.00  0.00    -0.185 C  
HETATM    8  O   UNL     1      -9.694  13.858  67.058  1.00  0.00    -0.236 OA 
HETATM    9  C   UNL     1      -9.880  12.826  66.427  1.00  0.00    -0.269 C  
BRANCH   7  10
HETATM   10  C   UNL     1     -10.279  11.002  68.169  1.00  0.00    -0.201 A  
HETATM   11  C   UNL     1     -10.055   9.733  68.726  1.00  0.00    -0.187 A  
HETATM   12  C   UNL     1     -10.714   9.342  69.894  1.00  0.00    -0.258 A  
HETATM   13  C   UNL     1     -11.606  10.211  70.519  1.00  0.00    -0.411 A  
HETATM   14  C   UNL     1     -11.844  11.471  69.975  1.00  0.00    -0.435 A  
HETATM   15  C   UNL     1     -11.188  11.864  68.808  1.00  0.00    -0.314 A  
ENDBRANCH   7  10
ENDBRANCH   2   3
TORSDOF 2
ENDMDL
MODEL       88
REMARK 921   NORMALIZED FREE ENERGY PREDICTED BY IDOCK:   -3.85 KCAL/MOL
REMARK 922        TOTAL FREE ENERGY PREDICTED BY IDOCK:   -4.43 KCAL/MOL
REMARK 923 INTER-LIGAND FREE ENERGY PREDICTED BY IDOCK:   -4.12 KCAL/MOL
REMARK 924 INTRA-LIGAND FREE ENERGY PREDICTED BY IDOCK:   -0.31 KCAL/MOL
REMARK 927      BINDING AFFINITY PREDICTED BY RF-SCORE:    0.00 PKD
ROOT
HETATM    1  C   UNL     1      -6.329  17.997  66.385  1.00  0.00    -0.247 C  
HETATM    2  C   UNL     1      -7.386  17.828  67.467  1.00  0.00    -0.198 C  
ENDROOT
BRANCH   2   3
HETATM    3  N   UNL     1      -8.309  16.762  67.141  1.00  0.00    -0.176 N  
HETATM    4  C   UNL     1      -9.404  16.910  66.344  1.00  0.00    -0.276 C  
HETATM    5  N   UNL     1     -10.095  15.723  66.321  1.00  0.00    -0.284 NA 
HETATM    6  O   UNL     1      -9.758  17.914  65.746  1.00  0.00    -0.527 OA 
HETATM    7  C   UNL     1      -9.493  14.728  67.167  1.00  0.00    -0.227 C  
HETATM    8  O   UNL     1      -7.430  15.077  68.458  1.00  0.00    -0.110 OA 
HETATM    9  C   UNL     1      -8.276  15.504  67.685  1.00  0.00    -0.154 C  
BRANCH   7  10
HETATM   10  C   UNL     1     -10.433  14.259  68.250  1.00  0.00    -0.247 A  
HETATM   11  C   UNL     1     -10.821  12.911  68.302  1.00  0.00    -0.263 A  
HETATM   12  C   UNL     1     -11.689  12.459  69.299  1.00  0.00    -0.386 A  
HETATM   13  C   UNL     1     -12.180  13.345  70.254  1.00  0.00    -0.405 A  
HETATM   14  C   UNL     1     -11.809  14.687  70.213  1.00  0.00    -0.363 A  
HETATM   15  C   UNL     1     -10.945  15.142  69.216  1.00  0.00    -0.260 A  
ENDBRANCH   7  10
ENDBRANCH   2   3
TORSDOF 2
ENDMDL
MODEL       89
REMARK 921   NORMALIZED FREE ENERGY PREDICTED BY IDOCK:   -3.85 KCAL/MOL
REMARK 922        TOTAL FREE ENERGY PREDICTED BY IDOCK:   -4.43 KCAL/MOL
REMARK 923 INTER-LIGAND FREE ENERGY PREDICTED BY IDOCK:   -4.12 KCAL/MOL
REMARK 924 INTRA-LIGAND FREE ENERGY PREDICTED BY IDOCK:   -0.31 KCAL/MOL
REMARK 927      BINDING AFFINITY PREDICTED BY RF-SCORE:    0.00 PKD
ROOT
HETATM    1  C   UNL     1      -9.258   9.109  69.062  1.00  0.00    -0.143 C  
HETATM    2  C   UNL     1     -10.494   8.914  68.195  1.00  0.00    -0.202 C  
ENDROOT
BRANCH   2   3
HETATM    3  N   UNL     1     -10.700  10.041  67.311  1.00  0.00    -0.262 N  
HETATM    4  C   UNL     1     -10.062  10.210  66.119  1.00  0.00    -0.246 C  
HETATM    5  N   UNL     1     -10.433  11.423  65.590  1.00  0.00    -0.256 NA 
HETATM    6  O   UNL     1      -9.273   9.448  65.584  1.00  0.00    -0.193 OA 
HETATM    7  C   UNL     1     -11.320  12.147  66.461  1.00  0.00    -0.350 C  
HETATM    8  O   UNL     1     -12.137  11.296  68.618  1.00  0.00    -0.543 OA 
HETATM    9  C   UNL     1     -11.465  11.140  67.608  1.00  0.00    -0.250 C  
BRANCH   7  10
HETATM   10  C   UNL     1     -10.746  13.479  66.876  1.00  0.00    -0.274 A  
HETATM   11  C   UNL     1      -9.358  13.681  66.845  1.00  0.00    -0.261 A  
HETATM   12  C   UNL     1      -8.809  14.909  67.223  1.00  0.00    -0.216 A  
HETATM   13  C   UNL     1      -9.638  15.949  67.636  1.00  0.00    -0.221 A  
HETATM   14  C   UNL     1     -11.018  15.762  67.678  1.00  0.00    -0.302 A  
HETATM   15  C   UNL     1     -11.569  14.536  67.304  1.00  0.00    -0.405 A  
ENDBRANCH   7  10
ENDBRANCH   2   3
TORSDOF 2
ENDMDL
MODEL       90
REMARK 921   NORMALIZED FREE ENERGY PREDICTED BY IDOCK:   -3.84 KCAL/MOL
REMARK 922        TOTAL FREE ENERGY PREDICTED BY IDOCK:   -4.43 KCAL/MOL
REMARK 923 INTER-LIGAND FREE ENERGY PREDICTED BY IDOCK:   -4.16 KCAL/MOL
REMARK 924 INTRA-LIGAND FREE ENERGY PREDICTED BY IDOCK:   -0.27 KCAL/MOL
REMARK 927      BINDING AFFINITY PREDICTED BY RF-SCORE:    0.00 PKD
ROOT
HETATM    1  C   UNL     1     -10.016  16.121  67.941  1.00  0.00    -0.239 C  
HETATM    2  C   UNL     1      -9.617  14.795  68.571  1.00  0.00    -0.218 C  
ENDROOT
BRANCH   2   3
HETATM    3  N   UNL     1     -10.459  13.714  68.107  1.00  0.00    -0.240 N  
HETATM    4  C   UNL     1     -11.604  13.310  68.726  1.00  0.00    -0.312 C  
HETATM    5  N   UNL     1     -12.098  12.212  68.065  1.00  0.00    -0.444 NA 
HETATM    6  O   UNL     1     -12.127  13.802  69.713  1.00  0.00    -0.315 OA 
HETATM    7  C   UNL     1     -11.247  11.804  66.979  1.00  0.00    -0.322 C  
HETATM    8  O   UNL     1      -9.180  12.967  66.331  1.00  0.00    -0.221 OA 
HETATM    9  C   UNL     1     -10.156  12.879  67.063  1.00  0.00    -0.245 C  
BRANCH   7  10
HETATM   10  C   UNL     1     -10.740  10.394  67.155  1.00  0.00    -0.316 A  
HETATM   11  C   UNL     1     -10.150   9.723  66.072  1.00  0.00    -0.322 A  
HETATM   12  C   UNL     1      -9.673   8.419  66.217  1.00  0.00    -0.278 A  
HETATM   13  C   UNL     1      -9.779   7.767  67.444  1.00  0.00    -0.211 A  
HETATM   14  C   UNL     1     -10.367   8.416  68.526  1.00  0.00    -0.232 A  
HETATM   15  C   UNL     1     -10.847   9.719  68.384  1.00  0.00    -0.244 A  
ENDBRANCH   7  10
ENDBRANCH   2   3
TORSDOF 2
ENDMDL
MODEL       91
REMARK 921   NORMALIZED FREE ENERGY PREDICTED BY IDOCK:   -3.84 KCAL/MOL
REMARK 922        TOTAL FREE ENERGY PREDICTED BY IDOCK:   -4.43 KCAL/MOL
REMARK 923 INTER-LIGAND FREE ENERGY PREDICTED BY IDOCK:   -4.23 KCAL/MOL
REMARK 924 INTRA-LIGAND FREE ENERGY PREDICTED BY IDOCK:   -0.20 KCAL/MOL
REMARK 927      BINDING AFFINITY PREDICTED BY RF-SCORE:    0.00 PKD
ROOT
HETATM    1  C   UNL     1      -7.312   7.454  67.653  1.00  0.00    -0.092 C  
HETATM    2  C   UNL     1      -7.871   8.161  66.426  1.00  0.00    -0.093 C  
ENDROOT
BRANCH   2   3
HETATM    3  N   UNL     1      -8.963   9.043  66.778  1.00  0.00    -0.132 N  
HETATM    4  C   UNL     1     -10.241   8.630  67.011  1.00  0.00    -0.290 C  
HETATM    5  N   UNL     1     -11.027   9.735  67.231  1.00  0.00    -0.172 NA 
HETATM    6  O   UNL     1     -10.662   7.485  67.015  1.00  0.00    -0.346 OA 
HETATM    7  C   UNL     1     -10.287  10.962  67.100  1.00  0.00    -0.220 C  
HETATM    8  O   UNL     1      -7.883  11.081  66.603  1.00  0.00    -0.141 OA 
HETATM    9  C   UNL     1      -8.888  10.412  66.800  1.00  0.00    -0.130 C  
BRANCH   7  10
HETATM   10  C   UNL     1     -10.849  11.849  66.017  1.00  0.00    -0.342 A  
HETATM   11  C   UNL     1     -10.502  11.620  64.676  1.00  0.00    -0.354 A  
HETATM   12  C   UNL     1     -11.015  12.429  63.660  1.00  0.00    -0.525 A  
HETATM   13  C   UNL     1     -11.878  13.478  63.968  1.00  0.00    -0.476 A  
HETATM   14  C   UNL     1     -12.227  13.723  65.294  1.00  0.00    -0.461 A  
HETATM   15  C   UNL     1     -11.714  12.917  66.312  1.00  0.00    -0.457 A  
ENDBRANCH   7  10
ENDBRANCH   2   3
TORSDOF 2
ENDMDL
MODEL       92
REMARK 921   NORMALIZED FREE ENERGY PREDICTED BY IDOCK:   -3.83 KCAL/MOL
REMARK 922        TOTAL FREE ENERGY PREDICTED BY IDOCK:   -4.42 KCAL/MOL
REMARK 923 INTER-LIGAND FREE ENERGY PREDICTED BY IDOCK:   -4.25 KCAL/MOL
REMARK 924 INTRA-LIGAND FREE ENERGY PREDICTED BY IDOCK:   -0.17 KCAL/MOL
REMARK 927      BINDING AFFINITY PREDICTED BY RF-SCORE:    0.00 PKD
ROOT
HETATM    1  C   UNL     1     -10.451  16.108  65.615  1.00  0.00    -0.402 C  
HETATM    2  C   UNL     1     -11.297  15.067  66.334  1.00  0.00    -0.275 C  
ENDROOT
BRANCH   2   3
HETATM    3  N   UNL     1     -10.960  13.727  65.906  1.00  0.00    -0.282 N  
HETATM    4  C   UNL     1     -11.808  12.896  65.238  1.00  0.00    -0.392 C  
HETATM    5  N   UNL     1     -11.191  11.680  65.069  1.00  0.00    -0.252 NA 
HETATM    6  O   UNL     1     -12.939  13.143  64.852  1.00  0.00    -0.734 OA 
HETATM    7  C   UNL     1      -9.890  11.642  65.681  1.00  0.00    -0.240 C  
HETATM    8  O   UNL     1      -8.852  13.545  66.841  1.00  0.00    -0.227 OA 
HETATM    9  C   UNL     1      -9.797  13.073  66.223  1.00  0.00    -0.278 C  
BRANCH   7  10
HETATM   10  C   UNL     1      -9.792  10.572  66.740  1.00  0.00    -0.237 A  
HETATM   11  C   UNL     1     -10.472  10.730  67.958  1.00  0.00    -0.225 A  
HETATM   12  C   UNL     1     -10.395   9.748  68.948  1.00  0.00    -0.225 A  
HETATM   13  C   UNL     1      -9.639   8.598  68.737  1.00  0.00    -0.157 A  
HETATM   14  C   UNL     1      -8.953   8.429  67.536  1.00  0.00    -0.142 A  
HETATM   15  C   UNL     1      -9.026   9.409  66.546  1.00  0.00    -0.176 A  
ENDBRANCH   7  10
ENDBRANCH   2   3
TORSDOF 2
ENDMDL
MODEL       93
REMARK 921   NORMALIZED FREE ENERGY PREDICTED BY IDOCK:   -3.81 KCAL/MOL
REMARK 922        TOTAL FREE ENERGY PREDICTED BY IDOCK:   -4.39 KCAL/MOL
REMARK 923 INTER-LIGAND FREE ENERGY PREDICTED BY IDOCK:   -4.32 KCAL/MOL
REMARK 924 INTRA-LIGAND FREE ENERGY PREDICTED BY IDOCK:   -0.08 KCAL/MOL
REMARK 927      BINDING AFFINITY PREDICTED BY RF-SCORE:    0.00 PKD
ROOT
HETATM    1  C   UNL     1      -9.202   8.897  65.198  1.00  0.00    -0.100 C  
HETATM    2  C   UNL     1      -9.629  10.349  65.036  1.00  0.00    -0.280 C  
ENDROOT
BRANCH   2   3
HETATM    3  N   UNL     1      -9.639  11.041  66.306  1.00  0.00    -0.194 N  
HETATM    4  C   UNL     1      -8.563  11.144  67.135  1.00  0.00    -0.139 C  
HETATM    5  N   UNL     1      -8.953  11.789  68.284  1.00  0.00    -0.177 NA 
HETATM    6  O   UNL     1      -7.431  10.733  66.938  1.00  0.00    -0.107 OA 
HETATM    7  C   UNL     1     -10.357  12.103  68.281  1.00  0.00    -0.212 C  
HETATM    8  O   UNL     1     -11.879  11.608  66.416  1.00  0.00    -0.470 OA 
HETATM    9  C   UNL     1     -10.756  11.572  66.899  1.00  0.00    -0.263 C  
BRANCH   7  10
HETATM   10  C   UNL     1     -11.086  11.451  69.429  1.00  0.00    -0.301 A  
HETATM   11  C   UNL     1     -12.064  12.170  70.135  1.00  0.00    -0.368 A  
HETATM   12  C   UNL     1     -12.751  11.581  71.198  1.00  0.00    -0.458 A  
HETATM   13  C   UNL     1     -12.472  10.268  71.571  1.00  0.00    -0.524 A  
HETATM   14  C   UNL     1     -11.501   9.543  70.885  1.00  0.00    -0.405 A  
HETATM   15  C   UNL     1     -10.810  10.130  69.823  1.00  0.00    -0.320 A  
ENDBRANCH   7  10
ENDBRANCH   2   3
TORSDOF 2
ENDMDL
MODEL       94
REMARK 921   NORMALIZED FREE ENERGY PREDICTED BY IDOCK:   -3.80 KCAL/MOL
REMARK 922        TOTAL FREE ENERGY PREDICTED BY IDOCK:   -4.38 KCAL/MOL
REMARK 923 INTER-LIGAND FREE ENERGY PREDICTED BY IDOCK:   -4.06 KCAL/MOL
REMARK 924 INTRA-LIGAND FREE ENERGY PREDICTED BY IDOCK:   -0.32 KCAL/MOL
REMARK 927      BINDING AFFINITY PREDICTED BY RF-SCORE:    0.00 PKD
ROOT
HETATM    1  C   UNL     1     -12.014   6.927  71.586  1.00  0.00    -0.379 C  
HETATM    2  C   UNL     1     -10.575   6.608  71.207  1.00  0.00    -0.223 C  
ENDROOT
BRANCH   2   3
HETATM    3  N   UNL     1      -9.935   7.736  70.567  1.00  0.00    -0.187 N  
HETATM    4  C   UNL     1      -9.270   8.723  71.232  1.00  0.00    -0.241 C  
HETATM    5  N   UNL     1      -8.867   9.671  70.323  1.00  0.00    -0.233 NA 
HETATM    6  O   UNL     1      -9.061   8.799  72.431  1.00  0.00    -0.366 OA 
HETATM    7  C   UNL     1      -9.306   9.364  68.988  1.00  0.00    -0.153 C  
HETATM    8  O   UNL     1     -10.574   7.349  68.378  1.00  0.00    -0.198 OA 
HETATM    9  C   UNL     1     -10.019   8.029  69.230  1.00  0.00    -0.191 C  
BRANCH   7  10
HETATM   10  C   UNL     1     -10.193  10.445  68.420  1.00  0.00    -0.186 A  
HETATM   11  C   UNL     1     -10.935  11.265  69.284  1.00  0.00    -0.297 A  
HETATM   12  C   UNL     1     -11.759  12.272  68.776  1.00  0.00    -0.390 A  
HETATM   13  C   UNL     1     -11.854  12.472  67.401  1.00  0.00    -0.381 A  
HETATM   14  C   UNL     1     -11.129  11.662  66.530  1.00  0.00    -0.357 A  
HETATM   15  C   UNL     1     -10.307  10.654  67.034  1.00  0.00    -0.280 A  
ENDBRANCH   7  10
ENDBRANCH   2   3
TORSDOF 2
ENDMDL
MODEL       95
REMARK 921   NORMALIZED FREE ENERGY PREDICTED BY IDOCK:   -3.78 KCAL/MOL
REMARK 922        TOTAL FREE ENERGY PREDICTED BY IDOCK:   -4.35 KCAL/MOL
REMARK 923 INTER-LIGAND FREE ENERGY PREDICTED BY IDOCK:   -4.08 KCAL/MOL
REMARK 924 INTRA-LIGAND FREE ENERGY PREDICTED BY IDOCK:   -0.27 KCAL/MOL
REMARK 927      BINDING AFFINITY PREDICTED BY RF-SCORE:    0.00 PKD
ROOT
HETATM    1  C   UNL     1      -9.436   4.697  65.457  1.00  0.00    -0.178 C  
HETATM    2  C   UNL     1     -10.630   5.024  66.342  1.00  0.00    -0.261 C  
ENDROOT
BRANCH   2   3
HETATM    3  N   UNL     1     -10.215   5.663  67.572  1.00  0.00    -0.182 N  
HETATM    4  C   UNL     1      -9.712   5.001  68.652  1.00  0.00    -0.158 C  
HETATM    5  N   UNL     1      -9.507   5.905  69.666  1.00  0.00    -0.141 NA 
HETATM    6  O   UNL     1      -9.482   3.807  68.750  1.00  0.00    -0.161 OA 
HETATM    7  C   UNL     1      -9.927   7.232  69.303  1.00  0.00    -0.170 C  
HETATM    8  O   UNL     1     -10.843   7.839  67.104  1.00  0.00    -0.313 OA 
HETATM    9  C   UNL     1     -10.389   6.992  67.861  1.00  0.00    -0.199 C  
BRANCH   7  10
HETATM   10  C   UNL     1     -11.005   7.757  70.219  1.00  0.00    -0.252 A  
HETATM   11  C   UNL     1     -10.997   9.106  70.605  1.00  0.00    -0.319 A  
HETATM   12  C   UNL     1     -11.989   9.610  71.450  1.00  0.00    -0.480 A  
HETATM   13  C   UNL     1     -12.999   8.774  71.920  1.00  0.00    -0.421 A  
HETATM   14  C   UNL     1     -13.018   7.431  71.550  1.00  0.00    -0.421 A  
HETATM   15  C   UNL     1     -12.026   6.925  70.708  1.00  0.00    -0.424 A  
ENDBRANCH   7  10
ENDBRANCH   2   3
TORSDOF 2
ENDMDL
MODEL       96
REMARK 921   NORMALIZED FREE ENERGY PREDICTED BY IDOCK:   -3.73 KCAL/MOL
REMARK 922        TOTAL FREE ENERGY PREDICTED BY IDOCK:   -4.30 KCAL/MOL
REMARK 923 INTER-LIGAND FREE ENERGY PREDICTED BY IDOCK:   -4.04 KCAL/MOL
REMARK 924 INTRA-LIGAND FREE ENERGY PREDICTED BY IDOCK:   -0.25 KCAL/MOL
REMARK 927      BINDING AFFINITY PREDICTED BY RF-SCORE:    0.00 PKD
ROOT
HETATM    1  C   UNL     1     -12.579  12.280  64.352  1.00  0.00    -0.447 C  
HETATM    2  C   UNL     1     -12.660  13.374  65.406  1.00  0.00    -0.475 C  
ENDROOT
BRANCH   2   3
HETATM    3  N   UNL     1     -11.468  13.406  66.225  1.00  0.00    -0.314 N  
HETATM    4  C   UNL     1     -10.318  14.054  65.886  1.00  0.00    -0.318 C  
HETATM    5  N   UNL     1      -9.371  13.804  66.849  1.00  0.00    -0.253 NA 
HETATM    6  O   UNL     1     -10.116  14.737  64.895  1.00  0.00    -0.352 OA 
HETATM    7  C   UNL     1      -9.857  12.913  67.869  1.00  0.00    -0.227 C  
HETATM    8  O   UNL     1     -12.134  11.991  67.929  1.00  0.00    -0.531 OA 
HETATM    9  C   UNL     1     -11.294  12.692  67.383  1.00  0.00    -0.313 C  
BRANCH   7  10
HETATM   10  C   UNL     1      -9.033  11.652  67.960  1.00  0.00    -0.176 A  
HETATM   11  C   UNL     1      -8.046  11.392  66.998  1.00  0.00    -0.157 A  
HETATM   12  C   UNL     1      -7.272  10.231  67.068  1.00  0.00    -0.091 A  
HETATM   13  C   UNL     1      -7.475   9.316  68.098  1.00  0.00    -0.083 A  
HETATM   14  C   UNL     1      -8.455   9.556  69.057  1.00  0.00    -0.128 A  
HETATM   15  C   UNL     1      -9.231  10.714  68.989  1.00  0.00    -0.177 A  
ENDBRANCH   7  10
ENDBRANCH   2   3
TORSDOF 2
ENDMDL
MODEL       97
REMARK 921   NORMALIZED FREE ENERGY PREDICTED BY IDOCK:   -3.72 KCAL/MOL
REMARK 922        TOTAL FREE ENERGY PREDICTED BY IDOCK:   -4.30 KCAL/MOL
REMARK 923 INTER-LIGAND FREE ENERGY PREDICTED BY IDOCK:   -4.12 KCAL/MOL
REMARK 924 INTRA-LIGAND FREE ENERGY PREDICTED BY IDOCK:   -0.18 KCAL/MOL
REMARK 927      BINDING AFFINITY PREDICTED BY RF-SCORE:    0.00 PKD
ROOT
HETATM    1  C   UNL     1      -7.352  14.352  68.813  1.00  0.00    -0.131 C  
HETATM    2  C   UNL     1      -7.839  14.028  67.408  1.00  0.00    -0.170 C  
ENDROOT
BRANCH   2   3
HETATM    3  N   UNL     1      -9.115  13.346  67.436  1.00  0.00    -0.205 N  
HETATM    4  C   UNL     1     -10.311  13.941  67.169  1.00  0.00    -0.265 C  
HETATM    5  N   UNL     1     -11.314  13.024  67.372  1.00  0.00    -0.289 NA 
HETATM    6  O   UNL     1     -10.506  15.095  66.823  1.00  0.00    -0.272 OA 
HETATM    7  C   UNL     1     -10.808  11.762  67.843  1.00  0.00    -0.211 C  
HETATM    8  O   UNL     1      -8.424  11.270  68.187  1.00  0.00    -0.132 OA 
HETATM    9  C   UNL     1      -9.303  12.053  67.853  1.00  0.00    -0.190 C  
BRANCH   7  10
HETATM   10  C   UNL     1     -11.375  11.391  69.190  1.00  0.00    -0.353 A  
HETATM   11  C   UNL     1     -11.130  10.116  69.725  1.00  0.00    -0.328 A  
HETATM   12  C   UNL     1     -11.645   9.757  70.972  1.00  0.00    -0.455 A  
HETATM   13  C   UNL     1     -12.411  10.663  71.701  1.00  0.00    -0.416 A  
HETATM   14  C   UNL     1     -12.669  11.929  71.182  1.00  0.00    -0.384 A  
HETATM   15  C   UNL     1     -12.158  12.291  69.935  1.00  0.00    -0.319 A  
ENDBRANCH   7  10
ENDBRANCH   2   3
TORSDOF 2
ENDMDL
MODEL       98
REMARK 921   NORMALIZED FREE ENERGY PREDICTED BY IDOCK:   -3.72 KCAL/MOL
REMARK 922        TOTAL FREE ENERGY PREDICTED BY IDOCK:   -4.29 KCAL/MOL
REMARK 923 INTER-LIGAND FREE ENERGY PREDICTED BY IDOCK:   -4.22 KCAL/MOL
REMARK 924 INTRA-LIGAND FREE ENERGY PREDICTED BY IDOCK:   -0.07 KCAL/MOL
REMARK 927      BINDING AFFINITY PREDICTED BY RF-SCORE:    0.00 PKD
ROOT
HETATM    1  C   UNL     1     -10.085   5.002  67.194  1.00  0.00    -0.239 C  
HETATM    2  C   UNL     1     -10.997   6.220  67.229  1.00  0.00    -0.366 C  
ENDROOT
BRANCH   2   3
HETATM    3  N   UNL     1     -10.629   7.123  68.298  1.00  0.00    -0.202 N  
HETATM    4  C   UNL     1     -10.921   6.919  69.613  1.00  0.00    -0.259 C  
HETATM    5  N   UNL     1     -10.501   8.012  70.331  1.00  0.00    -0.214 NA 
HETATM    6  O   UNL     1     -11.477   5.953  70.109  1.00  0.00    -0.288 OA 
HETATM    7  C   UNL     1      -9.941   9.034  69.488  1.00  0.00    -0.191 C  
HETATM    8  O   UNL     1      -9.700   8.835  67.049  1.00  0.00    -0.167 OA 
HETATM    9  C   UNL     1     -10.053   8.355  68.118  1.00  0.00    -0.200 C  
BRANCH   7  10
HETATM   10  C   UNL     1     -10.696  10.336  69.596  1.00  0.00    -0.299 A  
HETATM   11  C   UNL     1     -11.669  10.498  70.595  1.00  0.00    -0.453 A  
HETATM   12  C   UNL     1     -12.376  11.697  70.712  1.00  0.00    -0.454 A  
HETATM   13  C   UNL     1     -12.121  12.748  69.835  1.00  0.00    -0.329 A  
HETATM   14  C   UNL     1     -11.163  12.601  68.834  1.00  0.00    -0.329 A  
HETATM   15  C   UNL     1     -10.458  11.403  68.713  1.00  0.00    -0.228 A  
ENDBRANCH   7  10
ENDBRANCH   2   3
TORSDOF 2
ENDMDL
MODEL       99
REMARK 921   NORMALIZED FREE ENERGY PREDICTED BY IDOCK:   -3.72 KCAL/MOL
REMARK 922        TOTAL FREE ENERGY PREDICTED BY IDOCK:   -4.29 KCAL/MOL
REMARK 923 INTER-LIGAND FREE ENERGY PREDICTED BY IDOCK:   -4.03 KCAL/MOL
REMARK 924 INTRA-LIGAND FREE ENERGY PREDICTED BY IDOCK:   -0.26 KCAL/MOL
REMARK 927      BINDING AFFINITY PREDICTED BY RF-SCORE:    0.00 PKD
ROOT
HETATM    1  C   UNL     1     -10.505  16.751  66.956  1.00  0.00    -0.285 C  
HETATM    2  C   UNL     1     -11.281  15.712  67.752  1.00  0.00    -0.297 C  
ENDROOT
BRANCH   2   3
HETATM    3  N   UNL     1     -10.870  14.368  67.408  1.00  0.00    -0.287 N  
HETATM    4  C   UNL     1     -11.609  13.506  66.655  1.00  0.00    -0.363 C  
HETATM    5  N   UNL     1     -10.957  12.298  66.600  1.00  0.00    -0.265 NA 
HETATM    6  O   UNL     1     -12.683  13.724  66.117  1.00  0.00    -0.407 OA 
HETATM    7  C   UNL     1      -9.747  12.299  67.379  1.00  0.00    -0.185 C  
HETATM    8  O   UNL     1      -8.901  14.248  68.616  1.00  0.00    -0.183 OA 
HETATM    9  C   UNL     1      -9.748  13.744  67.892  1.00  0.00    -0.229 C  
BRANCH   7  10
HETATM   10  C   UNL     1      -9.774  11.256  68.469  1.00  0.00    -0.199 A  
HETATM   11  C   UNL     1     -10.919  11.109  69.268  1.00  0.00    -0.300 A  
HETATM   12  C   UNL     1     -10.962  10.147  70.279  1.00  0.00    -0.380 A  
HETATM   13  C   UNL     1      -9.864   9.321  70.507  1.00  0.00    -0.310 A  
HETATM   14  C   UNL     1      -8.718   9.458  69.727  1.00  0.00    -0.189 A  
HETATM   15  C   UNL     1      -8.671  10.420  68.717  1.00  0.00    -0.146 A  
ENDBRANCH   7  10
ENDBRANCH   2   3
TORSDOF 2
ENDMDL
MODEL      100
REMARK 921   NORMALIZED FREE ENERGY PREDICTED BY IDOCK:   -3.72 KCAL/MOL
REMARK 922        TOTAL FREE ENERGY PREDICTED BY IDOCK:   -4.29 KCAL/MOL
REMARK 923 INTER-LIGAND FREE ENERGY PREDICTED BY IDOCK:   -4.17 KCAL/MOL
REMARK 924 INTRA-LIGAND FREE ENERGY PREDICTED BY IDOCK:   -0.11 KCAL/MOL
REMARK 927      BINDING AFFINITY PREDICTED BY RF-SCORE:    0.00 PKD
ROOT
HETATM    1  C   UNL     1     -12.292  14.384  64.359  1.00  0.00    -0.428 C  
HETATM    2  C   UNL     1     -12.364  14.199  65.868  1.00  0.00    -0.463 C  
ENDROOT
BRANCH   2   3
HETATM    3  N   UNL     1     -11.169  13.564  66.379  1.00  0.00    -0.303 N  
HETATM    4  C   UNL     1      -9.909  14.059  66.228  1.00  0.00    -0.305 C  
HETATM    5  N   UNL     1      -9.016  13.160  66.760  1.00  0.00    -0.210 NA 
HETATM    6  O   UNL     1      -9.582  15.110  65.701  1.00  0.00    -0.334 OA 
HETATM    7  C   UNL     1      -9.667  11.976  67.254  1.00  0.00    -0.185 C  
HETATM    8  O   UNL     1     -12.099  11.618  67.217  1.00  0.00    -0.595 OA 
HETATM    9  C   UNL     1     -11.133  12.326  66.970  1.00  0.00    -0.287 C  
BRANCH   7  10
HETATM   10  C   UNL     1      -9.183  10.729  66.556  1.00  0.00    -0.187 A  
HETATM   11  C   UNL     1      -8.532   9.725  67.290  1.00  0.00    -0.125 A  
HETATM   12  C   UNL     1      -8.080   8.563  66.661  1.00  0.00    -0.104 A  
HETATM   13  C   UNL     1      -8.270   8.388  65.293  1.00  0.00    -0.151 A  
HETATM   14  C   UNL     1      -8.909   9.378  64.549  1.00  0.00    -0.235 A  
HETATM   15  C   UNL     1      -9.359  10.541  65.174  1.00  0.00    -0.262 A  
ENDBRANCH   7  10
ENDBRANCH   2   3
TORSDOF 2
ENDMDL
MODEL      101
REMARK 921   NORMALIZED FREE ENERGY PREDICTED BY IDOCK:   -3.71 KCAL/MOL
REMARK 922        TOTAL FREE ENERGY PREDICTED BY IDOCK:   -4.28 KCAL/MOL
REMARK 923 INTER-LIGAND FREE ENERGY PREDICTED BY IDOCK:   -4.11 KCAL/MOL
REMARK 924 INTRA-LIGAND FREE ENERGY PREDICTED BY IDOCK:   -0.17 KCAL/MOL
REMARK 927      BINDING AFFINITY PREDICTED BY RF-SCORE:    0.00 PKD
ROOT
HETATM    1  C   UNL     1     -12.783  10.274  71.152  1.00  0.00    -0.502 C  
HETATM    2  C   UNL     1     -11.651   9.401  70.630  1.00  0.00    -0.269 C  
ENDROOT
BRANCH   2   3
HETATM    3  N   UNL     1     -11.138   8.529  71.664  1.00  0.00    -0.269 N  
HETATM    4  C   UNL     1      -9.866   8.576  72.150  1.00  0.00    -0.318 C  
HETATM    5  N   UNL     1      -9.701   7.555  73.054  1.00  0.00    -0.201 NA 
HETATM    6  O   UNL     1      -8.985   9.365  71.847  1.00  0.00    -0.170 OA 
HETATM    7  C   UNL     1     -10.879   6.737  73.168  1.00  0.00    -0.284 C  
HETATM    8  O   UNL     1     -12.971   7.146  71.944  1.00  0.00    -0.312 OA 
HETATM    9  C   UNL     1     -11.818   7.466  72.200  1.00  0.00    -0.286 C  
BRANCH   7  10
HETATM   10  C   UNL     1     -10.609   5.299  72.802  1.00  0.00    -0.276 A  
HETATM   11  C   UNL     1      -9.770   5.000  71.717  1.00  0.00    -0.218 A  
HETATM   12  C   UNL     1      -9.506   3.674  71.366  1.00  0.00    -0.227 A  
HETATM   13  C   UNL     1     -10.076   2.631  72.092  1.00  0.00    -0.213 A  
HETATM   14  C   UNL     1     -10.915   2.910  73.168  1.00  0.00    -0.208 A  
HETATM   15  C   UNL     1     -11.182   4.234  73.520  1.00  0.00    -0.361 A  
ENDBRANCH   7  10
ENDBRANCH   2   3
TORSDOF 2
ENDMDL
MODEL      102
REMARK 921   NORMALIZED FREE ENERGY PREDICTED BY IDOCK:   -3.69 KCAL/MOL
REMARK 922        TOTAL FREE ENERGY PREDICTED BY IDOCK:   -4.26 KCAL/MOL
REMARK 923 INTER-LIGAND FREE ENERGY PREDICTED BY IDOCK:   -4.16 KCAL/MOL
REMARK 924 INTRA-LIGAND FREE ENERGY PREDICTED BY IDOCK:   -0.10 KCAL/MOL
REMARK 927      BINDING AFFINITY PREDICTED BY RF-SCORE:    0.00 PKD
ROOT
HETATM    1  C   UNL     1      -8.259   5.809  73.846  1.00  0.00    -0.109 C  
HETATM    2  C   UNL     1      -7.760   6.077  72.434  1.00  0.00    -0.101 C  
ENDROOT
BRANCH   2   3
HETATM    3  N   UNL     1      -8.628   6.999  71.734  1.00  0.00    -0.115 N  
HETATM    4  C   UNL     1      -8.445   8.349  71.696  1.00  0.00    -0.163 C  
HETATM    5  N   UNL     1      -9.498   8.916  71.019  1.00  0.00    -0.229 NA 
HETATM    6  O   UNL     1      -7.527   8.988  72.182  1.00  0.00    -0.339 OA 
HETATM    7  C   UNL     1     -10.472   7.939  70.613  1.00  0.00    -0.213 C  
HETATM    8  O   UNL     1     -10.260   5.524  71.020  1.00  0.00    -0.202 OA 
HETATM    9  C   UNL     1      -9.808   6.656  71.126  1.00  0.00    -0.181 C  
BRANCH   7  10
HETATM   10  C   UNL     1     -11.831   8.212  71.208  1.00  0.00    -0.317 A  
HETATM   11  C   UNL     1     -12.102   9.461  71.788  1.00  0.00    -0.454 A  
HETATM   12  C   UNL     1     -13.356   9.733  72.340  1.00  0.00    -0.374 A  
HETATM   13  C   UNL     1     -14.354   8.761  72.322  1.00  0.00    -0.468 A  
HETATM   14  C   UNL     1     -14.099   7.515  71.756  1.00  0.00    -0.509 A  
HETATM   15  C   UNL     1     -12.847   7.240  71.205  1.00  0.00    -0.391 A  
ENDBRANCH   7  10
ENDBRANCH   2   3
TORSDOF 2
ENDMDL
MODEL      103
REMARK 921   NORMALIZED FREE ENERGY PREDICTED BY IDOCK:   -3.67 KCAL/MOL
REMARK 922        TOTAL FREE ENERGY PREDICTED BY IDOCK:   -4.23 KCAL/MOL
REMARK 923 INTER-LIGAND FREE ENERGY PREDICTED BY IDOCK:   -3.91 KCAL/MOL
REMARK 924 INTRA-LIGAND FREE ENERGY PREDICTED BY IDOCK:   -0.32 KCAL/MOL
REMARK 927      BINDING AFFINITY PREDICTED BY RF-SCORE:    0.00 PKD
ROOT
HETATM    1  C   UNL     1      -8.966   8.086  67.535  1.00  0.00    -0.143 C  
HETATM    2  C   UNL     1     -10.413   8.542  67.655  1.00  0.00    -0.241 C  
ENDROOT
BRANCH   2   3
HETATM    3  N   UNL     1     -10.776   8.786  69.034  1.00  0.00    -0.166 N  
HETATM    4  C   UNL     1     -10.722  10.005  69.640  1.00  0.00    -0.255 C  
HETATM    5  N   UNL     1     -11.052   9.853  70.965  1.00  0.00    -0.351 NA 
HETATM    6  O   UNL     1     -10.420  11.073  69.134  1.00  0.00    -0.217 OA 
HETATM    7  C   UNL     1     -11.297   8.478  71.309  1.00  0.00    -0.271 C  
HETATM    8  O   UNL     1     -11.202   6.615  69.708  1.00  0.00    -0.315 OA 
HETATM    9  C   UNL     1     -11.099   7.811  69.943  1.00  0.00    -0.136 C  
BRANCH   7  10
HETATM   10  C   UNL     1     -10.355   7.985  72.380  1.00  0.00    -0.355 A  
HETATM   11  C   UNL     1     -10.813   7.079  73.350  1.00  0.00    -0.332 A  
HETATM   12  C   UNL     1      -9.954   6.610  74.347  1.00  0.00    -0.359 A  
HETATM   13  C   UNL     1      -8.629   7.039  74.389  1.00  0.00    -0.212 A  
HETATM   14  C   UNL     1      -8.162   7.942  73.437  1.00  0.00    -0.246 A  
HETATM   15  C   UNL     1      -9.018   8.415  72.441  1.00  0.00    -0.309 A  
ENDBRANCH   7  10
ENDBRANCH   2   3
TORSDOF 2
ENDMDL
MODEL      104
REMARK 921   NORMALIZED FREE ENERGY PREDICTED BY IDOCK:   -3.66 KCAL/MOL
REMARK 922        TOTAL FREE ENERGY PREDICTED BY IDOCK:   -4.23 KCAL/MOL
REMARK 923 INTER-LIGAND FREE ENERGY PREDICTED BY IDOCK:   -3.87 KCAL/MOL
REMARK 924 INTRA-LIGAND FREE ENERGY PREDICTED BY IDOCK:   -0.36 KCAL/MOL
REMARK 927      BINDING AFFINITY PREDICTED BY RF-SCORE:    0.00 PKD
ROOT
HETATM    1  C   UNL     1     -11.524   9.990  71.106  1.00  0.00    -0.432 C  
HETATM    2  C   UNL     1     -11.019   9.272  69.863  1.00  0.00    -0.213 C  
ENDROOT
BRANCH   2   3
HETATM    3  N   UNL     1     -10.283  10.169  68.998  1.00  0.00    -0.194 N  
HETATM    4  C   UNL     1      -8.959  10.457  69.137  1.00  0.00    -0.179 C  
HETATM    5  N   UNL     1      -8.614  11.405  68.204  1.00  0.00    -0.147 NA 
HETATM    6  O   UNL     1      -8.178   9.990  69.951  1.00  0.00    -0.176 OA 
HETATM    7  C   UNL     1      -9.743  11.829  67.419  1.00  0.00    -0.178 C  
HETATM    8  O   UNL     1     -12.016  10.926  67.666  1.00  0.00    -0.512 OA 
HETATM    9  C   UNL     1     -10.842  10.939  68.010  1.00  0.00    -0.245 C  
BRANCH   7  10
HETATM   10  C   UNL     1     -10.005  13.308  67.557  1.00  0.00    -0.223 A  
HETATM   11  C   UNL     1      -9.828  14.155  66.451  1.00  0.00    -0.308 A  
HETATM   12  C   UNL     1     -10.069  15.527  66.560  1.00  0.00    -0.290 A  
HETATM   13  C   UNL     1     -10.489  16.070  67.772  1.00  0.00    -0.298 A  
HETATM   14  C   UNL     1     -10.663  15.244  68.880  1.00  0.00    -0.245 A  
HETATM   15  C   UNL     1     -10.421  13.874  68.775  1.00  0.00    -0.229 A  
ENDBRANCH   7  10
ENDBRANCH   2   3
TORSDOF 2
ENDMDL
MODEL      105
REMARK 921   NORMALIZED FREE ENERGY PREDICTED BY IDOCK:   -3.65 KCAL/MOL
REMARK 922        TOTAL FREE ENERGY PREDICTED BY IDOCK:   -4.21 KCAL/MOL
REMARK 923 INTER-LIGAND FREE ENERGY PREDICTED BY IDOCK:   -3.86 KCAL/MOL
REMARK 924 INTRA-LIGAND FREE ENERGY PREDICTED BY IDOCK:   -0.36 KCAL/MOL
REMARK 927      BINDING AFFINITY PREDICTED BY RF-SCORE:    0.00 PKD
ROOT
HETATM    1  C   UNL     1     -10.839   5.515  72.880  1.00  0.00    -0.312 C  
HETATM    2  C   UNL     1     -10.511   6.864  73.502  1.00  0.00    -0.352 C  
ENDROOT
BRANCH   2   3
HETATM    3  N   UNL     1     -10.533   7.921  72.514  1.00  0.00    -0.273 N  
HETATM    4  C   UNL     1     -11.647   8.623  72.162  1.00  0.00    -0.370 C  
HETATM    5  N   UNL     1     -11.322   9.481  71.140  1.00  0.00    -0.339 NA 
HETATM    6  O   UNL     1     -12.767   8.524  72.636  1.00  0.00    -0.341 OA 
HETATM    7  C   UNL     1      -9.950   9.342  70.730  1.00  0.00    -0.290 C  
HETATM    8  O   UNL     1      -8.346   7.797  71.771  1.00  0.00    -0.103 OA 
HETATM    9  C   UNL     1      -9.473   8.268  71.715  1.00  0.00    -0.209 C  
BRANCH   7  10
HETATM   10  C   UNL     1      -9.829   8.947  69.279  1.00  0.00    -0.176 A  
HETATM   11  C   UNL     1      -8.992   9.679  68.422  1.00  0.00    -0.123 A  
HETATM   12  C   UNL     1      -8.866   9.325  67.077  1.00  0.00    -0.135 A  
HETATM   13  C   UNL     1      -9.574   8.239  66.570  1.00  0.00    -0.312 A  
HETATM   14  C   UNL     1     -10.414   7.506  67.405  1.00  0.00    -0.367 A  
HETATM   15  C   UNL     1     -10.544   7.858  68.749  1.00  0.00    -0.154 A  
ENDBRANCH   7  10
ENDBRANCH   2   3
TORSDOF 2
ENDMDL
MODEL      106
REMARK 921   NORMALIZED FREE ENERGY PREDICTED BY IDOCK:   -3.65 KCAL/MOL
REMARK 922        TOTAL FREE ENERGY PREDICTED BY IDOCK:   -4.21 KCAL/MOL
REMARK 923 INTER-LIGAND FREE ENERGY PREDICTED BY IDOCK:   -4.11 KCAL/MOL
REMARK 924 INTRA-LIGAND FREE ENERGY PREDICTED BY IDOCK:   -0.10 KCAL/MOL
REMARK 927      BINDING AFFINITY PREDICTED BY RF-SCORE:    0.00 PKD
ROOT
HETATM    1  C   UNL     1      -6.241  13.124  69.671  1.00  0.00    -0.112 C  
HETATM    2  C   UNL     1      -6.870  13.609  68.373  1.00  0.00    -0.102 C  
ENDROOT
BRANCH   2   3
HETATM    3  N   UNL     1      -7.699  12.585  67.774  1.00  0.00    -0.129 N  
HETATM    4  C   UNL     1      -7.232  11.590  66.970  1.00  0.00    -0.146 C  
HETATM    5  N   UNL     1      -8.299  10.855  66.514  1.00  0.00    -0.149 NA 
HETATM    6  O   UNL     1      -6.072  11.364  66.666  1.00  0.00    -0.130 OA 
HETATM    7  C   UNL     1      -9.557  11.382  66.973  1.00  0.00    -0.176 C  
HETATM    8  O   UNL     1      -9.780  13.330  68.455  1.00  0.00    -0.224 OA 
HETATM    9  C   UNL     1      -9.069  12.553  67.833  1.00  0.00    -0.199 C  
BRANCH   7  10
HETATM   10  C   UNL     1     -10.454  11.786  65.829  1.00  0.00    -0.302 A  
HETATM   11  C   UNL     1     -10.140  11.388  64.521  1.00  0.00    -0.337 A  
HETATM   12  C   UNL     1     -10.961  11.750  63.451  1.00  0.00    -0.458 A  
HETATM   13  C   UNL     1     -12.104  12.515  63.673  1.00  0.00    -0.642 A  
HETATM   14  C   UNL     1     -12.426  12.923  64.965  1.00  0.00    -0.553 A  
HETATM   15  C   UNL     1     -11.606  12.564  66.036  1.00  0.00    -0.456 A  
ENDBRANCH   7  10
ENDBRANCH   2   3
TORSDOF 2
ENDMDL
MODEL      107
REMARK 921   NORMALIZED FREE ENERGY PREDICTED BY IDOCK:   -3.64 KCAL/MOL
REMARK 922        TOTAL FREE ENERGY PREDICTED BY IDOCK:   -4.20 KCAL/MOL
REMARK 923 INTER-LIGAND FREE ENERGY PREDICTED BY IDOCK:   -3.92 KCAL/MOL
REMARK 924 INTRA-LIGAND FREE ENERGY PREDICTED BY IDOCK:   -0.28 KCAL/MOL
REMARK 927      BINDING AFFINITY PREDICTED BY RF-SCORE:    0.00 PKD
ROOT
HETATM    1  C   UNL     1     -10.519  16.848  66.747  1.00  0.00    -0.260 C  
HETATM    2  C   UNL     1      -9.465  16.166  65.888  1.00  0.00    -0.302 C  
ENDROOT
BRANCH   2   3
HETATM    3  N   UNL     1      -8.132  16.421  66.387  1.00  0.00    -0.315 N  
HETATM    4  C   UNL     1      -7.461  15.602  67.245  1.00  0.00    -0.222 C  
HETATM    5  N   UNL     1      -6.265  16.193  67.573  1.00  0.00    -0.151 NA 
HETATM    6  O   UNL     1      -7.831  14.526  67.686  1.00  0.00    -0.148 OA 
HETATM    7  C   UNL     1      -6.115  17.488  66.966  1.00  0.00    -0.152 C  
HETATM    8  O   UNL     1      -7.769  18.509  65.461  1.00  0.00    -0.472 OA 
HETATM    9  C   UNL     1      -7.420  17.572  66.165  1.00  0.00    -0.299 C  
BRANCH   7  10
HETATM   10  C   UNL     1      -5.947  18.581  67.992  1.00  0.00    -0.188 A  
HETATM   11  C   UNL     1      -6.285  18.337  69.333  1.00  0.00    -0.261 A  
HETATM   12  C   UNL     1      -6.134  19.336  70.297  1.00  0.00    -0.200 A  
HETATM   13  C   UNL     1      -5.645  20.589  69.937  1.00  0.00    -0.381 A  
HETATM   14  C   UNL     1      -5.312  20.849  68.610  1.00  0.00    -0.370 A  
HETATM   15  C   UNL     1      -5.464  19.854  67.643  1.00  0.00    -0.196 A  
ENDBRANCH   7  10
ENDBRANCH   2   3
TORSDOF 2
ENDMDL
MODEL      108
REMARK 921   NORMALIZED FREE ENERGY PREDICTED BY IDOCK:   -3.63 KCAL/MOL
REMARK 922        TOTAL FREE ENERGY PREDICTED BY IDOCK:   -4.19 KCAL/MOL
REMARK 923 INTER-LIGAND FREE ENERGY PREDICTED BY IDOCK:   -3.87 KCAL/MOL
REMARK 924 INTRA-LIGAND FREE ENERGY PREDICTED BY IDOCK:   -0.32 KCAL/MOL
REMARK 927      BINDING AFFINITY PREDICTED BY RF-SCORE:    0.00 PKD
ROOT
HETATM    1  C   UNL     1     -13.246  11.492  71.903  1.00  0.00    -0.479 C  
HETATM    2  C   UNL     1     -13.075  10.270  71.014  1.00  0.00    -0.373 C  
ENDROOT
BRANCH   2   3
HETATM    3  N   UNL     1     -11.740  10.203  70.460  1.00  0.00    -0.299 N  
HETATM    4  C   UNL     1     -11.402  10.634  69.212  1.00  0.00    -0.282 C  
HETATM    5  N   UNL     1     -10.079  10.340  68.989  1.00  0.00    -0.201 NA 
HETATM    6  O   UNL     1     -12.125  11.177  68.393  1.00  0.00    -0.605 OA 
HETATM    7  C   UNL     1      -9.484   9.638  70.095  1.00  0.00    -0.253 C  
HETATM    8  O   UNL     1     -10.669   9.080  72.175  1.00  0.00    -0.332 OA 
HETATM    9  C   UNL     1     -10.672   9.589  71.063  1.00  0.00    -0.340 C  
BRANCH   7  10
HETATM   10  C   UNL     1      -8.959   8.283  69.691  1.00  0.00    -0.149 A  
HETATM   11  C   UNL     1      -7.592   7.995  69.823  1.00  0.00    -0.092 A  
HETATM   12  C   UNL     1      -7.090   6.744  69.457  1.00  0.00    -0.072 A  
HETATM   13  C   UNL     1      -7.944   5.766  68.953  1.00  0.00    -0.098 A  
HETATM   14  C   UNL     1      -9.303   6.038  68.810  1.00  0.00    -0.128 A  
HETATM   15  C   UNL     1      -9.807   7.288  69.173  1.00  0.00    -0.166 A  
ENDBRANCH   7  10
ENDBRANCH   2   3
TORSDOF 2
ENDMDL
MODEL      109
REMARK 921   NORMALIZED FREE ENERGY PREDICTED BY IDOCK:   -3.60 KCAL/MOL
REMARK 922        TOTAL FREE ENERGY PREDICTED BY IDOCK:   -4.16 KCAL/MOL
REMARK 923 INTER-LIGAND FREE ENERGY PREDICTED BY IDOCK:   -4.45 KCAL/MOL
REMARK 924 INTRA-LIGAND FREE ENERGY PREDICTED BY IDOCK:    0.29 KCAL/MOL
REMARK 927      BINDING AFFINITY PREDICTED BY RF-SCORE:    0.00 PKD
ROOT
HETATM    1  C   UNL     1     -12.242   7.765  71.145  1.00  0.00    -0.289 C  
HETATM    2  C   UNL     1     -11.133   8.728  71.543  1.00  0.00    -0.307 C  
ENDROOT
BRANCH   2   3
HETATM    3  N   UNL     1     -11.225   9.971  70.808  1.00  0.00    -0.334 N  
HETATM    4  C   UNL     1     -12.328  10.769  70.781  1.00  0.00    -0.383 C  
HETATM    5  N   UNL     1     -12.094  11.814  69.921  1.00  0.00    -0.303 NA 
HETATM    6  O   UNL     1     -13.375  10.610  71.387  1.00  0.00    -0.325 OA 
HETATM    7  C   UNL     1     -10.805  11.719  69.289  1.00  0.00    -0.133 C  
HETATM    8  O   UNL     1      -9.176   9.933  69.736  1.00  0.00    -0.213 OA 
HETATM    9  C   UNL     1     -10.266  10.444  69.949  1.00  0.00    -0.141 C  
BRANCH   7  10
HETATM   10  C   UNL     1     -10.914  11.639  67.786  1.00  0.00    -0.287 A  
HETATM   11  C   UNL     1     -11.722  12.555  67.094  1.00  0.00    -0.425 A  
HETATM   12  C   UNL     1     -11.832  12.497  65.703  1.00  0.00    -0.493 A  
HETATM   13  C   UNL     1     -11.140  11.525  64.986  1.00  0.00    -0.268 A  
HETATM   14  C   UNL     1     -10.339  10.604  65.658  1.00  0.00    -0.285 A  
HETATM   15  C   UNL     1     -10.229  10.658  67.048  1.00  0.00    -0.267 A  
ENDBRANCH   7  10
ENDBRANCH   2   3
TORSDOF 2
ENDMDL
MODEL      110
REMARK 921   NORMALIZED FREE ENERGY PREDICTED BY IDOCK:   -3.59 KCAL/MOL
REMARK 922        TOTAL FREE ENERGY PREDICTED BY IDOCK:   -4.14 KCAL/MOL
REMARK 923 INTER-LIGAND FREE ENERGY PREDICTED BY IDOCK:   -3.98 KCAL/MOL
REMARK 924 INTRA-LIGAND FREE ENERGY PREDICTED BY IDOCK:   -0.16 KCAL/MOL
REMARK 927      BINDING AFFINITY PREDICTED BY RF-SCORE:    0.00 PKD
ROOT
HETATM    1  C   UNL     1     -12.960  11.304  71.455  1.00  0.00    -0.520 C  
HETATM    2  C   UNL     1     -11.887  11.803  70.498  1.00  0.00    -0.192 C  
ENDROOT
BRANCH   2   3
HETATM    3  N   UNL     1     -11.402  10.737  69.648  1.00  0.00    -0.269 N  
HETATM    4  C   UNL     1     -10.684   9.666  70.090  1.00  0.00    -0.275 C  
HETATM    5  N   UNL     1     -10.319   8.904  69.007  1.00  0.00    -0.210 NA 
HETATM    6  O   UNL     1     -10.380   9.401  71.241  1.00  0.00    -0.317 OA 
HETATM    7  C   UNL     1     -10.751   9.485  67.764  1.00  0.00    -0.242 C  
HETATM    8  O   UNL     1     -12.051  11.564  67.587  1.00  0.00    -0.623 OA 
HETATM    9  C   UNL     1     -11.490  10.726  68.279  1.00  0.00    -0.280 C  
BRANCH   7  10
HETATM   10  C   UNL     1      -9.593   9.791  66.847  1.00  0.00    -0.228 A  
HETATM   11  C   UNL     1      -8.639  10.749  67.224  1.00  0.00    -0.130 A  
HETATM   12  C   UNL     1      -7.558  11.043  66.389  1.00  0.00    -0.135 A  
HETATM   13  C   UNL     1      -7.417  10.386  65.169  1.00  0.00    -0.093 A  
HETATM   14  C   UNL     1      -8.359   9.437  64.778  1.00  0.00    -0.159 A  
HETATM   15  C   UNL     1      -9.441   9.143  65.608  1.00  0.00    -0.309 A  
ENDBRANCH   7  10
ENDBRANCH   2   3
TORSDOF 2
ENDMDL
MODEL      111
REMARK 921   NORMALIZED FREE ENERGY PREDICTED BY IDOCK:   -3.55 KCAL/MOL
REMARK 922        TOTAL FREE ENERGY PREDICTED BY IDOCK:   -4.10 KCAL/MOL
REMARK 923 INTER-LIGAND FREE ENERGY PREDICTED BY IDOCK:   -3.97 KCAL/MOL
REMARK 924 INTRA-LIGAND FREE ENERGY PREDICTED BY IDOCK:   -0.13 KCAL/MOL
REMARK 927      BINDING AFFINITY PREDICTED BY RF-SCORE:    0.00 PKD
ROOT
HETATM    1  C   UNL     1     -10.072  13.756  65.686  1.00  0.00    -0.315 C  
HETATM    2  C   UNL     1      -9.299  13.525  66.976  1.00  0.00    -0.247 C  
ENDROOT
BRANCH   2   3
HETATM    3  N   UNL     1      -9.282  14.714  67.801  1.00  0.00    -0.192 N  
HETATM    4  C   UNL     1     -10.396  15.332  68.283  1.00  0.00    -0.234 C  
HETATM    5  N   UNL     1     -10.013  16.471  68.950  1.00  0.00    -0.250 NA 
HETATM    6  O   UNL     1     -11.556  14.978  68.154  1.00  0.00    -0.326 OA 
HETATM    7  C   UNL     1      -8.591  16.683  68.890  1.00  0.00    -0.235 C  
HETATM    8  O   UNL     1      -7.012  15.159  67.783  1.00  0.00    -0.136 OA 
HETATM    9  C   UNL     1      -8.159  15.442  68.100  1.00  0.00    -0.136 C  
BRANCH   7  10
HETATM   10  C   UNL     1      -8.241  17.992  68.226  1.00  0.00    -0.298 A  
HETATM   11  C   UNL     1      -7.566  18.986  68.953  1.00  0.00    -0.355 A  
HETATM   12  C   UNL     1      -7.231  20.202  68.353  1.00  0.00    -0.259 A  
HETATM   13  C   UNL     1      -7.565  20.442  67.023  1.00  0.00    -0.360 A  
HETATM   14  C   UNL     1      -8.239  19.469  66.289  1.00  0.00    -0.354 A  
HETATM   15  C   UNL     1      -8.578  18.254  66.886  1.00  0.00    -0.270 A  
ENDBRANCH   7  10
ENDBRANCH   2   3
TORSDOF 2
ENDMDL
MODEL      112
REMARK 921   NORMALIZED FREE ENERGY PREDICTED BY IDOCK:   -3.49 KCAL/MOL
REMARK 922        TOTAL FREE ENERGY PREDICTED BY IDOCK:   -4.04 KCAL/MOL
REMARK 923 INTER-LIGAND FREE ENERGY PREDICTED BY IDOCK:   -3.78 KCAL/MOL
REMARK 924 INTRA-LIGAND FREE ENERGY PREDICTED BY IDOCK:   -0.26 KCAL/MOL
REMARK 927      BINDING AFFINITY PREDICTED BY RF-SCORE:    0.00 PKD
ROOT
HETATM    1  C   UNL     1      -8.820   8.531  72.002  1.00  0.00    -0.286 C  
HETATM    2  C   UNL     1     -10.016   7.874  71.328  1.00  0.00    -0.176 C  
ENDROOT
BRANCH   2   3
HETATM    3  N   UNL     1     -10.512   8.679  70.233  1.00  0.00    -0.205 N  
HETATM    4  C   UNL     1     -10.107   8.551  68.938  1.00  0.00    -0.203 C  
HETATM    5  N   UNL     1     -10.717   9.527  68.188  1.00  0.00    -0.220 NA 
HETATM    6  O   UNL     1      -9.324   7.733  68.482  1.00  0.00    -0.147 OA 
HETATM    7  C   UNL     1     -11.535  10.397  68.990  1.00  0.00    -0.193 C  
HETATM    8  O   UNL     1     -11.865  10.138  71.412  1.00  0.00    -0.368 OA 
HETATM    9  C   UNL     1     -11.355   9.753  70.370  1.00  0.00    -0.297 C  
BRANCH   7  10
HETATM   10  C   UNL     1     -11.081  11.833  68.914  1.00  0.00    -0.297 A  
HETATM   11  C   UNL     1      -9.861  12.149  68.295  1.00  0.00    -0.212 A  
HETATM   12  C   UNL     1      -9.427  13.473  68.213  1.00  0.00    -0.212 A  
HETATM   13  C   UNL     1     -10.202  14.499  68.748  1.00  0.00    -0.244 A  
HETATM   14  C   UNL     1     -11.412  14.203  69.370  1.00  0.00    -0.337 A  
HETATM   15  C   UNL     1     -11.848  12.880  69.456  1.00  0.00    -0.383 A  
ENDBRANCH   7  10
ENDBRANCH   2   3
TORSDOF 2
ENDMDL
MODEL      113
REMARK 921   NORMALIZED FREE ENERGY PREDICTED BY IDOCK:   -3.49 KCAL/MOL
REMARK 922        TOTAL FREE ENERGY PREDICTED BY IDOCK:   -4.04 KCAL/MOL
REMARK 923 INTER-LIGAND FREE ENERGY PREDICTED BY IDOCK:   -4.03 KCAL/MOL
REMARK 924 INTRA-LIGAND FREE ENERGY PREDICTED BY IDOCK:   -0.01 KCAL/MOL
REMARK 927      BINDING AFFINITY PREDICTED BY RF-SCORE:    0.00 PKD
ROOT
HETATM    1  C   UNL     1     -11.637  15.683  64.421  1.00  0.00    -0.250 C  
HETATM    2  C   UNL     1     -10.632  14.581  64.723  1.00  0.00    -0.377 C  
ENDROOT
BRANCH   2   3
HETATM    3  N   UNL     1     -10.892  13.967  66.007  1.00  0.00    -0.292 N  
HETATM    4  C   UNL     1     -10.451  14.459  67.199  1.00  0.00    -0.263 C  
HETATM    5  N   UNL     1     -10.806  13.582  68.195  1.00  0.00    -0.247 NA 
HETATM    6  O   UNL     1      -9.828  15.490  67.392  1.00  0.00    -0.222 OA 
HETATM    7  C   UNL     1     -11.473  12.416  67.680  1.00  0.00    -0.337 C  
HETATM    8  O   UNL     1     -11.982  12.052  65.302  1.00  0.00    -0.356 OA 
HETATM    9  C   UNL     1     -11.504  12.753  66.184  1.00  0.00    -0.351 C  
BRANCH   7  10
HETATM   10  C   UNL     1     -10.731  11.145  68.013  1.00  0.00    -0.254 A  
HETATM   11  C   UNL     1     -10.980   9.978  67.274  1.00  0.00    -0.225 A  
HETATM   12  C   UNL     1     -10.300   8.793  67.567  1.00  0.00    -0.334 A  
HETATM   13  C   UNL     1      -9.366   8.758  68.599  1.00  0.00    -0.141 A  
HETATM   14  C   UNL     1      -9.112   9.907  69.345  1.00  0.00    -0.216 A  
HETATM   15  C   UNL     1      -9.792  11.091  69.057  1.00  0.00    -0.165 A  
ENDBRANCH   7  10
ENDBRANCH   2   3
TORSDOF 2
ENDMDL
MODEL      114
REMARK 921   NORMALIZED FREE ENERGY PREDICTED BY IDOCK:   -3.49 KCAL/MOL
REMARK 922        TOTAL FREE ENERGY PREDICTED BY IDOCK:   -4.04 KCAL/MOL
REMARK 923 INTER-LIGAND FREE ENERGY PREDICTED BY IDOCK:   -4.00 KCAL/MOL
REMARK 924 INTRA-LIGAND FREE ENERGY PREDICTED BY IDOCK:   -0.04 KCAL/MOL
REMARK 927      BINDING AFFINITY PREDICTED BY RF-SCORE:    0.00 PKD
ROOT
HETATM    1  C   UNL     1     -12.894  11.747  71.548  1.00  0.00    -0.450 C  
HETATM    2  C   UNL     1     -12.773  10.349  70.960  1.00  0.00    -0.394 C  
ENDROOT
BRANCH   2   3
HETATM    3  N   UNL     1     -11.586  10.222  70.142  1.00  0.00    -0.280 N  
HETATM    4  C   UNL     1     -10.405   9.699  70.576  1.00  0.00    -0.295 C  
HETATM    5  N   UNL     1      -9.477   9.813  69.569  1.00  0.00    -0.198 NA 
HETATM    6  O   UNL     1     -10.164   9.218  71.671  1.00  0.00    -0.332 OA 
HETATM    7  C   UNL     1     -10.011  10.480  68.412  1.00  0.00    -0.164 C  
HETATM    8  O   UNL     1     -12.330  11.272  68.220  1.00  0.00    -0.542 OA 
HETATM    9  C   UNL     1     -11.454  10.720  68.871  1.00  0.00    -0.293 C  
BRANCH   7  10
HETATM   10  C   UNL     1      -9.249  11.739  68.081  1.00  0.00    -0.186 A  
HETATM   11  C   UNL     1      -9.801  12.677  67.195  1.00  0.00    -0.212 A  
HETATM   12  C   UNL     1      -9.111  13.850  66.880  1.00  0.00    -0.257 A  
HETATM   13  C   UNL     1      -7.862  14.101  67.444  1.00  0.00    -0.195 A  
HETATM   14  C   UNL     1      -7.298  13.177  68.320  1.00  0.00    -0.116 A  
HETATM   15  C   UNL     1      -7.984  12.003  68.635  1.00  0.00    -0.082 A  
ENDBRANCH   7  10
ENDBRANCH   2   3
TORSDOF 2
ENDMDL
MODEL      115
REMARK 921   NORMALIZED FREE ENERGY PREDICTED BY IDOCK:   -3.48 KCAL/MOL
REMARK 922        TOTAL FREE ENERGY PREDICTED BY IDOCK:   -4.03 KCAL/MOL
REMARK 923 INTER-LIGAND FREE ENERGY PREDICTED BY IDOCK:   -3.73 KCAL/MOL
REMARK 924 INTRA-LIGAND FREE ENERGY PREDICTED BY IDOCK:   -0.29 KCAL/MOL
REMARK 927      BINDING AFFINITY PREDICTED BY RF-SCORE:    0.00 PKD
ROOT
HETATM    1  C   UNL     1      -6.138   8.558  69.598  1.00  0.00    -0.032 C  
HETATM    2  C   UNL     1      -7.235   7.537  69.860  1.00  0.00    -0.080 C  
ENDROOT
BRANCH   2   3
HETATM    3  N   UNL     1      -8.177   8.016  70.848  1.00  0.00    -0.100 N  
HETATM    4  C   UNL     1      -8.220   7.590  72.141  1.00  0.00    -0.103 C  
HETATM    5  N   UNL     1      -9.287   8.189  72.767  1.00  0.00    -0.254 NA 
HETATM    6  O   UNL     1      -7.469   6.799  72.687  1.00  0.00    -0.090 OA 
HETATM    7  C   UNL     1     -10.044   9.023  71.871  1.00  0.00    -0.253 C  
HETATM    8  O   UNL     1      -9.469   9.392  69.509  1.00  0.00    -0.162 OA 
HETATM    9  C   UNL     1      -9.224   8.863  70.585  1.00  0.00    -0.213 C  
BRANCH   7  10
HETATM   10  C   UNL     1     -11.478   8.570  71.750  1.00  0.00    -0.378 A  
HETATM   11  C   UNL     1     -12.520   9.464  72.043  1.00  0.00    -0.440 A  
HETATM   12  C   UNL     1     -13.853   9.062  71.933  1.00  0.00    -0.477 A  
HETATM   13  C   UNL     1     -14.163   7.765  71.532  1.00  0.00    -0.540 A  
HETATM   14  C   UNL     1     -13.141   6.864  71.243  1.00  0.00    -0.273 A  
HETATM   15  C   UNL     1     -11.807   7.262  71.354  1.00  0.00    -0.338 A  
ENDBRANCH   7  10
ENDBRANCH   2   3
TORSDOF 2
ENDMDL
MODEL      116
REMARK 921   NORMALIZED FREE ENERGY PREDICTED BY IDOCK:   -3.43 KCAL/MOL
REMARK 922        TOTAL FREE ENERGY PREDICTED BY IDOCK:   -3.97 KCAL/MOL
REMARK 923 INTER-LIGAND FREE ENERGY PREDICTED BY IDOCK:   -3.67 KCAL/MOL
REMARK 924 INTRA-LIGAND FREE ENERGY PREDICTED BY IDOCK:   -0.30 KCAL/MOL
REMARK 927      BINDING AFFINITY PREDICTED BY RF-SCORE:    0.00 PKD
ROOT
HETATM    1  C   UNL     1      -7.578   6.204  67.751  1.00  0.00    -0.097 C  
HETATM    2  C   UNL     1      -8.071   6.861  66.470  1.00  0.00    -0.111 C  
ENDROOT
BRANCH   2   3
HETATM    3  N   UNL     1      -8.712   8.129  66.741  1.00  0.00    -0.130 N  
HETATM    4  C   UNL     1      -8.048   9.305  66.924  1.00  0.00    -0.108 C  
HETATM    5  N   UNL     1      -8.960  10.280  67.244  1.00  0.00    -0.132 NA 
HETATM    6  O   UNL     1      -6.846   9.498  66.843  1.00  0.00    -0.078 OA 
HETATM    7  C   UNL     1     -10.299   9.762  67.338  1.00  0.00    -0.240 C  
HETATM    8  O   UNL     1     -10.907   7.419  66.912  1.00  0.00    -0.357 OA 
HETATM    9  C   UNL     1     -10.054   8.293  66.974  1.00  0.00    -0.283 C  
BRANCH   7  10
HETATM   10  C   UNL     1     -10.893   9.969  68.709  1.00  0.00    -0.252 A  
HETATM   11  C   UNL     1     -10.509   9.133  69.770  1.00  0.00    -0.234 A  
HETATM   12  C   UNL     1     -11.046   9.312  71.047  1.00  0.00    -0.396 A  
HETATM   13  C   UNL     1     -11.973  10.325  71.281  1.00  0.00    -0.457 A  
HETATM   14  C   UNL     1     -12.369  11.159  70.238  1.00  0.00    -0.397 A  
HETATM   15  C   UNL     1     -11.836  10.981  68.960  1.00  0.00    -0.399 A  
ENDBRANCH   7  10
ENDBRANCH   2   3
TORSDOF 2
ENDMDL
MODEL      117
REMARK 921   NORMALIZED FREE ENERGY PREDICTED BY IDOCK:   -3.43 KCAL/MOL
REMARK 922        TOTAL FREE ENERGY PREDICTED BY IDOCK:   -3.97 KCAL/MOL
REMARK 923 INTER-LIGAND FREE ENERGY PREDICTED BY IDOCK:   -3.65 KCAL/MOL
REMARK 924 INTRA-LIGAND FREE ENERGY PREDICTED BY IDOCK:   -0.32 KCAL/MOL
REMARK 927      BINDING AFFINITY PREDICTED BY RF-SCORE:    0.00 PKD
ROOT
HETATM    1  C   UNL     1     -10.246   5.273  67.076  1.00  0.00    -0.274 C  
HETATM    2  C   UNL     1     -11.136   6.507  67.095  1.00  0.00    -0.360 C  
ENDROOT
BRANCH   2   3
HETATM    3  N   UNL     1     -10.480   7.620  67.746  1.00  0.00    -0.221 N  
HETATM    4  C   UNL     1     -10.589   7.908  69.073  1.00  0.00    -0.162 C  
HETATM    5  N   UNL     1      -9.909   9.074  69.328  1.00  0.00    -0.175 NA 
HETATM    6  O   UNL     1     -11.193   7.274  69.923  1.00  0.00    -0.244 OA 
HETATM    7  C   UNL     1      -9.348   9.648  68.134  1.00  0.00    -0.132 C  
HETATM    8  O   UNL     1      -9.522   8.634  65.901  1.00  0.00    -0.223 OA 
HETATM    9  C   UNL     1      -9.769   8.598  67.098  1.00  0.00    -0.190 C  
BRANCH   7  10
HETATM   10  C   UNL     1      -9.882  11.032  67.864  1.00  0.00    -0.186 A  
HETATM   11  C   UNL     1     -11.253  11.219  67.630  1.00  0.00    -0.357 A  
HETATM   12  C   UNL     1     -11.766  12.494  67.382  1.00  0.00    -0.432 A  
HETATM   13  C   UNL     1     -10.917  13.598  67.361  1.00  0.00    -0.289 A  
HETATM   14  C   UNL     1      -9.553  13.429  67.585  1.00  0.00    -0.219 A  
HETATM   15  C   UNL     1      -9.037  12.156  67.831  1.00  0.00    -0.185 A  
ENDBRANCH   7  10
ENDBRANCH   2   3
TORSDOF 2
ENDMDL
MODEL      118
REMARK 921   NORMALIZED FREE ENERGY PREDICTED BY IDOCK:   -3.42 KCAL/MOL
REMARK 922        TOTAL FREE ENERGY PREDICTED BY IDOCK:   -3.96 KCAL/MOL
REMARK 923 INTER-LIGAND FREE ENERGY PREDICTED BY IDOCK:   -3.60 KCAL/MOL
REMARK 924 INTRA-LIGAND FREE ENERGY PREDICTED BY IDOCK:   -0.36 KCAL/MOL
REMARK 927      BINDING AFFINITY PREDICTED BY RF-SCORE:    0.00 PKD
ROOT
HETATM    1  C   UNL     1      -7.200  10.718  67.946  1.00  0.00    -0.087 C  
HETATM    2  C   UNL     1      -7.366   9.572  66.958  1.00  0.00    -0.087 C  
ENDROOT
BRANCH   2   3
HETATM    3  N   UNL     1      -8.572   8.818  67.224  1.00  0.00    -0.121 N  
HETATM    4  C   UNL     1      -9.792   9.103  66.688  1.00  0.00    -0.240 C  
HETATM    5  N   UNL     1     -10.719   8.241  67.220  1.00  0.00    -0.249 NA 
HETATM    6  O   UNL     1     -10.062   9.979  65.882  1.00  0.00    -0.264 OA 
HETATM    7  C   UNL     1     -10.140   7.356  68.196  1.00  0.00    -0.179 C  
HETATM    8  O   UNL     1      -7.758   7.336  68.802  1.00  0.00    -0.114 OA 
HETATM    9  C   UNL     1      -8.674   7.801  68.138  1.00  0.00    -0.126 C  
BRANCH   7  10
HETATM   10  C   UNL     1     -10.780   7.512  69.553  1.00  0.00    -0.222 A  
HETATM   11  C   UNL     1     -10.715   8.745  70.220  1.00  0.00    -0.249 A  
HETATM   12  C   UNL     1     -11.305   8.908  71.475  1.00  0.00    -0.395 A  
HETATM   13  C   UNL     1     -11.966   7.842  72.082  1.00  0.00    -0.379 A  
HETATM   14  C   UNL     1     -12.034   6.610  71.437  1.00  0.00    -0.405 A  
HETATM   15  C   UNL     1     -11.443   6.444  70.183  1.00  0.00    -0.484 A  
ENDBRANCH   7  10
ENDBRANCH   2   3
TORSDOF 2
ENDMDL
MODEL      119
REMARK 921   NORMALIZED FREE ENERGY PREDICTED BY IDOCK:   -3.40 KCAL/MOL
REMARK 922        TOTAL FREE ENERGY PREDICTED BY IDOCK:   -3.93 KCAL/MOL
REMARK 923 INTER-LIGAND FREE ENERGY PREDICTED BY IDOCK:   -3.61 KCAL/MOL
REMARK 924 INTRA-LIGAND FREE ENERGY PREDICTED BY IDOCK:   -0.32 KCAL/MOL
REMARK 927      BINDING AFFINITY PREDICTED BY RF-SCORE:    0.00 PKD
ROOT
HETATM    1  C   UNL     1     -11.714  10.765  70.431  1.00  0.00    -0.445 C  
HETATM    2  C   UNL     1     -11.101   9.680  71.305  1.00  0.00    -0.355 C  
ENDROOT
BRANCH   2   3
HETATM    3  N   UNL     1     -11.325   8.365  70.746  1.00  0.00    -0.268 N  
HETATM    4  C   UNL     1     -12.388   7.569  71.052  1.00  0.00    -0.235 C  
HETATM    5  N   UNL     1     -12.236   6.365  70.409  1.00  0.00    -0.049 NA 
HETATM    6  O   UNL     1     -13.329   7.836  71.781  1.00  0.00    -0.332 OA 
HETATM    7  C   UNL     1     -11.003   6.296  69.670  1.00  0.00    -0.374 C  
HETATM    8  O   UNL     1      -9.381   8.136  69.514  1.00  0.00    -0.155 OA 
HETATM    9  C   UNL     1     -10.440   7.697  69.938  1.00  0.00    -0.231 C  
BRANCH   7  10
HETATM   10  C   UNL     1     -10.117   5.172  70.147  1.00  0.00    -0.342 A  
HETATM   11  C   UNL     1      -9.675   5.148  71.479  1.00  0.00    -0.221 A  
HETATM   12  C   UNL     1      -8.858   4.113  71.939  1.00  0.00    -0.141 A  
HETATM   13  C   UNL     1      -8.470   3.091  71.076  1.00  0.00    -0.096 A  
HETATM   14  C   UNL     1      -8.895   3.103  69.750  1.00  0.00    -0.149 A  
HETATM   15  C   UNL     1      -9.710   4.137  69.287  1.00  0.00    -0.219 A  
ENDBRANCH   7  10
ENDBRANCH   2   3
TORSDOF 2
ENDMDL
MODEL      120
REMARK 921   NORMALIZED FREE ENERGY PREDICTED BY IDOCK:   -3.39 KCAL/MOL
REMARK 922        TOTAL FREE ENERGY PREDICTED BY IDOCK:   -3.92 KCAL/MOL
REMARK 923 INTER-LIGAND FREE ENERGY PREDICTED BY IDOCK:   -3.67 KCAL/MOL
REMARK 924 INTRA-LIGAND FREE ENERGY PREDICTED BY IDOCK:   -0.25 KCAL/MOL
REMARK 927      BINDING AFFINITY PREDICTED BY RF-SCORE:    0.00 PKD
ROOT
HETATM    1  C   UNL     1     -11.117  14.215  68.950  1.00  0.00    -0.288 C  
HETATM    2  C   UNL     1     -11.971  13.913  67.727  1.00  0.00    -0.355 C  
ENDROOT
BRANCH   2   3
HETATM    3  N   UNL     1     -11.530  12.707  67.061  1.00  0.00    -0.326 N  
HETATM    4  C   UNL     1     -11.657  11.452  67.576  1.00  0.00    -0.219 C  
HETATM    5  N   UNL     1     -11.057  10.561  66.720  1.00  0.00    -0.114 NA 
HETATM    6  O   UNL     1     -12.191  11.131  68.625  1.00  0.00    -0.582 OA 
HETATM    7  C   UNL     1     -10.447  11.217  65.594  1.00  0.00    -0.261 C  
HETATM    8  O   UNL     1     -10.519  13.643  65.203  1.00  0.00    -0.333 OA 
HETATM    9  C   UNL     1     -10.817  12.676  65.889  1.00  0.00    -0.270 C  
BRANCH   7  10
HETATM   10  C   UNL     1      -8.962  10.959  65.523  1.00  0.00    -0.213 A  
HETATM   11  C   UNL     1      -8.419  10.309  64.404  1.00  0.00    -0.182 A  
HETATM   12  C   UNL     1      -7.046  10.064  64.320  1.00  0.00    -0.130 A  
HETATM   13  C   UNL     1      -6.199  10.464  65.351  1.00  0.00    -0.127 A  
HETATM   14  C   UNL     1      -6.723  11.105  66.470  1.00  0.00    -0.128 A  
HETATM   15  C   UNL     1      -8.095  11.349  66.558  1.00  0.00    -0.141 A  
ENDBRANCH   7  10
ENDBRANCH   2   3
TORSDOF 2
ENDMDL
MODEL      121
REMARK 921   NORMALIZED FREE ENERGY PREDICTED BY IDOCK:   -3.34 KCAL/MOL
REMARK 922        TOTAL FREE ENERGY PREDICTED BY IDOCK:   -3.87 KCAL/MOL
REMARK 923 INTER-LIGAND FREE ENERGY PREDICTED BY IDOCK:   -3.95 KCAL/MOL
REMARK 924 INTRA-LIGAND FREE ENERGY PREDICTED BY IDOCK:    0.08 KCAL/MOL
REMARK 927      BINDING AFFINITY PREDICTED BY RF-SCORE:    0.00 PKD
ROOT
HETATM    1  C   UNL     1      -9.416   5.307  68.188  1.00  0.00    -0.151 C  
HETATM    2  C   UNL     1     -10.373   6.155  67.364  1.00  0.00    -0.211 C  
ENDROOT
BRANCH   2   3
HETATM    3  N   UNL     1     -10.106   7.567  67.534  1.00  0.00    -0.182 N  
HETATM    4  C   UNL     1     -10.500   8.301  68.613  1.00  0.00    -0.168 C  
HETATM    5  N   UNL     1     -10.155   9.614  68.402  1.00  0.00    -0.169 NA 
HETATM    6  O   UNL     1     -11.078   7.902  69.610  1.00  0.00    -0.165 OA 
HETATM    7  C   UNL     1      -9.545   9.815  67.114  1.00  0.00    -0.169 C  
HETATM    8  O   UNL     1      -9.106   8.016  65.497  1.00  0.00    -0.080 OA 
HETATM    9  C   UNL     1      -9.537   8.376  66.584  1.00  0.00    -0.229 C  
BRANCH   7  10
HETATM   10  C   UNL     1     -10.326  10.784  66.262  1.00  0.00    -0.303 A  
HETATM   11  C   UNL     1     -10.269  10.687  64.863  1.00  0.00    -0.395 A  
HETATM   12  C   UNL     1     -10.988  11.574  64.059  1.00  0.00    -0.454 A  
HETATM   13  C   UNL     1     -11.772  12.568  64.639  1.00  0.00    -0.416 A  
HETATM   14  C   UNL     1     -11.835  12.681  66.026  1.00  0.00    -0.492 A  
HETATM   15  C   UNL     1     -11.116  11.798  66.833  1.00  0.00    -0.361 A  
ENDBRANCH   7  10
ENDBRANCH   2   3
TORSDOF 2
ENDMDL
MODEL      122
REMARK 921   NORMALIZED FREE ENERGY PREDICTED BY IDOCK:   -3.33 KCAL/MOL
REMARK 922        TOTAL FREE ENERGY PREDICTED BY IDOCK:   -3.86 KCAL/MOL
REMARK 923 INTER-LIGAND FREE ENERGY PREDICTED BY IDOCK:   -3.57 KCAL/MOL
REMARK 924 INTRA-LIGAND FREE ENERGY PREDICTED BY IDOCK:   -0.29 KCAL/MOL
REMARK 927      BINDING AFFINITY PREDICTED BY RF-SCORE:    0.00 PKD
ROOT
HETATM    1  C   UNL     1      -9.992   7.251  70.460  1.00  0.00    -0.191 C  
HETATM    2  C   UNL     1      -9.175   6.567  69.374  1.00  0.00    -0.144 C  
ENDROOT
BRANCH   2   3
HETATM    3  N   UNL     1      -8.925   7.458  68.262  1.00  0.00    -0.130 N  
HETATM    4  C   UNL     1      -7.835   8.269  68.156  1.00  0.00    -0.118 C  
HETATM    5  N   UNL     1      -7.965   9.035  67.023  1.00  0.00    -0.101 NA 
HETATM    6  O   UNL     1      -6.889   8.346  68.924  1.00  0.00    -0.059 OA 
HETATM    7  C   UNL     1      -9.207   8.789  66.341  1.00  0.00    -0.189 C  
HETATM    8  O   UNL     1     -10.882   7.144  67.071  1.00  0.00    -0.351 OA 
HETATM    9  C   UNL     1      -9.804   7.697  67.237  1.00  0.00    -0.186 C  
BRANCH   7  10
HETATM   10  C   UNL     1     -10.053  10.033  66.236  1.00  0.00    -0.310 A  
HETATM   11  C   UNL     1     -10.024  10.800  65.060  1.00  0.00    -0.361 A  
HETATM   12  C   UNL     1     -10.803  11.954  64.945  1.00  0.00    -0.356 A  
HETATM   13  C   UNL     1     -11.619  12.357  65.999  1.00  0.00    -0.455 A  
HETATM   14  C   UNL     1     -11.655  11.610  67.174  1.00  0.00    -0.291 A  
HETATM   15  C   UNL     1     -10.875  10.458  67.294  1.00  0.00    -0.324 A  
ENDBRANCH   7  10
ENDBRANCH   2   3
TORSDOF 2
ENDMDL
MODEL      123
REMARK 921   NORMALIZED FREE ENERGY PREDICTED BY IDOCK:   -3.32 KCAL/MOL
REMARK 922        TOTAL FREE ENERGY PREDICTED BY IDOCK:   -3.85 KCAL/MOL
REMARK 923 INTER-LIGAND FREE ENERGY PREDICTED BY IDOCK:   -3.49 KCAL/MOL
REMARK 924 INTRA-LIGAND FREE ENERGY PREDICTED BY IDOCK:   -0.36 KCAL/MOL
REMARK 927      BINDING AFFINITY PREDICTED BY RF-SCORE:    0.00 PKD
ROOT
HETATM    1  C   UNL     1     -11.904  12.547  67.601  1.00  0.00    -0.381 C  
HETATM    2  C   UNL     1     -10.839  12.747  68.669  1.00  0.00    -0.253 C  
ENDROOT
BRANCH   2   3
HETATM    3  N   UNL     1      -9.981  11.588  68.781  1.00  0.00    -0.190 N  
HETATM    4  C   UNL     1      -8.866  11.380  68.026  1.00  0.00    -0.155 C  
HETATM    5  N   UNL     1      -8.347  10.146  68.336  1.00  0.00    -0.110 NA 
HETATM    6  O   UNL     1      -8.384  12.129  67.192  1.00  0.00    -0.170 OA 
HETATM    7  C   UNL     1      -9.152   9.447  69.303  1.00  0.00    -0.152 C  
HETATM    8  O   UNL     1     -11.184  10.368  70.335  1.00  0.00    -0.297 OA 
HETATM    9  C   UNL     1     -10.241  10.493  69.566  1.00  0.00    -0.200 C  
BRANCH   7  10
HETATM   10  C   UNL     1      -9.670   8.136  68.766  1.00  0.00    -0.155 A  
HETATM   11  C   UNL     1      -9.505   6.960  69.515  1.00  0.00    -0.146 A  
HETATM   12  C   UNL     1      -9.982   5.738  69.035  1.00  0.00    -0.222 A  
HETATM   13  C   UNL     1     -10.628   5.674  67.803  1.00  0.00    -0.274 A  
HETATM   14  C   UNL     1     -10.795   6.830  67.045  1.00  0.00    -0.453 A  
HETATM   15  C   UNL     1     -10.317   8.052  67.521  1.00  0.00    -0.330 A  
ENDBRANCH   7  10
ENDBRANCH   2   3
TORSDOF 2
ENDMDL
MODEL      124
REMARK 921   NORMALIZED FREE ENERGY PREDICTED BY IDOCK:   -3.29 KCAL/MOL
REMARK 922        TOTAL FREE ENERGY PREDICTED BY IDOCK:   -3.81 KCAL/MOL
REMARK 923 INTER-LIGAND FREE ENERGY PREDICTED BY IDOCK:   -3.79 KCAL/MOL
REMARK 924 INTRA-LIGAND FREE ENERGY PREDICTED BY IDOCK:   -0.02 KCAL/MOL
REMARK 927      BINDING AFFINITY PREDICTED BY RF-SCORE:    0.00 PKD
ROOT
HETATM    1  C   UNL     1      -7.723   8.040  67.053  1.00  0.00    -0.100 C  
HETATM    2  C   UNL     1      -7.448   9.313  66.267  1.00  0.00    -0.096 C  
ENDROOT
BRANCH   2   3
HETATM    3  N   UNL     1      -8.656   9.827  65.657  1.00  0.00    -0.136 N  
HETATM    4  C   UNL     1      -8.813  10.040  64.320  1.00  0.00    -0.220 C  
HETATM    5  N   UNL     1     -10.044  10.610  64.107  1.00  0.00    -0.347 NA 
HETATM    6  O   UNL     1      -8.014   9.796  63.431  1.00  0.00    -0.132 OA 
HETATM    7  C   UNL     1     -10.752  10.850  65.337  1.00  0.00    -0.119 C  
HETATM    8  O   UNL     1      -9.896  10.253  67.563  1.00  0.00    -0.165 OA 
HETATM    9  C   UNL     1      -9.749  10.283  66.349  1.00  0.00    -0.201 C  
BRANCH   7  10
HETATM   10  C   UNL     1     -11.069  12.311  65.533  1.00  0.00    -0.348 A  
HETATM   11  C   UNL     1     -10.583  13.261  64.621  1.00  0.00    -0.421 A  
HETATM   12  C   UNL     1     -10.870  14.618  64.785  1.00  0.00    -0.402 A  
HETATM   13  C   UNL     1     -11.644  15.044  65.862  1.00  0.00    -0.165 A  
HETATM   14  C   UNL     1     -12.129  14.115  66.779  1.00  0.00    -0.474 A  
HETATM   15  C   UNL     1     -11.842  12.759  66.619  1.00  0.00    -0.462 A  
ENDBRANCH   7  10
ENDBRANCH   2   3
TORSDOF 2
ENDMDL
MODEL      125
REMARK 921   NORMALIZED FREE ENERGY PREDICTED BY IDOCK:   -3.29 KCAL/MOL
REMARK 922        TOTAL FREE ENERGY PREDICTED BY IDOCK:   -3.81 KCAL/MOL
REMARK 923 INTER-LIGAND FREE ENERGY PREDICTED BY IDOCK:   -3.65 KCAL/MOL
REMARK 924 INTRA-LIGAND FREE ENERGY PREDICTED BY IDOCK:   -0.16 KCAL/MOL
REMARK 927      BINDING AFFINITY PREDICTED BY RF-SCORE:    0.00 PKD
ROOT
HETATM    1  C   UNL     1     -12.503  14.316  65.135  1.00  0.00    -0.423 C  
HETATM    2  C   UNL     1     -11.076  14.084  64.661  1.00  0.00    -0.382 C  
ENDROOT
BRANCH   2   3
HETATM    3  N   UNL     1     -10.544  12.842  65.177  1.00  0.00    -0.294 N  
HETATM    4  C   UNL     1      -9.588  12.757  66.145  1.00  0.00    -0.212 C  
HETATM    5  N   UNL     1      -9.262  11.435  66.326  1.00  0.00    -0.202 NA 
HETATM    6  O   UNL     1      -9.070  13.675  66.759  1.00  0.00    -0.247 OA 
HETATM    7  C   UNL     1      -9.975  10.571  65.423  1.00  0.00    -0.289 C  
HETATM    8  O   UNL     1     -11.635  11.350  63.786  1.00  0.00    -0.319 OA 
HETATM    9  C   UNL     1     -10.836  11.598  64.678  1.00  0.00    -0.314 C  
BRANCH   7  10
HETATM   10  C   UNL     1      -9.043   9.784  64.535  1.00  0.00    -0.297 A  
HETATM   11  C   UNL     1      -8.567  10.354  63.344  1.00  0.00    -0.189 A  
HETATM   12  C   UNL     1      -7.701   9.642  62.511  1.00  0.00    -0.122 A  
HETATM   13  C   UNL     1      -7.300   8.353  62.856  1.00  0.00    -0.100 A  
HETATM   14  C   UNL     1      -7.769   7.771  64.032  1.00  0.00    -0.126 A  
HETATM   15  C   UNL     1      -8.636   8.480  64.864  1.00  0.00    -0.135 A  
ENDBRANCH   7  10
ENDBRANCH   2   3
TORSDOF 2
ENDMDL
MODEL      126
REMARK 921   NORMALIZED FREE ENERGY PREDICTED BY IDOCK:   -3.22 KCAL/MOL
REMARK 922        TOTAL FREE ENERGY PREDICTED BY IDOCK:   -3.73 KCAL/MOL
REMARK 923 INTER-LIGAND FREE ENERGY PREDICTED BY IDOCK:   -3.49 KCAL/MOL
REMARK 924 INTRA-LIGAND FREE ENERGY PREDICTED BY IDOCK:   -0.24 KCAL/MOL
REMARK 927      BINDING AFFINITY PREDICTED BY RF-SCORE:    0.00 PKD
ROOT
HETATM    1  C   UNL     1      -8.561   7.747  67.799  1.00  0.00    -0.121 C  
HETATM    2  C   UNL     1      -9.955   8.341  67.942  1.00  0.00    -0.183 C  
ENDROOT
BRANCH   2   3
HETATM    3  N   UNL     1     -10.551   7.987  69.212  1.00  0.00    -0.212 N  
HETATM    4  C   UNL     1     -10.500   8.766  70.329  1.00  0.00    -0.208 C  
HETATM    5  N   UNL     1     -11.090   8.086  71.367  1.00  0.00    -0.236 NA 
HETATM    6  O   UNL     1     -10.007   9.877  70.438  1.00  0.00    -0.259 OA 
HETATM    7  C   UNL     1     -11.524   6.771  70.977  1.00  0.00    -0.324 C  
HETATM    8  O   UNL     1     -11.300   5.859  68.706  1.00  0.00    -0.180 OA 
HETATM    9  C   UNL     1     -11.132   6.778  69.495  1.00  0.00    -0.273 C  
BRANCH   7  10
HETATM   10  C   UNL     1     -10.856   5.689  71.789  1.00  0.00    -0.301 A  
HETATM   11  C   UNL     1     -11.461   5.225  72.967  1.00  0.00    -0.340 A  
HETATM   12  C   UNL     1     -10.858   4.221  73.729  1.00  0.00    -0.354 A  
HETATM   13  C   UNL     1      -9.643   3.671  73.326  1.00  0.00    -0.142 A  
HETATM   14  C   UNL     1      -9.027   4.125  72.162  1.00  0.00    -0.143 A  
HETATM   15  C   UNL     1      -9.626   5.129  71.400  1.00  0.00    -0.215 A  
ENDBRANCH   7  10
ENDBRANCH   2   3
TORSDOF 2
ENDMDL
MODEL      127
REMARK 921   NORMALIZED FREE ENERGY PREDICTED BY IDOCK:   -3.21 KCAL/MOL
REMARK 922        TOTAL FREE ENERGY PREDICTED BY IDOCK:   -3.72 KCAL/MOL
REMARK 923 INTER-LIGAND FREE ENERGY PREDICTED BY IDOCK:   -3.44 KCAL/MOL
REMARK 924 INTRA-LIGAND FREE ENERGY PREDICTED BY IDOCK:   -0.28 KCAL/MOL
REMARK 927      BINDING AFFINITY PREDICTED BY RF-SCORE:    0.00 PKD
ROOT
HETATM    1  C   UNL     1     -11.860  11.546  70.159  1.00  0.00    -0.440 C  
HETATM    2  C   UNL     1     -11.784  10.725  68.880  1.00  0.00    -0.267 C  
ENDROOT
BRANCH   2   3
HETATM    3  N   UNL     1     -10.882  11.325  67.921  1.00  0.00    -0.211 N  
HETATM    4  C   UNL     1     -11.224  12.331  67.068  1.00  0.00    -0.310 C  
HETATM    5  N   UNL     1     -10.155  12.594  66.246  1.00  0.00    -0.248 NA 
HETATM    6  O   UNL     1     -12.293  12.916  67.000  1.00  0.00    -0.360 OA 
HETATM    7  C   UNL     1      -9.047  11.712  66.498  1.00  0.00    -0.197 C  
HETATM    8  O   UNL     1      -9.031   9.975  68.238  1.00  0.00    -0.118 OA 
HETATM    9  C   UNL     1      -9.611  10.882  67.657  1.00  0.00    -0.163 C  
BRANCH   7  10
HETATM   10  C   UNL     1      -8.679  10.902  65.280  1.00  0.00    -0.147 A  
HETATM   11  C   UNL     1      -7.372  10.411  65.137  1.00  0.00    -0.088 A  
HETATM   12  C   UNL     1      -7.014   9.657  64.017  1.00  0.00    -0.113 A  
HETATM   13  C   UNL     1      -7.954   9.385  63.026  1.00  0.00    -0.141 A  
HETATM   14  C   UNL     1      -9.254   9.870  63.150  1.00  0.00    -0.281 A  
HETATM   15  C   UNL     1      -9.614  10.626  64.267  1.00  0.00    -0.350 A  
ENDBRANCH   7  10
ENDBRANCH   2   3
TORSDOF 2
ENDMDL
MODEL      128
REMARK 921   NORMALIZED FREE ENERGY PREDICTED BY IDOCK:   -3.20 KCAL/MOL
REMARK 922        TOTAL FREE ENERGY PREDICTED BY IDOCK:   -3.71 KCAL/MOL
REMARK 923 INTER-LIGAND FREE ENERGY PREDICTED BY IDOCK:   -3.42 KCAL/MOL
REMARK 924 INTRA-LIGAND FREE ENERGY PREDICTED BY IDOCK:   -0.29 KCAL/MOL
REMARK 927      BINDING AFFINITY PREDICTED BY RF-SCORE:    0.00 PKD
ROOT
HETATM    1  C   UNL     1      -8.047  12.371  67.265  1.00  0.00    -0.182 C  
HETATM    2  C   UNL     1      -8.826  12.080  68.539  1.00  0.00    -0.095 C  
ENDROOT
BRANCH   2   3
HETATM    3  N   UNL     1      -9.593  10.859  68.421  1.00  0.00    -0.170 N  
HETATM    4  C   UNL     1     -10.817  10.772  67.829  1.00  0.00    -0.269 C  
HETATM    5  N   UNL     1     -11.286   9.489  67.973  1.00  0.00     0.007 NA 
HETATM    6  O   UNL     1     -11.436  11.663  67.270  1.00  0.00    -0.386 OA 
HETATM    7  C   UNL     1     -10.385   8.664  68.732  1.00  0.00    -0.208 C  
HETATM    8  O   UNL     1      -8.224   9.430  69.619  1.00  0.00    -0.112 OA 
HETATM    9  C   UNL     1      -9.250   9.661  68.995  1.00  0.00    -0.156 C  
BRANCH   7  10
HETATM   10  C   UNL     1     -11.031   8.118  69.981  1.00  0.00    -0.199 A  
HETATM   11  C   UNL     1     -11.640   8.995  70.893  1.00  0.00    -0.344 A  
HETATM   12  C   UNL     1     -12.246   8.507  72.052  1.00  0.00    -0.429 A  
HETATM   13  C   UNL     1     -12.251   7.140  72.318  1.00  0.00    -0.181 A  
HETATM   14  C   UNL     1     -11.645   6.257  71.427  1.00  0.00    -0.338 A  
HETATM   15  C   UNL     1     -11.037   6.742  70.268  1.00  0.00    -0.360 A  
ENDBRANCH   7  10
ENDBRANCH   2   3
TORSDOF 2
ENDMDL
MODEL      129
REMARK 921   NORMALIZED FREE ENERGY PREDICTED BY IDOCK:   -3.19 KCAL/MOL
REMARK 922        TOTAL FREE ENERGY PREDICTED BY IDOCK:   -3.70 KCAL/MOL
REMARK 923 INTER-LIGAND FREE ENERGY PREDICTED BY IDOCK:   -3.41 KCAL/MOL
REMARK 924 INTRA-LIGAND FREE ENERGY PREDICTED BY IDOCK:   -0.29 KCAL/MOL
REMARK 927      BINDING AFFINITY PREDICTED BY RF-SCORE:    0.00 PKD
ROOT
HETATM    1  C   UNL     1      -8.320   4.656  67.114  1.00  0.00    -0.105 C  
HETATM    2  C   UNL     1      -8.767   5.794  66.208  1.00  0.00    -0.134 C  
ENDROOT
BRANCH   2   3
HETATM    3  N   UNL     1      -9.082   6.983  66.970  1.00  0.00    -0.132 N  
HETATM    4  C   UNL     1      -8.155   7.862  67.443  1.00  0.00    -0.123 C  
HETATM    5  N   UNL     1      -8.798   8.820  68.189  1.00  0.00    -0.141 NA 
HETATM    6  O   UNL     1      -6.948   7.832  67.271  1.00  0.00    -0.073 OA 
HETATM    7  C   UNL     1     -10.213   8.576  68.284  1.00  0.00    -0.205 C  
HETATM    8  O   UNL     1     -11.368   6.704  67.187  1.00  0.00    -0.343 OA 
HETATM    9  C   UNL     1     -10.334   7.314  67.421  1.00  0.00    -0.260 C  
BRANCH   7  10
HETATM   10  C   UNL     1     -10.663   8.395  69.712  1.00  0.00    -0.211 A  
HETATM   11  C   UNL     1     -10.434   7.175  70.367  1.00  0.00    -0.234 A  
HETATM   12  C   UNL     1     -10.841   6.991  71.690  1.00  0.00    -0.249 A  
HETATM   13  C   UNL     1     -11.483   8.020  72.375  1.00  0.00    -0.449 A  
HETATM   14  C   UNL     1     -11.724   9.234  71.737  1.00  0.00    -0.456 A  
HETATM   15  C   UNL     1     -11.320   9.420  70.414  1.00  0.00    -0.295 A  
ENDBRANCH   7  10
ENDBRANCH   2   3
TORSDOF 2
ENDMDL
MODEL      130
REMARK 921   NORMALIZED FREE ENERGY PREDICTED BY IDOCK:   -3.16 KCAL/MOL
REMARK 922        TOTAL FREE ENERGY PREDICTED BY IDOCK:   -3.67 KCAL/MOL
REMARK 923 INTER-LIGAND FREE ENERGY PREDICTED BY IDOCK:   -3.49 KCAL/MOL
REMARK 924 INTRA-LIGAND FREE ENERGY PREDICTED BY IDOCK:   -0.18 KCAL/MOL
REMARK 927      BINDING AFFINITY PREDICTED BY RF-SCORE:    0.00 PKD
ROOT
HETATM    1  C   UNL     1      -6.850   6.744  70.130  1.00  0.00    -0.061 C  
HETATM    2  C   UNL     1      -7.113   7.497  68.834  1.00  0.00    -0.080 C  
ENDROOT
BRANCH   2   3
HETATM    3  N   UNL     1      -8.077   8.558  69.028  1.00  0.00    -0.113 N  
HETATM    4  C   UNL     1      -7.782   9.781  69.551  1.00  0.00    -0.120 C  
HETATM    5  N   UNL     1      -8.945  10.502  69.669  1.00  0.00    -0.038 NA 
HETATM    6  O   UNL     1      -6.686  10.199  69.887  1.00  0.00    -0.077 OA 
HETATM    7  C   UNL     1     -10.098   9.744  69.262  1.00  0.00    -0.198 C  
HETATM    8  O   UNL     1     -10.004   7.446  68.394  1.00  0.00    -0.155 OA 
HETATM    9  C   UNL     1      -9.429   8.434  68.829  1.00  0.00    -0.147 C  
BRANCH   7  10
HETATM   10  C   UNL     1     -11.097   9.587  70.381  1.00  0.00    -0.330 A  
HETATM   11  C   UNL     1     -11.044   8.458  71.213  1.00  0.00    -0.307 A  
HETATM   12  C   UNL     1     -11.959   8.299  72.256  1.00  0.00    -0.448 A  
HETATM   13  C   UNL     1     -12.940   9.262  72.480  1.00  0.00    -0.384 A  
HETATM   14  C   UNL     1     -13.010  10.386  71.659  1.00  0.00    -0.581 A  
HETATM   15  C   UNL     1     -12.099  10.546  70.615  1.00  0.00    -0.452 A  
ENDBRANCH   7  10
ENDBRANCH   2   3
TORSDOF 2
ENDMDL
MODEL      131
REMARK 921   NORMALIZED FREE ENERGY PREDICTED BY IDOCK:   -3.12 KCAL/MOL
REMARK 922        TOTAL FREE ENERGY PREDICTED BY IDOCK:   -3.62 KCAL/MOL
REMARK 923 INTER-LIGAND FREE ENERGY PREDICTED BY IDOCK:   -3.67 KCAL/MOL
REMARK 924 INTRA-LIGAND FREE ENERGY PREDICTED BY IDOCK:    0.05 KCAL/MOL
REMARK 927      BINDING AFFINITY PREDICTED BY RF-SCORE:    0.00 PKD
ROOT
HETATM    1  C   UNL     1     -10.335   8.136  69.292  1.00  0.00    -0.222 C  
HETATM    2  C   UNL     1      -9.684   9.314  70.004  1.00  0.00    -0.207 C  
ENDROOT
BRANCH   2   3
HETATM    3  N   UNL     1      -9.694  10.501  69.177  1.00  0.00    -0.212 N  
HETATM    4  C   UNL     1     -10.657  11.464  69.224  1.00  0.00    -0.108 C  
HETATM    5  N   UNL     1     -10.397  12.395  68.248  1.00  0.00    -0.222 NA 
HETATM    6  O   UNL     1     -11.615  11.519  69.978  1.00  0.00    -0.301 OA 
HETATM    7  C   UNL     1      -9.244  12.048  67.460  1.00  0.00    -0.180 C  
HETATM    8  O   UNL     1      -7.854  10.057  67.846  1.00  0.00    -0.090 OA 
HETATM    9  C   UNL     1      -8.813  10.752  68.156  1.00  0.00    -0.133 C  
BRANCH   7  10
HETATM   10  C   UNL     1      -9.584  11.882  66.000  1.00  0.00    -0.251 A  
HETATM   11  C   UNL     1      -9.249  10.693  65.335  1.00  0.00    -0.226 A  
HETATM   12  C   UNL     1      -9.559  10.521  63.984  1.00  0.00    -0.367 A  
HETATM   13  C   UNL     1     -10.206  11.534  63.280  1.00  0.00    -0.432 A  
HETATM   14  C   UNL     1     -10.541  12.723  63.924  1.00  0.00    -0.427 A  
HETATM   15  C   UNL     1     -10.230  12.898  65.273  1.00  0.00    -0.294 A  
ENDBRANCH   7  10
ENDBRANCH   2   3
TORSDOF 2
ENDMDL
MODEL      132
REMARK 921   NORMALIZED FREE ENERGY PREDICTED BY IDOCK:   -3.07 KCAL/MOL
REMARK 922        TOTAL FREE ENERGY PREDICTED BY IDOCK:   -3.57 KCAL/MOL
REMARK 923 INTER-LIGAND FREE ENERGY PREDICTED BY IDOCK:   -3.46 KCAL/MOL
REMARK 924 INTRA-LIGAND FREE ENERGY PREDICTED BY IDOCK:   -0.10 KCAL/MOL
REMARK 927      BINDING AFFINITY PREDICTED BY RF-SCORE:    0.00 PKD
ROOT
HETATM    1  C   UNL     1      -9.232   9.020  65.713  1.00  0.00    -0.293 C  
HETATM    2  C   UNL     1     -10.249   8.911  66.840  1.00  0.00    -0.276 C  
ENDROOT
BRANCH   2   3
HETATM    3  N   UNL     1      -9.906   7.846  67.758  1.00  0.00    -0.155 N  
HETATM    4  C   UNL     1     -10.456   6.599  67.730  1.00  0.00    -0.225 C  
HETATM    5  N   UNL     1      -9.965   5.878  68.791  1.00  0.00    -0.142 NA 
HETATM    6  O   UNL     1     -11.264   6.162  66.927  1.00  0.00    -0.290 OA 
HETATM    7  C   UNL     1      -9.083   6.659  69.617  1.00  0.00    -0.142 C  
HETATM    8  O   UNL     1      -8.465   8.993  69.156  1.00  0.00    -0.123 OA 
HETATM    9  C   UNL     1      -9.083   7.985  68.846  1.00  0.00    -0.144 C  
BRANCH   7  10
HETATM   10  C   UNL     1      -9.582   6.769  71.036  1.00  0.00    -0.175 A  
HETATM   11  C   UNL     1      -8.947   7.640  71.935  1.00  0.00    -0.149 A  
HETATM   12  C   UNL     1      -9.399   7.757  73.251  1.00  0.00    -0.331 A  
HETATM   13  C   UNL     1     -10.486   7.005  73.688  1.00  0.00    -0.414 A  
HETATM   14  C   UNL     1     -11.123   6.131  72.810  1.00  0.00    -0.294 A  
HETATM   15  C   UNL     1     -10.674   6.010  71.495  1.00  0.00    -0.309 A  
ENDBRANCH   7  10
ENDBRANCH   2   3
TORSDOF 2
ENDMDL
MODEL      133
REMARK 921   NORMALIZED FREE ENERGY PREDICTED BY IDOCK:   -3.05 KCAL/MOL
REMARK 922        TOTAL FREE ENERGY PREDICTED BY IDOCK:   -3.54 KCAL/MOL
REMARK 923 INTER-LIGAND FREE ENERGY PREDICTED BY IDOCK:   -3.24 KCAL/MOL
REMARK 924 INTRA-LIGAND FREE ENERGY PREDICTED BY IDOCK:   -0.29 KCAL/MOL
REMARK 927      BINDING AFFINITY PREDICTED BY RF-SCORE:    0.00 PKD
ROOT
HETATM    1  C   UNL     1     -12.292  10.305  71.204  1.00  0.00    -0.501 C  
HETATM    2  C   UNL     1     -10.988   9.522  71.133  1.00  0.00    -0.368 C  
ENDROOT
BRANCH   2   3
HETATM    3  N   UNL     1     -11.137   8.320  70.343  1.00  0.00    -0.249 N  
HETATM    4  C   UNL     1     -11.560   7.122  70.836  1.00  0.00    -0.311 C  
HETATM    5  N   UNL     1     -11.500   6.187  69.832  1.00  0.00    -0.394 NA 
HETATM    6  O   UNL     1     -11.922   6.874  71.975  1.00  0.00    -0.298 OA 
HETATM    7  C   UNL     1     -10.973   6.734  68.610  1.00  0.00    -0.199 C  
HETATM    8  O   UNL     1     -10.313   9.085  68.322  1.00  0.00    -0.198 OA 
HETATM    9  C   UNL     1     -10.757   8.193  69.031  1.00  0.00    -0.080 C  
BRANCH   7  10
HETATM   10  C   UNL     1      -9.717   6.027  68.167  1.00  0.00    -0.137 A  
HETATM   11  C   UNL     1      -8.861   5.458  69.123  1.00  0.00    -0.110 A  
HETATM   12  C   UNL     1      -7.695   4.796  68.730  1.00  0.00    -0.072 A  
HETATM   13  C   UNL     1      -7.368   4.694  67.380  1.00  0.00    -0.074 A  
HETATM   14  C   UNL     1      -8.204   5.259  66.419  1.00  0.00    -0.109 A  
HETATM   15  C   UNL     1      -9.368   5.923  66.809  1.00  0.00    -0.144 A  
ENDBRANCH   7  10
ENDBRANCH   2   3
TORSDOF 2
ENDMDL
MODEL      134
REMARK 921   NORMALIZED FREE ENERGY PREDICTED BY IDOCK:   -3.03 KCAL/MOL
REMARK 922        TOTAL FREE ENERGY PREDICTED BY IDOCK:   -3.53 KCAL/MOL
REMARK 923 INTER-LIGAND FREE ENERGY PREDICTED BY IDOCK:   -3.18 KCAL/MOL
REMARK 924 INTRA-LIGAND FREE ENERGY PREDICTED BY IDOCK:   -0.35 KCAL/MOL
REMARK 927      BINDING AFFINITY PREDICTED BY RF-SCORE:    0.00 PKD
ROOT
HETATM    1  C   UNL     1     -10.100   5.200  67.098  1.00  0.00    -0.244 C  
HETATM    2  C   UNL     1     -10.929   6.474  67.173  1.00  0.00    -0.408 C  
ENDROOT
BRANCH   2   3
HETATM    3  N   UNL     1     -10.540   7.291  68.301  1.00  0.00    -0.195 N  
HETATM    4  C   UNL     1      -9.549   8.225  68.270  1.00  0.00    -0.147 C  
HETATM    5  N   UNL     1      -9.394   8.746  69.532  1.00  0.00    -0.156 NA 
HETATM    6  O   UNL     1      -8.875   8.561  67.309  1.00  0.00    -0.128 OA 
HETATM    7  C   UNL     1     -10.270   8.122  70.487  1.00  0.00    -0.198 C  
HETATM    8  O   UNL     1     -11.905   6.373  69.928  1.00  0.00    -0.384 OA 
HETATM    9  C   UNL     1     -11.027   7.149  69.576  1.00  0.00    -0.191 C  
BRANCH   7  10
HETATM   10  C   UNL     1      -9.508   7.456  71.606  1.00  0.00    -0.163 A  
HETATM   11  C   UNL     1      -9.518   8.020  72.891  1.00  0.00    -0.346 A  
HETATM   12  C   UNL     1      -8.820   7.415  73.939  1.00  0.00    -0.270 A  
HETATM   13  C   UNL     1      -8.103   6.241  73.717  1.00  0.00    -0.105 A  
HETATM   14  C   UNL     1      -8.079   5.672  72.446  1.00  0.00    -0.107 A  
HETATM   15  C   UNL     1      -8.773   6.275  71.397  1.00  0.00    -0.135 A  
ENDBRANCH   7  10
ENDBRANCH   2   3
TORSDOF 2
ENDMDL
MODEL      135
REMARK 921   NORMALIZED FREE ENERGY PREDICTED BY IDOCK:   -3.02 KCAL/MOL
REMARK 922        TOTAL FREE ENERGY PREDICTED BY IDOCK:   -3.51 KCAL/MOL
REMARK 923 INTER-LIGAND FREE ENERGY PREDICTED BY IDOCK:   -4.15 KCAL/MOL
REMARK 924 INTRA-LIGAND FREE ENERGY PREDICTED BY IDOCK:    0.64 KCAL/MOL
REMARK 927      BINDING AFFINITY PREDICTED BY RF-SCORE:    0.00 PKD
ROOT
HETATM    1  C   UNL     1      -7.855  10.114  66.274  1.00  0.00    -0.113 C  
HETATM    2  C   UNL     1      -9.211   9.432  66.161  1.00  0.00    -0.190 C  
ENDROOT
BRANCH   2   3
HETATM    3  N   UNL     1      -9.672   8.958  67.447  1.00  0.00    -0.166 N  
HETATM    4  C   UNL     1     -10.452   7.855  67.627  1.00  0.00    -0.234 C  
HETATM    5  N   UNL     1     -10.768   7.752  68.960  1.00  0.00    -0.157 NA 
HETATM    6  O   UNL     1     -10.841   7.074  66.774  1.00  0.00    -0.318 OA 
HETATM    7  C   UNL     1     -10.235   8.843  69.730  1.00  0.00    -0.202 C  
HETATM    8  O   UNL     1      -8.860  10.654  68.794  1.00  0.00    -0.146 OA 
HETATM    9  C   UNL     1      -9.493   9.619  68.636  1.00  0.00    -0.146 C  
BRANCH   7  10
HETATM   10  C   UNL     1     -11.319   9.633  70.421  1.00  0.00    -0.337 A  
HETATM   11  C   UNL     1     -12.170   8.997  71.339  1.00  0.00    -0.387 A  
HETATM   12  C   UNL     1     -13.176   9.714  71.990  1.00  0.00    -0.546 A  
HETATM   13  C   UNL     1     -13.347  11.072  71.733  1.00  0.00    -0.400 A  
HETATM   14  C   UNL     1     -12.515  11.716  70.821  1.00  0.00    -0.425 A  
HETATM   15  C   UNL     1     -11.510  11.003  70.167  1.00  0.00    -0.383 A  
ENDBRANCH   7  10
ENDBRANCH   2   3
TORSDOF 2
ENDMDL
MODEL      136
REMARK 921   NORMALIZED FREE ENERGY PREDICTED BY IDOCK:   -3.02 KCAL/MOL
REMARK 922        TOTAL FREE ENERGY PREDICTED BY IDOCK:   -3.51 KCAL/MOL
REMARK 923 INTER-LIGAND FREE ENERGY PREDICTED BY IDOCK:   -4.07 KCAL/MOL
REMARK 924 INTRA-LIGAND FREE ENERGY PREDICTED BY IDOCK:    0.56 KCAL/MOL
REMARK 927      BINDING AFFINITY PREDICTED BY RF-SCORE:    0.00 PKD
ROOT
HETATM    1  C   UNL     1     -12.217  13.067  63.347  1.00  0.00    -0.552 C  
HETATM    2  C   UNL     1     -10.943  12.611  64.043  1.00  0.00    -0.406 C  
ENDROOT
BRANCH   2   3
HETATM    3  N   UNL     1     -10.603  13.483  65.145  1.00  0.00    -0.336 N  
HETATM    4  C   UNL     1     -10.781  14.834  65.141  1.00  0.00    -0.415 C  
HETATM    5  N   UNL     1     -10.272  15.349  66.308  1.00  0.00    -0.275 NA 
HETATM    6  O   UNL     1     -11.286  15.514  64.262  1.00  0.00    -0.292 OA 
HETATM    7  C   UNL     1      -9.674  14.334  67.135  1.00  0.00    -0.254 C  
HETATM    8  O   UNL     1      -9.621  11.943  66.565  1.00  0.00    -0.203 OA 
HETATM    9  C   UNL     1      -9.946  13.088  66.283  1.00  0.00    -0.283 C  
BRANCH   7  10
HETATM   10  C   UNL     1      -8.212  14.601  67.392  1.00  0.00    -0.220 A  
HETATM   11  C   UNL     1      -7.399  13.586  67.921  1.00  0.00    -0.149 A  
HETATM   12  C   UNL     1      -6.043  13.814  68.163  1.00  0.00    -0.120 A  
HETATM   13  C   UNL     1      -5.481  15.057  67.882  1.00  0.00    -0.120 A  
HETATM   14  C   UNL     1      -6.275  16.077  67.363  1.00  0.00    -0.191 A  
HETATM   15  C   UNL     1      -7.631  15.852  67.122  1.00  0.00    -0.255 A  
ENDBRANCH   7  10
ENDBRANCH   2   3
TORSDOF 2
ENDMDL
MODEL      137
REMARK 921   NORMALIZED FREE ENERGY PREDICTED BY IDOCK:   -3.01 KCAL/MOL
REMARK 922        TOTAL FREE ENERGY PREDICTED BY IDOCK:   -3.50 KCAL/MOL
REMARK 923 INTER-LIGAND FREE ENERGY PREDICTED BY IDOCK:   -3.21 KCAL/MOL
REMARK 924 INTRA-LIGAND FREE ENERGY PREDICTED BY IDOCK:   -0.29 KCAL/MOL
REMARK 927      BINDING AFFINITY PREDICTED BY RF-SCORE:    0.00 PKD
ROOT
HETATM    1  C   UNL     1     -12.845  13.327  65.267  1.00  0.00    -0.368 C  
HETATM    2  C   UNL     1     -12.295  14.328  66.272  1.00  0.00    -0.373 C  
ENDROOT
BRANCH   2   3
HETATM    3  N   UNL     1     -10.925  14.025  66.623  1.00  0.00    -0.297 N  
HETATM    4  C   UNL     1     -10.554  13.076  67.528  1.00  0.00    -0.230 C  
HETATM    5  N   UNL     1      -9.189  13.117  67.676  1.00  0.00    -0.197 NA 
HETATM    6  O   UNL     1     -11.280  12.309  68.140  1.00  0.00    -0.232 OA 
HETATM    7  C   UNL     1      -8.589  14.161  66.887  1.00  0.00    -0.133 C  
HETATM    8  O   UNL     1      -9.843  15.659  65.395  1.00  0.00    -0.310 OA 
HETATM    9  C   UNL     1      -9.831  14.730  66.190  1.00  0.00    -0.312 C  
BRANCH   7  10
HETATM   10  C   UNL     1      -7.846  15.160  67.739  1.00  0.00    -0.161 A  
HETATM   11  C   UNL     1      -6.454  15.289  67.609  1.00  0.00    -0.188 A  
HETATM   12  C   UNL     1      -5.750  16.211  68.387  1.00  0.00    -0.108 A  
HETATM   13  C   UNL     1      -6.425  17.013  69.305  1.00  0.00    -0.231 A  
HETATM   14  C   UNL     1      -7.805  16.893  69.449  1.00  0.00     0.138 A  
HETATM   15  C   UNL     1      -8.511  15.971  68.675  1.00  0.00    -0.208 A  
ENDBRANCH   7  10
ENDBRANCH   2   3
TORSDOF 2
ENDMDL
MODEL      138
REMARK 921   NORMALIZED FREE ENERGY PREDICTED BY IDOCK:   -2.98 KCAL/MOL
REMARK 922        TOTAL FREE ENERGY PREDICTED BY IDOCK:   -3.46 KCAL/MOL
REMARK 923 INTER-LIGAND FREE ENERGY PREDICTED BY IDOCK:   -3.11 KCAL/MOL
REMARK 924 INTRA-LIGAND FREE ENERGY PREDICTED BY IDOCK:   -0.35 KCAL/MOL
REMARK 927      BINDING AFFINITY PREDICTED BY RF-SCORE:    0.00 PKD
ROOT
HETATM    1  C   UNL     1      -8.243   6.045  66.081  1.00  0.00    -0.121 C  
HETATM    2  C   UNL     1      -7.381   5.059  66.856  1.00  0.00    -0.086 C  
ENDROOT
BRANCH   2   3
HETATM    3  N   UNL     1      -8.089   4.525  67.999  1.00  0.00    -0.091 N  
HETATM    4  C   UNL     1      -8.954   3.474  67.946  1.00  0.00    -0.139 C  
HETATM    5  N   UNL     1      -9.504   3.294  69.192  1.00  0.00    -0.158 NA 
HETATM    6  O   UNL     1      -9.236   2.792  66.974  1.00  0.00    -0.164 OA 
HETATM    7  C   UNL     1      -9.048   4.280  70.135  1.00  0.00    -0.109 C  
HETATM    8  O   UNL     1      -7.422   6.047  69.609  1.00  0.00    -0.076 OA 
HETATM    9  C   UNL     1      -8.079   5.078  69.255  1.00  0.00    -0.083 C  
BRANCH   7  10
HETATM   10  C   UNL     1     -10.184   5.094  70.700  1.00  0.00    -0.326 A  
HETATM   11  C   UNL     1     -10.959   5.898  69.849  1.00  0.00    -0.444 A  
HETATM   12  C   UNL     1     -12.017   6.657  70.354  1.00  0.00    -0.342 A  
HETATM   13  C   UNL     1     -12.315   6.624  71.714  1.00  0.00    -0.385 A  
HETATM   14  C   UNL     1     -11.553   5.836  72.573  1.00  0.00    -0.321 A  
HETATM   15  C   UNL     1     -10.493   5.079  72.072  1.00  0.00    -0.269 A  
ENDBRANCH   7  10
ENDBRANCH   2   3
TORSDOF 2
ENDMDL
MODEL      139
REMARK 921   NORMALIZED FREE ENERGY PREDICTED BY IDOCK:   -2.96 KCAL/MOL
REMARK 922        TOTAL FREE ENERGY PREDICTED BY IDOCK:   -3.44 KCAL/MOL
REMARK 923 INTER-LIGAND FREE ENERGY PREDICTED BY IDOCK:   -3.40 KCAL/MOL
REMARK 924 INTRA-LIGAND FREE ENERGY PREDICTED BY IDOCK:   -0.04 KCAL/MOL
REMARK 927      BINDING AFFINITY PREDICTED BY RF-SCORE:    0.00 PKD
ROOT
HETATM    1  C   UNL     1     -10.875  18.892  67.316  1.00  0.00    -0.448 C  
HETATM    2  C   UNL     1      -9.646  18.225  67.918  1.00  0.00    -0.289 C  
ENDROOT
BRANCH   2   3
HETATM    3  N   UNL     1      -9.806  16.788  67.985  1.00  0.00    -0.258 N  
HETATM    4  C   UNL     1     -10.337  16.122  69.048  1.00  0.00    -0.258 C  
HETATM    5  N   UNL     1     -10.256  14.772  68.806  1.00  0.00    -0.234 NA 
HETATM    6  O   UNL     1     -10.802  16.602  70.069  1.00  0.00    -0.329 OA 
HETATM    7  C   UNL     1      -9.602  14.482  67.557  1.00  0.00    -0.210 C  
HETATM    8  O   UNL     1      -8.781  16.196  65.998  1.00  0.00    -0.331 OA 
HETATM    9  C   UNL     1      -9.333  15.904  67.050  1.00  0.00    -0.215 C  
BRANCH   7  10
HETATM   10  C   UNL     1      -8.360  13.647  67.747  1.00  0.00    -0.181 A  
HETATM   11  C   UNL     1      -7.094  14.234  67.597  1.00  0.00    -0.200 A  
HETATM   12  C   UNL     1      -5.934  13.477  67.772  1.00  0.00    -0.135 A  
HETATM   13  C   UNL     1      -6.022  12.125  68.098  1.00  0.00    -0.055 A  
HETATM   14  C   UNL     1      -7.271  11.527  68.245  1.00  0.00    -0.084 A  
HETATM   15  C   UNL     1      -8.432  12.280  68.068  1.00  0.00    -0.171 A  
ENDBRANCH   7  10
ENDBRANCH   2   3
TORSDOF 2
ENDMDL
MODEL      140
REMARK 921   NORMALIZED FREE ENERGY PREDICTED BY IDOCK:   -2.92 KCAL/MOL
REMARK 922        TOTAL FREE ENERGY PREDICTED BY IDOCK:   -3.39 KCAL/MOL
REMARK 923 INTER-LIGAND FREE ENERGY PREDICTED BY IDOCK:   -3.27 KCAL/MOL
REMARK 924 INTRA-LIGAND FREE ENERGY PREDICTED BY IDOCK:   -0.13 KCAL/MOL
REMARK 927      BINDING AFFINITY PREDICTED BY RF-SCORE:    0.00 PKD
ROOT
HETATM    1  C   UNL     1     -12.352   9.661  71.671  1.00  0.00    -0.489 C  
HETATM    2  C   UNL     1     -11.177   9.211  70.815  1.00  0.00    -0.277 C  
ENDROOT
BRANCH   2   3
HETATM    3  N   UNL     1     -10.596   7.986  71.318  1.00  0.00    -0.207 N  
HETATM    4  C   UNL     1      -9.567   7.931  72.209  1.00  0.00    -0.195 C  
HETATM    5  N   UNL     1      -9.216   6.616  72.397  1.00  0.00    -0.136 NA 
HETATM    6  O   UNL     1      -9.009   8.868  72.758  1.00  0.00    -0.305 OA 
HETATM    7  C   UNL     1      -9.991   5.725  71.575  1.00  0.00    -0.180 C  
HETATM    8  O   UNL     1     -11.781   6.452  70.055  1.00  0.00    -0.429 OA 
HETATM    9  C   UNL     1     -10.916   6.728  70.875  1.00  0.00    -0.260 C  
BRANCH   7  10
HETATM   10  C   UNL     1      -9.125   4.923  70.636  1.00  0.00    -0.174 A  
HETATM   11  C   UNL     1      -9.721   4.104  69.663  1.00  0.00    -0.269 A  
HETATM   12  C   UNL     1      -8.935   3.357  68.784  1.00  0.00    -0.183 A  
HETATM   13  C   UNL     1      -7.545   3.415  68.864  1.00  0.00    -0.052 A  
HETATM   14  C   UNL     1      -6.939   4.218  69.827  1.00  0.00    -0.042 A  
HETATM   15  C   UNL     1      -7.722   4.964  70.709  1.00  0.00    -0.070 A  
ENDBRANCH   7  10
ENDBRANCH   2   3
TORSDOF 2
ENDMDL
MODEL      141
REMARK 921   NORMALIZED FREE ENERGY PREDICTED BY IDOCK:   -2.89 KCAL/MOL
REMARK 922        TOTAL FREE ENERGY PREDICTED BY IDOCK:   -3.36 KCAL/MOL
REMARK 923 INTER-LIGAND FREE ENERGY PREDICTED BY IDOCK:   -3.10 KCAL/MOL
REMARK 924 INTRA-LIGAND FREE ENERGY PREDICTED BY IDOCK:   -0.26 KCAL/MOL
REMARK 927      BINDING AFFINITY PREDICTED BY RF-SCORE:    0.00 PKD
ROOT
HETATM    1  C   UNL     1     -11.136   6.224  66.961  1.00  0.00    -0.379 C  
HETATM    2  C   UNL     1     -10.390   7.469  67.420  1.00  0.00    -0.276 C  
ENDROOT
BRANCH   2   3
HETATM    3  N   UNL     1      -9.770   7.266  68.711  1.00  0.00    -0.149 N  
HETATM    4  C   UNL     1      -8.443   7.021  68.897  1.00  0.00    -0.125 C  
HETATM    5  N   UNL     1      -8.220   6.795  70.234  1.00  0.00    -0.124 NA 
HETATM    6  O   UNL     1      -7.568   6.982  68.047  1.00  0.00    -0.106 OA 
HETATM    7  C   UNL     1      -9.437   6.835  71.001  1.00  0.00    -0.164 C  
HETATM    8  O   UNL     1     -11.654   7.313  70.052  1.00  0.00    -0.176 OA 
HETATM    9  C   UNL     1     -10.449   7.169  69.899  1.00  0.00    -0.223 C  
BRANCH   7  10
HETATM   10  C   UNL     1      -9.703   5.530  71.710  1.00  0.00    -0.202 A  
HETATM   11  C   UNL     1      -9.422   4.315  71.065  1.00  0.00    -0.236 A  
HETATM   12  C   UNL     1      -9.659   3.097  71.708  1.00  0.00    -0.227 A  
HETATM   13  C   UNL     1     -10.180   3.077  72.999  1.00  0.00    -0.229 A  
HETATM   14  C   UNL     1     -10.470   4.274  73.650  1.00  0.00    -0.273 A  
HETATM   15  C   UNL     1     -10.236   5.492  73.010  1.00  0.00    -0.214 A  
ENDBRANCH   7  10
ENDBRANCH   2   3
TORSDOF 2
ENDMDL
MODEL      142
REMARK 921   NORMALIZED FREE ENERGY PREDICTED BY IDOCK:   -2.87 KCAL/MOL
REMARK 922        TOTAL FREE ENERGY PREDICTED BY IDOCK:   -3.34 KCAL/MOL
REMARK 923 INTER-LIGAND FREE ENERGY PREDICTED BY IDOCK:   -3.24 KCAL/MOL
REMARK 924 INTRA-LIGAND FREE ENERGY PREDICTED BY IDOCK:   -0.10 KCAL/MOL
REMARK 927      BINDING AFFINITY PREDICTED BY RF-SCORE:    0.00 PKD
ROOT
HETATM    1  C   UNL     1     -12.900  12.519  64.408  1.00  0.00    -0.366 C  
HETATM    2  C   UNL     1     -12.350  13.243  65.629  1.00  0.00    -0.465 C  
ENDROOT
BRANCH   2   3
HETATM    3  N   UNL     1     -11.164  12.590  66.139  1.00  0.00    -0.305 N  
HETATM    4  C   UNL     1     -11.176  11.556  67.026  1.00  0.00    -0.300 C  
HETATM    5  N   UNL     1      -9.879  11.243  67.354  1.00  0.00    -0.180 NA 
HETATM    6  O   UNL     1     -12.150  10.986  67.489  1.00  0.00    -0.344 OA 
HETATM    7  C   UNL     1      -8.931  12.117  66.716  1.00  0.00    -0.203 C  
HETATM    8  O   UNL     1      -9.543  13.922  65.165  1.00  0.00    -0.044 OA 
HETATM    9  C   UNL     1      -9.878  13.002  65.897  1.00  0.00    -0.237 C  
BRANCH   7  10
HETATM   10  C   UNL     1      -8.091  12.870  67.717  1.00  0.00    -0.166 A  
HETATM   11  C   UNL     1      -7.035  12.220  68.374  1.00  0.00    -0.082 A  
HETATM   12  C   UNL     1      -6.245  12.903  69.301  1.00  0.00    -0.104 A  
HETATM   13  C   UNL     1      -6.499  14.242  69.586  1.00  0.00    -0.140 A  
HETATM   14  C   UNL     1      -7.547  14.901  68.947  1.00  0.00    -0.144 A  
HETATM   15  C   UNL     1      -8.340  14.220  68.022  1.00  0.00    -0.157 A  
ENDBRANCH   7  10
ENDBRANCH   2   3
TORSDOF 2
ENDMDL
MODEL      143
REMARK 921   NORMALIZED FREE ENERGY PREDICTED BY IDOCK:   -2.86 KCAL/MOL
REMARK 922        TOTAL FREE ENERGY PREDICTED BY IDOCK:   -3.34 KCAL/MOL
REMARK 923 INTER-LIGAND FREE ENERGY PREDICTED BY IDOCK:   -3.08 KCAL/MOL
REMARK 924 INTRA-LIGAND FREE ENERGY PREDICTED BY IDOCK:   -0.25 KCAL/MOL
REMARK 927      BINDING AFFINITY PREDICTED BY RF-SCORE:    0.00 PKD
ROOT
HETATM    1  C   UNL     1      -7.623   8.229  70.887  1.00  0.00    -0.076 C  
HETATM    2  C   UNL     1      -8.964   8.945  70.941  1.00  0.00    -0.222 C  
ENDROOT
BRANCH   2   3
HETATM    3  N   UNL     1      -9.689   8.802  69.697  1.00  0.00    -0.170 N  
HETATM    4  C   UNL     1     -10.248   7.639  69.261  1.00  0.00    -0.210 C  
HETATM    5  N   UNL     1     -10.777   7.846  68.010  1.00  0.00    -0.115 NA 
HETATM    6  O   UNL     1     -10.281   6.567  69.844  1.00  0.00    -0.176 OA 
HETATM    7  C   UNL     1     -10.538   9.182  67.534  1.00  0.00    -0.249 C  
HETATM    8  O   UNL     1      -9.376  10.922  68.825  1.00  0.00    -0.179 OA 
HETATM    9  C   UNL     1      -9.800   9.778  68.739  1.00  0.00    -0.169 C  
BRANCH   7  10
HETATM   10  C   UNL     1      -9.741   9.194  66.253  1.00  0.00    -0.344 A  
HETATM   11  C   UNL     1     -10.071  10.100  65.234  1.00  0.00    -0.344 A  
HETATM   12  C   UNL     1      -9.342  10.127  64.043  1.00  0.00    -0.339 A  
HETATM   13  C   UNL     1      -8.276   9.250  63.854  1.00  0.00    -0.165 A  
HETATM   14  C   UNL     1      -7.940   8.340  64.854  1.00  0.00    -0.144 A  
HETATM   15  C   UNL     1      -8.668   8.309  66.044  1.00  0.00    -0.181 A  
ENDBRANCH   7  10
ENDBRANCH   2   3
TORSDOF 2
ENDMDL
MODEL      144
REMARK 921   NORMALIZED FREE ENERGY PREDICTED BY IDOCK:   -2.86 KCAL/MOL
REMARK 922        TOTAL FREE ENERGY PREDICTED BY IDOCK:   -3.33 KCAL/MOL
REMARK 923 INTER-LIGAND FREE ENERGY PREDICTED BY IDOCK:   -2.98 KCAL/MOL
REMARK 924 INTRA-LIGAND FREE ENERGY PREDICTED BY IDOCK:   -0.34 KCAL/MOL
REMARK 927      BINDING AFFINITY PREDICTED BY RF-SCORE:    0.00 PKD
ROOT
HETATM    1  C   UNL     1      -6.270  13.890  70.038  1.00  0.00    -0.131 C  
HETATM    2  C   UNL     1      -6.660  14.496  68.698  1.00  0.00    -0.087 C  
ENDROOT
BRANCH   2   3
HETATM    3  N   UNL     1      -7.875  13.903  68.184  1.00  0.00    -0.134 N  
HETATM    4  C   UNL     1      -9.132  14.317  68.510  1.00  0.00    -0.191 C  
HETATM    5  N   UNL     1     -10.040  13.479  67.911  1.00  0.00    -0.242 NA 
HETATM    6  O   UNL     1      -9.442  15.258  69.223  1.00  0.00    -0.224 OA 
HETATM    7  C   UNL     1      -9.401  12.415  67.183  1.00  0.00    -0.199 C  
HETATM    8  O   UNL     1      -6.965  12.153  66.975  1.00  0.00    -0.137 OA 
HETATM    9  C   UNL     1      -7.927  12.774  67.407  1.00  0.00    -0.179 C  
BRANCH   7  10
HETATM   10  C   UNL     1      -9.792  11.055  67.706  1.00  0.00    -0.190 A  
HETATM   11  C   UNL     1      -9.808  10.816  69.089  1.00  0.00    -0.194 A  
HETATM   12  C   UNL     1     -10.171   9.564  69.591  1.00  0.00    -0.234 A  
HETATM   13  C   UNL     1     -10.522   8.536  68.719  1.00  0.00    -0.208 A  
HETATM   14  C   UNL     1     -10.505   8.755  67.344  1.00  0.00    -0.349 A  
HETATM   15  C   UNL     1     -10.140  10.004  66.840  1.00  0.00    -0.287 A  
ENDBRANCH   7  10
ENDBRANCH   2   3
TORSDOF 2
ENDMDL
MODEL      145
REMARK 921   NORMALIZED FREE ENERGY PREDICTED BY IDOCK:   -2.85 KCAL/MOL
REMARK 922        TOTAL FREE ENERGY PREDICTED BY IDOCK:   -3.31 KCAL/MOL
REMARK 923 INTER-LIGAND FREE ENERGY PREDICTED BY IDOCK:   -3.04 KCAL/MOL
REMARK 924 INTRA-LIGAND FREE ENERGY PREDICTED BY IDOCK:   -0.27 KCAL/MOL
REMARK 927      BINDING AFFINITY PREDICTED BY RF-SCORE:    0.00 PKD
ROOT
HETATM    1  C   UNL     1      -6.177   9.758  69.738  1.00  0.00    -0.048 C  
HETATM    2  C   UNL     1      -7.540  10.427  69.640  1.00  0.00    -0.153 C  
ENDROOT
BRANCH   2   3
HETATM    3  N   UNL     1      -7.729  11.052  68.349  1.00  0.00    -0.111 N  
HETATM    4  C   UNL     1      -7.184  12.247  67.985  1.00  0.00    -0.102 C  
HETATM    5  N   UNL     1      -7.640  12.576  66.731  1.00  0.00     0.099 NA 
HETATM    6  O   UNL     1      -6.429  12.949  68.639  1.00  0.00    -0.075 OA 
HETATM    7  C   UNL     1      -8.571  11.605  66.221  1.00  0.00    -0.103 C  
HETATM    8  O   UNL     1      -9.229   9.560  67.415  1.00  0.00    -0.133 OA 
HETATM    9  C   UNL     1      -8.575  10.592  67.372  1.00  0.00    -0.122 C  
BRANCH   7  10
HETATM   10  C   UNL     1      -9.920  12.213  65.927  1.00  0.00    -0.267 A  
HETATM   11  C   UNL     1     -10.433  12.176  64.621  1.00  0.00    -0.336 A  
HETATM   12  C   UNL     1     -11.682  12.731  64.331  1.00  0.00    -0.426 A  
HETATM   13  C   UNL     1     -12.433  13.330  65.340  1.00  0.00    -0.543 A  
HETATM   14  C   UNL     1     -11.935  13.381  66.640  1.00  0.00    -0.452 A  
HETATM   15  C   UNL     1     -10.686  12.829  66.932  1.00  0.00    -0.272 A  
ENDBRANCH   7  10
ENDBRANCH   2   3
TORSDOF 2
ENDMDL
MODEL      146
REMARK 921   NORMALIZED FREE ENERGY PREDICTED BY IDOCK:   -2.84 KCAL/MOL
REMARK 922        TOTAL FREE ENERGY PREDICTED BY IDOCK:   -3.31 KCAL/MOL
REMARK 923 INTER-LIGAND FREE ENERGY PREDICTED BY IDOCK:   -2.96 KCAL/MOL
REMARK 924 INTRA-LIGAND FREE ENERGY PREDICTED BY IDOCK:   -0.35 KCAL/MOL
REMARK 927      BINDING AFFINITY PREDICTED BY RF-SCORE:    0.00 PKD
ROOT
HETATM    1  C   UNL     1      -8.202   6.793  64.723  1.00  0.00    -0.052 C  
HETATM    2  C   UNL     1      -7.824   5.754  65.768  1.00  0.00    -0.102 C  
ENDROOT
BRANCH   2   3
HETATM    3  N   UNL     1      -8.618   5.901  66.968  1.00  0.00    -0.111 N  
HETATM    4  C   UNL     1      -9.851   5.349  67.148  1.00  0.00    -0.158 C  
HETATM    5  N   UNL     1     -10.345   5.762  68.362  1.00  0.00    -0.196 NA 
HETATM    6  O   UNL     1     -10.458   4.621  66.380  1.00  0.00    -0.268 OA 
HETATM    7  C   UNL     1      -9.452   6.671  69.031  1.00  0.00    -0.131 C  
HETATM    8  O   UNL     1      -7.264   7.360  68.146  1.00  0.00    -0.085 OA 
HETATM    9  C   UNL     1      -8.293   6.710  68.027  1.00  0.00    -0.117 C  
BRANCH   7  10
HETATM   10  C   UNL     1     -10.094   8.011  69.287  1.00  0.00    -0.198 A  
HETATM   11  C   UNL     1     -10.453   8.375  70.595  1.00  0.00    -0.227 A  
HETATM   12  C   UNL     1     -11.045   9.614  70.851  1.00  0.00    -0.422 A  
HETATM   13  C   UNL     1     -11.287  10.504  69.807  1.00  0.00    -0.367 A  
HETATM   14  C   UNL     1     -10.942  10.155  68.503  1.00  0.00    -0.278 A  
HETATM   15  C   UNL     1     -10.352   8.917  68.244  1.00  0.00    -0.250 A  
ENDBRANCH   7  10
ENDBRANCH   2   3
TORSDOF 2
ENDMDL
MODEL      147
REMARK 921   NORMALIZED FREE ENERGY PREDICTED BY IDOCK:   -2.79 KCAL/MOL
REMARK 922        TOTAL FREE ENERGY PREDICTED BY IDOCK:   -3.25 KCAL/MOL
REMARK 923 INTER-LIGAND FREE ENERGY PREDICTED BY IDOCK:   -3.23 KCAL/MOL
REMARK 924 INTRA-LIGAND FREE ENERGY PREDICTED BY IDOCK:   -0.03 KCAL/MOL
REMARK 927      BINDING AFFINITY PREDICTED BY RF-SCORE:    0.00 PKD
ROOT
HETATM    1  C   UNL     1     -10.656   5.448  70.255  1.00  0.00    -0.329 C  
HETATM    2  C   UNL     1     -10.084   6.384  71.310  1.00  0.00    -0.187 C  
ENDROOT
BRANCH   2   3
HETATM    3  N   UNL     1      -9.814   7.695  70.761  1.00  0.00    -0.178 N  
HETATM    4  C   UNL     1     -10.551   8.809  71.031  1.00  0.00    -0.230 C  
HETATM    5  N   UNL     1     -10.067   9.851  70.278  1.00  0.00    -0.266 NA 
HETATM    6  O   UNL     1     -11.500   8.905  71.792  1.00  0.00    -0.307 OA 
HETATM    7  C   UNL     1      -8.989   9.443  69.417  1.00  0.00    -0.157 C  
HETATM    8  O   UNL     1      -8.068   7.165  69.341  1.00  0.00    -0.125 OA 
HETATM    9  C   UNL     1      -8.866   7.965  69.808  1.00  0.00    -0.141 C  
BRANCH   7  10
HETATM   10  C   UNL     1      -9.308   9.672  67.960  1.00  0.00    -0.142 A  
HETATM   11  C   UNL     1     -10.463  10.384  67.602  1.00  0.00    -0.277 A  
HETATM   12  C   UNL     1     -10.772  10.609  66.258  1.00  0.00    -0.172 A  
HETATM   13  C   UNL     1      -9.933  10.126  65.257  1.00  0.00    -0.381 A  
HETATM   14  C   UNL     1      -8.786   9.413  65.596  1.00  0.00    -0.208 A  
HETATM   15  C   UNL     1      -8.476   9.184  66.937  1.00  0.00    -0.124 A  
ENDBRANCH   7  10
ENDBRANCH   2   3
TORSDOF 2
ENDMDL
MODEL      148
REMARK 921   NORMALIZED FREE ENERGY PREDICTED BY IDOCK:   -2.68 KCAL/MOL
REMARK 922        TOTAL FREE ENERGY PREDICTED BY IDOCK:   -3.13 KCAL/MOL
REMARK 923 INTER-LIGAND FREE ENERGY PREDICTED BY IDOCK:   -2.81 KCAL/MOL
REMARK 924 INTRA-LIGAND FREE ENERGY PREDICTED BY IDOCK:   -0.31 KCAL/MOL
REMARK 927      BINDING AFFINITY PREDICTED BY RF-SCORE:    0.00 PKD
ROOT
HETATM    1  C   UNL     1      -8.635  12.420  67.582  1.00  0.00    -0.172 C  
HETATM    2  C   UNL     1      -9.067  11.420  68.644  1.00  0.00    -0.135 C  
ENDROOT
BRANCH   2   3
HETATM    3  N   UNL     1      -9.637  10.231  68.049  1.00  0.00    -0.145 N  
HETATM    4  C   UNL     1     -10.972  10.021  67.875  1.00  0.00    -0.252 C  
HETATM    5  N   UNL     1     -11.156   8.760  67.364  1.00  0.00     0.187 NA 
HETATM    6  O   UNL     1     -11.884  10.790  68.133  1.00  0.00    -0.533 OA 
HETATM    7  C   UNL     1      -9.916   8.045  67.221  1.00  0.00    -0.217 C  
HETATM    8  O   UNL     1      -7.710   8.984  67.764  1.00  0.00    -0.095 OA 
HETATM    9  C   UNL     1      -8.924   9.113  67.698  1.00  0.00    -0.123 C  
BRANCH   7  10
HETATM   10  C   UNL     1      -9.896   6.775  68.035  1.00  0.00    -0.148 A  
HETATM   11  C   UNL     1      -9.323   5.611  67.499  1.00  0.00    -0.109 A  
HETATM   12  C   UNL     1      -9.294   4.427  68.240  1.00  0.00    -0.199 A  
HETATM   13  C   UNL     1      -9.835   4.390  69.523  1.00  0.00    -0.258 A  
HETATM   14  C   UNL     1     -10.413   5.535  70.066  1.00  0.00    -0.373 A  
HETATM   15  C   UNL     1     -10.446   6.718  69.328  1.00  0.00    -0.241 A  
ENDBRANCH   7  10
ENDBRANCH   2   3
TORSDOF 2
ENDMDL
MODEL      149
REMARK 921   NORMALIZED FREE ENERGY PREDICTED BY IDOCK:   -2.65 KCAL/MOL
REMARK 922        TOTAL FREE ENERGY PREDICTED BY IDOCK:   -3.10 KCAL/MOL
REMARK 923 INTER-LIGAND FREE ENERGY PREDICTED BY IDOCK:   -2.99 KCAL/MOL
REMARK 924 INTRA-LIGAND FREE ENERGY PREDICTED BY IDOCK:   -0.11 KCAL/MOL
REMARK 927      BINDING AFFINITY PREDICTED BY RF-SCORE:    0.00 PKD
ROOT
HETATM    1  C   UNL     1     -10.563  11.730  63.533  1.00  0.00    -0.499 C  
HETATM    2  C   UNL     1     -10.540  12.547  64.817  1.00  0.00    -0.305 C  
ENDROOT
BRANCH   2   3
HETATM    3  N   UNL     1     -10.193  11.727  65.957  1.00  0.00    -0.222 N  
HETATM    4  C   UNL     1     -10.971  11.583  67.067  1.00  0.00    -0.294 C  
HETATM    5  N   UNL     1     -10.298  10.807  67.979  1.00  0.00    -0.175 NA 
HETATM    6  O   UNL     1     -12.077  12.058  67.265  1.00  0.00    -0.572 OA 
HETATM    7  C   UNL     1      -8.987  10.437  67.514  1.00  0.00    -0.135 C  
HETATM    8  O   UNL     1      -8.072  11.060  65.319  1.00  0.00    -0.012 OA 
HETATM    9  C   UNL     1      -8.990  11.092  66.128  1.00  0.00    -0.191 C  
BRANCH   7  10
HETATM   10  C   UNL     1      -7.898  10.937  68.432  1.00  0.00    -0.123 A  
HETATM   11  C   UNL     1      -7.108  10.020  69.142  1.00  0.00    -0.069 A  
HETATM   12  C   UNL     1      -6.094  10.465  69.993  1.00  0.00    -0.083 A  
HETATM   13  C   UNL     1      -5.856  11.828  70.147  1.00  0.00    -0.156 A  
HETATM   14  C   UNL     1      -6.636  12.751  69.454  1.00  0.00    -0.064 A  
HETATM   15  C   UNL     1      -7.652  12.310  68.605  1.00  0.00    -0.089 A  
ENDBRANCH   7  10
ENDBRANCH   2   3
TORSDOF 2
ENDMDL
MODEL      150
REMARK 921   NORMALIZED FREE ENERGY PREDICTED BY IDOCK:   -2.65 KCAL/MOL
REMARK 922        TOTAL FREE ENERGY PREDICTED BY IDOCK:   -3.09 KCAL/MOL
REMARK 923 INTER-LIGAND FREE ENERGY PREDICTED BY IDOCK:   -2.94 KCAL/MOL
REMARK 924 INTRA-LIGAND FREE ENERGY PREDICTED BY IDOCK:   -0.15 KCAL/MOL
REMARK 927      BINDING AFFINITY PREDICTED BY RF-SCORE:    0.00 PKD
ROOT
HETATM    1  C   UNL     1     -10.531  11.296  63.916  1.00  0.00    -0.452 C  
HETATM    2  C   UNL     1      -9.850  11.352  65.275  1.00  0.00    -0.248 C  
ENDROOT
BRANCH   2   3
HETATM    3  N   UNL     1     -10.234  10.230  66.104  1.00  0.00    -0.234 N  
HETATM    4  C   UNL     1     -11.028  10.324  67.207  1.00  0.00    -0.210 C  
HETATM    5  N   UNL     1     -11.114   9.085  67.795  1.00  0.00     0.085 NA 
HETATM    6  O   UNL     1     -11.576  11.322  67.644  1.00  0.00    -0.490 OA 
HETATM    7  C   UNL     1     -10.315   8.103  67.110  1.00  0.00    -0.321 C  
HETATM    8  O   UNL     1      -8.998   8.561  65.086  1.00  0.00    -0.132 OA 
HETATM    9  C   UNL     1      -9.753   8.953  65.964  1.00  0.00    -0.238 C  
BRANCH   7  10
HETATM   10  C   UNL     1      -9.263   7.502  68.008  1.00  0.00    -0.137 A  
HETATM   11  C   UNL     1      -9.101   7.985  69.316  1.00  0.00    -0.148 A  
HETATM   12  C   UNL     1      -8.134   7.438  70.162  1.00  0.00    -0.131 A  
HETATM   13  C   UNL     1      -7.315   6.404  69.714  1.00  0.00    -0.080 A  
HETATM   14  C   UNL     1      -7.459   5.917  68.417  1.00  0.00    -0.086 A  
HETATM   15  C   UNL     1      -8.423   6.463  67.569  1.00  0.00    -0.116 A  
ENDBRANCH   7  10
ENDBRANCH   2   3
TORSDOF 2
ENDMDL
MODEL      151
REMARK 921   NORMALIZED FREE ENERGY PREDICTED BY IDOCK:   -2.62 KCAL/MOL
REMARK 922        TOTAL FREE ENERGY PREDICTED BY IDOCK:   -3.06 KCAL/MOL
REMARK 923 INTER-LIGAND FREE ENERGY PREDICTED BY IDOCK:   -2.75 KCAL/MOL
REMARK 924 INTRA-LIGAND FREE ENERGY PREDICTED BY IDOCK:   -0.31 KCAL/MOL
REMARK 927      BINDING AFFINITY PREDICTED BY RF-SCORE:    0.00 PKD
ROOT
HETATM    1  C   UNL     1      -9.524  16.059  67.839  1.00  0.00    -0.210 C  
HETATM    2  C   UNL     1      -9.581  14.819  66.959  1.00  0.00    -0.241 C  
ENDROOT
BRANCH   2   3
HETATM    3  N   UNL     1      -9.097  13.651  67.662  1.00  0.00    -0.197 N  
HETATM    4  C   UNL     1      -7.820  13.181  67.587  1.00  0.00    -0.169 C  
HETATM    5  N   UNL     1      -7.736  12.015  68.308  1.00  0.00    -0.120 NA 
HETATM    6  O   UNL     1      -6.883  13.673  66.979  1.00  0.00    -0.023 OA 
HETATM    7  C   UNL     1      -9.005  11.629  68.865  1.00  0.00     0.085 C  
HETATM    8  O   UNL     1     -11.076  12.930  68.617  1.00  0.00    -0.244 OA 
HETATM    9  C   UNL     1      -9.882  12.795  68.392  1.00  0.00    -0.196 C  
BRANCH   7  10
HETATM   10  C   UNL     1      -9.454  10.277  68.370  1.00  0.00    -0.149 A  
HETATM   11  C   UNL     1      -9.577  10.043  66.992  1.00  0.00    -0.212 A  
HETATM   12  C   UNL     1      -9.988   8.796  66.515  1.00  0.00    -0.360 A  
HETATM   13  C   UNL     1     -10.283   7.768  67.408  1.00  0.00    -0.320 A  
HETATM   14  C   UNL     1     -10.173   7.986  68.779  1.00  0.00    -0.220 A  
HETATM   15  C   UNL     1      -9.764   9.232  69.258  1.00  0.00    -0.169 A  
ENDBRANCH   7  10
ENDBRANCH   2   3
TORSDOF 2
ENDMDL
MODEL      152
REMARK 921   NORMALIZED FREE ENERGY PREDICTED BY IDOCK:   -2.60 KCAL/MOL
REMARK 922        TOTAL FREE ENERGY PREDICTED BY IDOCK:   -3.04 KCAL/MOL
REMARK 923 INTER-LIGAND FREE ENERGY PREDICTED BY IDOCK:   -2.78 KCAL/MOL
REMARK 924 INTRA-LIGAND FREE ENERGY PREDICTED BY IDOCK:   -0.26 KCAL/MOL
REMARK 927      BINDING AFFINITY PREDICTED BY RF-SCORE:    0.00 PKD
ROOT
HETATM    1  C   UNL     1      -7.357   6.734  68.277  1.00  0.00    -0.093 C  
HETATM    2  C   UNL     1      -6.842   6.004  69.508  1.00  0.00    -0.062 C  
ENDROOT
BRANCH   2   3
HETATM    3  N   UNL     1      -7.895   5.794  70.477  1.00  0.00    -0.098 N  
HETATM    4  C   UNL     1      -8.658   4.667  70.552  1.00  0.00    -0.094 C  
HETATM    5  N   UNL     1      -9.611   4.845  71.526  1.00  0.00    -0.154 NA 
HETATM    6  O   UNL     1      -8.558   3.656  69.876  1.00  0.00    -0.058 OA 
HETATM    7  C   UNL     1      -9.545   6.155  72.117  1.00  0.00    -0.150 C  
HETATM    8  O   UNL     1      -7.884   7.863  71.511  1.00  0.00    -0.085 OA 
HETATM    9  C   UNL     1      -8.348   6.741  71.360  1.00  0.00    -0.119 C  
BRANCH   7  10
HETATM   10  C   UNL     1     -10.829   6.925  71.935  1.00  0.00    -0.258 A  
HETATM   11  C   UNL     1     -11.811   6.447  71.053  1.00  0.00    -0.321 A  
HETATM   12  C   UNL     1     -13.008   7.145  70.874  1.00  0.00    -0.132 A  
HETATM   13  C   UNL     1     -13.238   8.329  71.571  1.00  0.00    -0.308 A  
HETATM   14  C   UNL     1     -12.271   8.820  72.445  1.00  0.00    -0.396 A  
HETATM   15  C   UNL     1     -11.074   8.126  72.624  1.00  0.00    -0.450 A  
ENDBRANCH   7  10
ENDBRANCH   2   3
TORSDOF 2
ENDMDL
MODEL      153
REMARK 921   NORMALIZED FREE ENERGY PREDICTED BY IDOCK:   -2.60 KCAL/MOL
REMARK 922        TOTAL FREE ENERGY PREDICTED BY IDOCK:   -3.04 KCAL/MOL
REMARK 923 INTER-LIGAND FREE ENERGY PREDICTED BY IDOCK:   -2.85 KCAL/MOL
REMARK 924 INTRA-LIGAND FREE ENERGY PREDICTED BY IDOCK:   -0.19 KCAL/MOL
REMARK 927      BINDING AFFINITY PREDICTED BY RF-SCORE:    0.00 PKD
ROOT
HETATM    1  C   UNL     1      -7.481   6.861  71.877  1.00  0.00    -0.088 C  
HETATM    2  C   UNL     1      -8.909   6.340  71.802  1.00  0.00    -0.137 C  
ENDROOT
BRANCH   2   3
HETATM    3  N   UNL     1      -9.636   6.949  70.709  1.00  0.00    -0.165 N  
HETATM    4  C   UNL     1      -9.365   6.735  69.391  1.00  0.00    -0.148 C  
HETATM    5  N   UNL     1     -10.189   7.535  68.637  1.00  0.00    -0.193 NA 
HETATM    6  O   UNL     1      -8.528   5.984  68.918  1.00  0.00    -0.115 OA 
HETATM    7  C   UNL     1     -11.030   8.370  69.453  1.00  0.00    -0.002 C  
HETATM    8  O   UNL     1     -11.045   8.335  71.911  1.00  0.00    -0.254 OA 
HETATM    9  C   UNL     1     -10.604   7.910  70.852  1.00  0.00    -0.213 C  
BRANCH   7  10
HETATM   10  C   UNL     1     -10.799   9.838  69.188  1.00  0.00    -0.231 A  
HETATM   11  C   UNL     1      -9.604  10.259  68.585  1.00  0.00    -0.169 A  
HETATM   12  C   UNL     1      -9.375  11.613  68.330  1.00  0.00    -0.191 A  
HETATM   13  C   UNL     1     -10.334  12.563  68.674  1.00  0.00    -0.193 A  
HETATM   14  C   UNL     1     -11.523  12.161  69.278  1.00  0.00    -0.363 A  
HETATM   15  C   UNL     1     -11.754  10.809  69.537  1.00  0.00    -0.384 A  
ENDBRANCH   7  10
ENDBRANCH   2   3
TORSDOF 2
ENDMDL
MODEL      154
REMARK 921   NORMALIZED FREE ENERGY PREDICTED BY IDOCK:   -2.58 KCAL/MOL
REMARK 922        TOTAL FREE ENERGY PREDICTED BY IDOCK:   -3.01 KCAL/MOL
REMARK 923 INTER-LIGAND FREE ENERGY PREDICTED BY IDOCK:   -2.87 KCAL/MOL
REMARK 924 INTRA-LIGAND FREE ENERGY PREDICTED BY IDOCK:   -0.14 KCAL/MOL
REMARK 927      BINDING AFFINITY PREDICTED BY RF-SCORE:    0.00 PKD
ROOT
HETATM    1  C   UNL     1      -6.881   8.436  71.118  1.00  0.00    -0.058 C  
HETATM    2  C   UNL     1      -8.167   9.047  70.581  1.00  0.00    -0.181 C  
ENDROOT
BRANCH   2   3
HETATM    3  N   UNL     1      -8.020   9.462  69.203  1.00  0.00    -0.088 N  
HETATM    4  C   UNL     1      -7.222  10.486  68.789  1.00  0.00    -0.084 C  
HETATM    5  N   UNL     1      -7.390  10.655  67.436  1.00  0.00    -0.091 NA 
HETATM    6  O   UNL     1      -6.481  11.173  69.473  1.00  0.00    -0.089 OA 
HETATM    7  C   UNL     1      -8.373   9.755  66.894  1.00  0.00    -0.120 C  
HETATM    8  O   UNL     1      -9.572   8.061  68.213  1.00  0.00    -0.144 OA 
HETATM    9  C   UNL     1      -8.751   8.967  68.154  1.00  0.00    -0.134 C  
BRANCH   7  10
HETATM   10  C   UNL     1      -9.526  10.491  66.256  1.00  0.00    -0.217 A  
HETATM   11  C   UNL     1     -10.451  11.173  67.061  1.00  0.00    -0.277 A  
HETATM   12  C   UNL     1     -11.522  11.862  66.487  1.00  0.00    -0.381 A  
HETATM   13  C   UNL     1     -11.684  11.878  65.104  1.00  0.00    -0.244 A  
HETATM   14  C   UNL     1     -10.777  11.201  64.291  1.00  0.00    -0.403 A  
HETATM   15  C   UNL     1      -9.708  10.509  64.862  1.00  0.00    -0.360 A  
ENDBRANCH   7  10
ENDBRANCH   2   3
TORSDOF 2
ENDMDL
MODEL      155
REMARK 921   NORMALIZED FREE ENERGY PREDICTED BY IDOCK:   -2.55 KCAL/MOL
REMARK 922        TOTAL FREE ENERGY PREDICTED BY IDOCK:   -2.99 KCAL/MOL
REMARK 923 INTER-LIGAND FREE ENERGY PREDICTED BY IDOCK:   -2.86 KCAL/MOL
REMARK 924 INTRA-LIGAND FREE ENERGY PREDICTED BY IDOCK:   -0.12 KCAL/MOL
REMARK 927      BINDING AFFINITY PREDICTED BY RF-SCORE:    0.00 PKD
ROOT
HETATM    1  C   UNL     1      -9.461   4.335  69.227  1.00  0.00    -0.254 C  
HETATM    2  C   UNL     1     -10.657   5.182  69.635  1.00  0.00    -0.086 C  
ENDROOT
BRANCH   2   3
HETATM    3  N   UNL     1     -10.699   6.426  68.898  1.00  0.00    -0.257 N  
HETATM    4  C   UNL     1     -10.789   6.514  67.541  1.00  0.00    -0.352 C  
HETATM    5  N   UNL     1     -10.718   7.838  67.180  1.00  0.00    -0.321 NA 
HETATM    6  O   UNL     1     -10.896   5.597  66.743  1.00  0.00    -0.291 OA 
HETATM    7  C   UNL     1     -10.524   8.700  68.314  1.00  0.00    -0.184 C  
HETATM    8  O   UNL     1     -10.397   7.916  70.641  1.00  0.00    -0.200 OA 
HETATM    9  C   UNL     1     -10.531   7.670  69.450  1.00  0.00    -0.220 C  
BRANCH   7  10
HETATM   10  C   UNL     1      -9.247   9.497  68.210  1.00  0.00    -0.132 A  
HETATM   11  C   UNL     1      -8.029   8.838  67.984  1.00  0.00    -0.106 A  
HETATM   12  C   UNL     1      -6.838   9.560  67.881  1.00  0.00    -0.074 A  
HETATM   13  C   UNL     1      -6.847  10.947  68.003  1.00  0.00    -0.068 A  
HETATM   14  C   UNL     1      -8.047  11.616  68.233  1.00  0.00    -0.150 A  
HETATM   15  C   UNL     1      -9.239  10.897  68.339  1.00  0.00    -0.168 A  
ENDBRANCH   7  10
ENDBRANCH   2   3
TORSDOF 2
ENDMDL
MODEL      156
REMARK 921   NORMALIZED FREE ENERGY PREDICTED BY IDOCK:   -2.49 KCAL/MOL
REMARK 922        TOTAL FREE ENERGY PREDICTED BY IDOCK:   -2.92 KCAL/MOL
REMARK 923 INTER-LIGAND FREE ENERGY PREDICTED BY IDOCK:   -2.91 KCAL/MOL
REMARK 924 INTRA-LIGAND FREE ENERGY PREDICTED BY IDOCK:   -0.01 KCAL/MOL
REMARK 927      BINDING AFFINITY PREDICTED BY RF-SCORE:    0.00 PKD
ROOT
HETATM    1  C   UNL     1     -11.633  10.123  70.654  1.00  0.00    -0.429 C  
HETATM    2  C   UNL     1     -10.467   9.807  69.730  1.00  0.00    -0.250 C  
ENDROOT
BRANCH   2   3
HETATM    3  N   UNL     1      -9.886   8.518  70.036  1.00  0.00    -0.177 N  
HETATM    4  C   UNL     1      -8.557   8.303  70.247  1.00  0.00    -0.127 C  
HETATM    5  N   UNL     1      -8.351   6.957  70.426  1.00  0.00    -0.128 NA 
HETATM    6  O   UNL     1      -7.664   9.135  70.265  1.00  0.00    -0.083 OA 
HETATM    7  C   UNL     1      -9.566   6.199  70.287  1.00  0.00    -0.163 C  
HETATM    8  O   UNL     1     -11.771   7.192  69.846  1.00  0.00    -0.129 OA 
HETATM    9  C   UNL     1     -10.570   7.329  70.032  1.00  0.00    -0.233 C  
BRANCH   7  10
HETATM   10  C   UNL     1      -9.479   5.186  69.172  1.00  0.00    -0.188 A  
HETATM   11  C   UNL     1      -9.452   3.816  69.474  1.00  0.00    -0.257 A  
HETATM   12  C   UNL     1      -9.375   2.864  68.454  1.00  0.00    -0.252 A  
HETATM   13  C   UNL     1      -9.321   3.268  67.122  1.00  0.00    -0.212 A  
HETATM   14  C   UNL     1      -9.341   4.624  66.807  1.00  0.00    -0.153 A  
HETATM   15  C   UNL     1      -9.416   5.577  67.823  1.00  0.00    -0.125 A  
ENDBRANCH   7  10
ENDBRANCH   2   3
TORSDOF 2
ENDMDL
MODEL      157
REMARK 921   NORMALIZED FREE ENERGY PREDICTED BY IDOCK:   -2.48 KCAL/MOL
REMARK 922        TOTAL FREE ENERGY PREDICTED BY IDOCK:   -2.91 KCAL/MOL
REMARK 923 INTER-LIGAND FREE ENERGY PREDICTED BY IDOCK:   -2.66 KCAL/MOL
REMARK 924 INTRA-LIGAND FREE ENERGY PREDICTED BY IDOCK:   -0.25 KCAL/MOL
REMARK 927      BINDING AFFINITY PREDICTED BY RF-SCORE:    0.00 PKD
ROOT
HETATM    1  C   UNL     1      -6.827  10.268  66.548  1.00  0.00    -0.101 C  
HETATM    2  C   UNL     1      -7.002  11.087  67.818  1.00  0.00    -0.080 C  
ENDROOT
BRANCH   2   3
HETATM    3  N   UNL     1      -7.309  12.468  67.517  1.00  0.00    -0.139 N  
HETATM    4  C   UNL     1      -6.438  13.503  67.681  1.00  0.00    -0.160 C  
HETATM    5  N   UNL     1      -7.087  14.676  67.381  1.00  0.00    -0.180 NA 
HETATM    6  O   UNL     1      -5.275  13.444  68.047  1.00  0.00    -0.097 OA 
HETATM    7  C   UNL     1      -8.469  14.461  67.044  1.00  0.00    -0.181 C  
HETATM    8  O   UNL     1      -9.541  12.251  66.950  1.00  0.00    -0.202 OA 
HETATM    9  C   UNL     1      -8.546  12.933  67.149  1.00  0.00    -0.198 C  
BRANCH   7  10
HETATM   10  C   UNL     1      -9.401  15.193  67.979  1.00  0.00    -0.187 A  
HETATM   11  C   UNL     1     -10.068  16.346  67.538  1.00  0.00    -0.261 A  
HETATM   12  C   UNL     1     -10.937  17.034  68.389  1.00  0.00    -0.263 A  
HETATM   13  C   UNL     1     -11.149  16.581  69.688  1.00  0.00    -0.235 A  
HETATM   14  C   UNL     1     -10.490  15.441  70.142  1.00  0.00    -0.291 A  
HETATM   15  C   UNL     1      -9.620  14.753  69.296  1.00  0.00    -0.082 A  
ENDBRANCH   7  10
ENDBRANCH   2   3
TORSDOF 2
ENDMDL
MODEL      158
REMARK 921   NORMALIZED FREE ENERGY PREDICTED BY IDOCK:   -2.44 KCAL/MOL
REMARK 922        TOTAL FREE ENERGY PREDICTED BY IDOCK:   -2.86 KCAL/MOL
REMARK 923 INTER-LIGAND FREE ENERGY PREDICTED BY IDOCK:   -3.15 KCAL/MOL
REMARK 924 INTRA-LIGAND FREE ENERGY PREDICTED BY IDOCK:    0.29 KCAL/MOL
REMARK 927      BINDING AFFINITY PREDICTED BY RF-SCORE:    0.00 PKD
ROOT
HETATM    1  C   UNL     1      -6.193   8.282  69.426  1.00  0.00    -0.037 C  
HETATM    2  C   UNL     1      -6.594   6.970  68.769  1.00  0.00    -0.044 C  
ENDROOT
BRANCH   2   3
HETATM    3  N   UNL     1      -7.909   6.546  69.198  1.00  0.00    -0.108 N  
HETATM    4  C   UNL     1      -8.896   6.126  68.356  1.00  0.00    -0.113 C  
HETATM    5  N   UNL     1     -10.030   5.885  69.093  1.00  0.00    -0.154 NA 
HETATM    6  O   UNL     1      -8.831   5.990  67.146  1.00  0.00    -0.110 OA 
HETATM    7  C   UNL     1      -9.847   6.192  70.487  1.00  0.00    -0.178 C  
HETATM    8  O   UNL     1      -7.737   6.994  71.461  1.00  0.00    -0.089 OA 
HETATM    9  C   UNL     1      -8.377   6.627  70.485  1.00  0.00    -0.130 C  
BRANCH   7  10
HETATM   10  C   UNL     1     -10.806   7.255  70.964  1.00  0.00    -0.258 A  
HETATM   11  C   UNL     1     -12.092   6.894  71.394  1.00  0.00    -0.408 A  
HETATM   12  C   UNL     1     -12.991   7.864  71.842  1.00  0.00    -0.323 A  
HETATM   13  C   UNL     1     -12.619   9.206  71.865  1.00  0.00    -0.463 A  
HETATM   14  C   UNL     1     -11.349   9.582  71.436  1.00  0.00    -0.462 A  
HETATM   15  C   UNL     1     -10.449   8.615  70.985  1.00  0.00    -0.276 A  
ENDBRANCH   7  10
ENDBRANCH   2   3
TORSDOF 2
ENDMDL
MODEL      159
REMARK 921   NORMALIZED FREE ENERGY PREDICTED BY IDOCK:   -2.40 KCAL/MOL
REMARK 922        TOTAL FREE ENERGY PREDICTED BY IDOCK:   -2.81 KCAL/MOL
REMARK 923 INTER-LIGAND FREE ENERGY PREDICTED BY IDOCK:   -2.59 KCAL/MOL
REMARK 924 INTRA-LIGAND FREE ENERGY PREDICTED BY IDOCK:   -0.23 KCAL/MOL
REMARK 927      BINDING AFFINITY PREDICTED BY RF-SCORE:    0.00 PKD
ROOT
HETATM    1  C   UNL     1      -6.392   9.970  70.449  1.00  0.00    -0.115 C  
HETATM    2  C   UNL     1      -6.273   8.640  71.178  1.00  0.00    -0.046 C  
ENDROOT
BRANCH   2   3
HETATM    3  N   UNL     1      -7.331   8.475  72.151  1.00  0.00    -0.098 N  
HETATM    4  C   UNL     1      -7.152   8.542  73.501  1.00  0.00    -0.014 C  
HETATM    5  N   UNL     1      -8.346   8.255  74.117  1.00  0.00    -0.256 NA 
HETATM    6  O   UNL     1      -6.120   8.793  74.101  1.00  0.00    -0.125 OA 
HETATM    7  C   UNL     1      -9.380   7.929  73.172  1.00  0.00    -0.272 C  
HETATM    8  O   UNL     1      -9.078   7.943  70.733  1.00  0.00    -0.149 OA 
HETATM    9  C   UNL     1      -8.618   8.109  71.854  1.00  0.00    -0.152 C  
BRANCH   7  10
HETATM   10  C   UNL     1      -9.926   6.539  73.386  1.00  0.00    -0.214 A  
HETATM   11  C   UNL     1      -9.212   5.621  74.171  1.00  0.00    -0.127 A  
HETATM   12  C   UNL     1      -9.704   4.331  74.382  1.00  0.00    -0.153 A  
HETATM   13  C   UNL     1     -10.914   3.941  73.813  1.00  0.00    -0.321 A  
HETATM   14  C   UNL     1     -11.632   4.839  73.026  1.00  0.00    -0.252 A  
HETATM   15  C   UNL     1     -11.142   6.127  72.811  1.00  0.00    -0.294 A  
ENDBRANCH   7  10
ENDBRANCH   2   3
TORSDOF 2
ENDMDL
MODEL      160
REMARK 921   NORMALIZED FREE ENERGY PREDICTED BY IDOCK:   -2.39 KCAL/MOL
REMARK 922        TOTAL FREE ENERGY PREDICTED BY IDOCK:   -2.81 KCAL/MOL
REMARK 923 INTER-LIGAND FREE ENERGY PREDICTED BY IDOCK:   -2.46 KCAL/MOL
REMARK 924 INTRA-LIGAND FREE ENERGY PREDICTED BY IDOCK:   -0.36 KCAL/MOL
REMARK 927      BINDING AFFINITY PREDICTED BY RF-SCORE:    0.00 PKD
ROOT
HETATM    1  C   UNL     1      -9.607   5.492  70.795  1.00  0.00    -0.220 C  
HETATM    2  C   UNL     1      -8.523   4.997  69.848  1.00  0.00    -0.088 C  
ENDROOT
BRANCH   2   3
HETATM    3  N   UNL     1      -8.127   6.029  68.914  1.00  0.00    -0.103 N  
HETATM    4  C   UNL     1      -7.184   6.979  69.170  1.00  0.00    -0.090 C  
HETATM    5  N   UNL     1      -7.127   7.840  68.101  1.00  0.00    -0.082 NA 
HETATM    6  O   UNL     1      -6.497   7.092  70.172  1.00  0.00    -0.037 OA 
HETATM    7  C   UNL     1      -8.093   7.513  67.087  1.00  0.00    -0.118 C  
HETATM    8  O   UNL     1      -9.631   5.599  67.210  1.00  0.00    -0.112 OA 
HETATM    9  C   UNL     1      -8.731   6.264  67.705  1.00  0.00    -0.113 C  
BRANCH   7  10
HETATM   10  C   UNL     1      -9.061   8.644  66.840  1.00  0.00    -0.175 A  
HETATM   11  C   UNL     1      -9.019   9.346  65.625  1.00  0.00    -0.236 A  
HETATM   12  C   UNL     1      -9.910  10.393  65.378  1.00  0.00    -0.347 A  
HETATM   13  C   UNL     1     -10.851  10.754  66.339  1.00  0.00    -0.172 A  
HETATM   14  C   UNL     1     -10.901  10.071  67.552  1.00  0.00    -0.326 A  
HETATM   15  C   UNL     1     -10.011   9.026  67.803  1.00  0.00    -0.235 A  
ENDBRANCH   7  10
ENDBRANCH   2   3
TORSDOF 2
ENDMDL
MODEL      161
REMARK 921   NORMALIZED FREE ENERGY PREDICTED BY IDOCK:   -2.37 KCAL/MOL
REMARK 922        TOTAL FREE ENERGY PREDICTED BY IDOCK:   -2.78 KCAL/MOL
REMARK 923 INTER-LIGAND FREE ENERGY PREDICTED BY IDOCK:   -2.45 KCAL/MOL
REMARK 924 INTRA-LIGAND FREE ENERGY PREDICTED BY IDOCK:   -0.33 KCAL/MOL
REMARK 927      BINDING AFFINITY PREDICTED BY RF-SCORE:    0.00 PKD
ROOT
HETATM    1  C   UNL     1     -12.251   8.440  70.863  1.00  0.00    -0.106 C  
HETATM    2  C   UNL     1     -12.503   7.111  71.560  1.00  0.00    -0.381 C  
ENDROOT
BRANCH   2   3
HETATM    3  N   UNL     1     -11.272   6.377  71.755  1.00  0.00    -0.264 N  
HETATM    4  C   UNL     1     -10.526   6.413  72.895  1.00  0.00    -0.220 C  
HETATM    5  N   UNL     1      -9.388   5.670  72.701  1.00  0.00    -0.141 NA 
HETATM    6  O   UNL     1     -10.781   7.008  73.930  1.00  0.00    -0.324 OA 
HETATM    7  C   UNL     1      -9.309   5.136  71.367  1.00  0.00    -0.148 C  
HETATM    8  O   UNL     1     -11.036   5.456  69.646  1.00  0.00    -0.232 OA 
HETATM    9  C   UNL     1     -10.631   5.650  70.784  1.00  0.00    -0.265 C  
BRANCH   7  10
HETATM   10  C   UNL     1      -8.081   5.617  70.634  1.00  0.00    -0.116 A  
HETATM   11  C   UNL     1      -7.971   6.967  70.266  1.00  0.00    -0.117 A  
HETATM   12  C   UNL     1      -6.840   7.431  69.591  1.00  0.00    -0.052 A  
HETATM   13  C   UNL     1      -5.806   6.554  69.273  1.00  0.00    -0.021 A  
HETATM   14  C   UNL     1      -5.902   5.210  69.626  1.00  0.00    -0.017 A  
HETATM   15  C   UNL     1      -7.032   4.743  70.299  1.00  0.00    -0.048 A  
ENDBRANCH   7  10
ENDBRANCH   2   3
TORSDOF 2
ENDMDL
MODEL      162
REMARK 921   NORMALIZED FREE ENERGY PREDICTED BY IDOCK:   -2.34 KCAL/MOL
REMARK 922        TOTAL FREE ENERGY PREDICTED BY IDOCK:   -2.75 KCAL/MOL
REMARK 923 INTER-LIGAND FREE ENERGY PREDICTED BY IDOCK:   -2.86 KCAL/MOL
REMARK 924 INTRA-LIGAND FREE ENERGY PREDICTED BY IDOCK:    0.11 KCAL/MOL
REMARK 927      BINDING AFFINITY PREDICTED BY RF-SCORE:    0.00 PKD
ROOT
HETATM    1  C   UNL     1      -7.233   7.328  67.052  1.00  0.00    -0.092 C  
HETATM    2  C   UNL     1      -7.386   7.639  65.570  1.00  0.00    -0.074 C  
ENDROOT
BRANCH   2   3
HETATM    3  N   UNL     1      -8.263   8.770  65.356  1.00  0.00    -0.128 N  
HETATM    4  C   UNL     1      -7.842  10.011  64.982  1.00  0.00    -0.137 C  
HETATM    5  N   UNL     1      -8.926  10.854  64.957  1.00  0.00    -0.192 NA 
HETATM    6  O   UNL     1      -6.703  10.361  64.721  1.00  0.00    -0.115 OA 
HETATM    7  C   UNL     1     -10.136  10.196  65.374  1.00  0.00    -0.272 C  
HETATM    8  O   UNL     1     -10.273   7.823  65.999  1.00  0.00     0.215 OA 
HETATM    9  C   UNL     1      -9.609   8.778  65.621  1.00  0.00    -0.035 C  
BRANCH   7  10
HETATM   10  C   UNL     1     -10.747  10.849  66.589  1.00  0.00    -0.289 A  
HETATM   11  C   UNL     1     -11.008  12.228  66.584  1.00  0.00    -0.321 A  
HETATM   12  C   UNL     1     -11.576  12.849  67.698  1.00  0.00    -0.406 A  
HETATM   13  C   UNL     1     -11.889  12.102  68.832  1.00  0.00    -0.358 A  
HETATM   14  C   UNL     1     -11.631  10.734  68.855  1.00  0.00    -0.361 A  
HETATM   15  C   UNL     1     -11.061  10.112  67.744  1.00  0.00    -0.293 A  
ENDBRANCH   7  10
ENDBRANCH   2   3
TORSDOF 2
ENDMDL
MODEL      163
REMARK 921   NORMALIZED FREE ENERGY PREDICTED BY IDOCK:   -2.29 KCAL/MOL
REMARK 922        TOTAL FREE ENERGY PREDICTED BY IDOCK:   -2.69 KCAL/MOL
REMARK 923 INTER-LIGAND FREE ENERGY PREDICTED BY IDOCK:   -3.42 KCAL/MOL
REMARK 924 INTRA-LIGAND FREE ENERGY PREDICTED BY IDOCK:    0.72 KCAL/MOL
REMARK 927      BINDING AFFINITY PREDICTED BY RF-SCORE:    0.00 PKD
ROOT
HETATM    1  C   UNL     1      -7.399   4.645  67.391  1.00  0.00    -0.074 C  
HETATM    2  C   UNL     1      -8.243   5.866  67.055  1.00  0.00    -0.105 C  
ENDROOT
BRANCH   2   3
HETATM    3  N   UNL     1      -9.436   5.924  67.871  1.00  0.00    -0.110 N  
HETATM    4  C   UNL     1     -10.431   6.841  67.716  1.00  0.00    -0.222 C  
HETATM    5  N   UNL     1     -11.360   6.655  68.711  1.00  0.00    -0.173 NA 
HETATM    6  O   UNL     1     -10.514   7.709  66.862  1.00  0.00    -0.315 OA 
HETATM    7  C   UNL     1     -10.980   5.608  69.620  1.00  0.00    -0.222 C  
HETATM    8  O   UNL     1      -8.939   4.256  69.395  1.00  0.00    -0.087 OA 
HETATM    9  C   UNL     1      -9.664   5.150  68.980  1.00  0.00    -0.161 C  
BRANCH   7  10
HETATM   10  C   UNL     1     -10.837   6.110  71.036  1.00  0.00    -0.338 A  
HETATM   11  C   UNL     1     -10.901   7.487  71.299  1.00  0.00    -0.253 A  
HETATM   12  C   UNL     1     -10.775   7.969  72.603  1.00  0.00    -0.426 A  
HETATM   13  C   UNL     1     -10.581   7.084  73.661  1.00  0.00    -0.383 A  
HETATM   14  C   UNL     1     -10.508   5.715  73.416  1.00  0.00    -0.267 A  
HETATM   15  C   UNL     1     -10.632   5.230  72.114  1.00  0.00    -0.281 A  
ENDBRANCH   7  10
ENDBRANCH   2   3
TORSDOF 2
ENDMDL
MODEL      164
REMARK 921   NORMALIZED FREE ENERGY PREDICTED BY IDOCK:   -2.22 KCAL/MOL
REMARK 922        TOTAL FREE ENERGY PREDICTED BY IDOCK:   -2.62 KCAL/MOL
REMARK 923 INTER-LIGAND FREE ENERGY PREDICTED BY IDOCK:   -2.32 KCAL/MOL
REMARK 924 INTRA-LIGAND FREE ENERGY PREDICTED BY IDOCK:   -0.30 KCAL/MOL
REMARK 927      BINDING AFFINITY PREDICTED BY RF-SCORE:    0.00 PKD
ROOT
HETATM    1  C   UNL     1     -11.190   6.231  70.367  1.00  0.00    -0.439 C  
HETATM    2  C   UNL     1     -10.645   7.408  69.572  1.00  0.00    -0.237 C  
ENDROOT
BRANCH   2   3
HETATM    3  N   UNL     1      -9.574   6.998  68.690  1.00  0.00    -0.138 N  
HETATM    4  C   UNL     1      -8.248   7.125  68.978  1.00  0.00    -0.125 C  
HETATM    5  N   UNL     1      -7.519   6.717  67.888  1.00  0.00    -0.096 NA 
HETATM    6  O   UNL     1      -7.750   7.543  70.011  1.00  0.00    -0.090 OA 
HETATM    7  C   UNL     1      -8.360   6.339  66.783  1.00  0.00    -0.110 C  
HETATM    8  O   UNL     1     -10.817   6.355  66.849  1.00  0.00    -0.333 OA 
HETATM    9  C   UNL     1      -9.746   6.547  67.406  1.00  0.00    -0.126 C  
BRANCH   7  10
HETATM   10  C   UNL     1      -8.100   7.179  65.558  1.00  0.00    -0.135 A  
HETATM   11  C   UNL     1      -7.796   8.542  65.698  1.00  0.00    -0.102 A  
HETATM   12  C   UNL     1      -7.549   9.335  64.574  1.00  0.00    -0.107 A  
HETATM   13  C   UNL     1      -7.603   8.778  63.299  1.00  0.00    -0.113 A  
HETATM   14  C   UNL     1      -7.910   7.428  63.143  1.00  0.00    -0.126 A  
HETATM   15  C   UNL     1      -8.159   6.634  64.263  1.00  0.00    -0.044 A  
ENDBRANCH   7  10
ENDBRANCH   2   3
TORSDOF 2
ENDMDL
MODEL      165
REMARK 921   NORMALIZED FREE ENERGY PREDICTED BY IDOCK:   -2.21 KCAL/MOL
REMARK 922        TOTAL FREE ENERGY PREDICTED BY IDOCK:   -2.60 KCAL/MOL
REMARK 923 INTER-LIGAND FREE ENERGY PREDICTED BY IDOCK:   -2.32 KCAL/MOL
REMARK 924 INTRA-LIGAND FREE ENERGY PREDICTED BY IDOCK:   -0.28 KCAL/MOL
REMARK 927      BINDING AFFINITY PREDICTED BY RF-SCORE:    0.00 PKD
ROOT
HETATM    1  C   UNL     1     -10.107   9.138  69.026  1.00  0.00    -0.199 C  
HETATM    2  C   UNL     1     -10.840   9.911  67.939  1.00  0.00    -0.258 C  
ENDROOT
BRANCH   2   3
HETATM    3  N   UNL     1     -10.005  10.948  67.374  1.00  0.00    -0.183 N  
HETATM    4  C   UNL     1      -8.990  10.724  66.493  1.00  0.00    -0.156 C  
HETATM    5  N   UNL     1      -8.360  11.916  66.234  1.00  0.00    -0.003 NA 
HETATM    6  O   UNL     1      -8.653   9.657  66.004  1.00  0.00    -0.128 OA 
HETATM    7  C   UNL     1      -8.918  13.002  66.996  1.00  0.00    -0.225 C  
HETATM    8  O   UNL     1     -10.822  12.774  68.535  1.00  0.00    -0.237 OA 
HETATM    9  C   UNL     1     -10.040  12.269  67.742  1.00  0.00    -0.201 C  
BRANCH   7  10
HETATM   10  C   UNL     1      -7.895  13.648  67.897  1.00  0.00    -0.159 A  
HETATM   11  C   UNL     1      -6.818  12.892  68.386  1.00  0.00    -0.096 A  
HETATM   12  C   UNL     1      -5.860  13.474  69.219  1.00  0.00    -0.086 A  
HETATM   13  C   UNL     1      -5.966  14.817  69.576  1.00  0.00    -0.107 A  
HETATM   14  C   UNL     1      -7.032  15.578  69.105  1.00  0.00    -0.158 A  
HETATM   15  C   UNL     1      -7.992  14.999  68.274  1.00  0.00    -0.128 A  
ENDBRANCH   7  10
ENDBRANCH   2   3
TORSDOF 2
ENDMDL
MODEL      166
REMARK 921   NORMALIZED FREE ENERGY PREDICTED BY IDOCK:   -2.11 KCAL/MOL
REMARK 922        TOTAL FREE ENERGY PREDICTED BY IDOCK:   -2.50 KCAL/MOL
REMARK 923 INTER-LIGAND FREE ENERGY PREDICTED BY IDOCK:   -2.84 KCAL/MOL
REMARK 924 INTRA-LIGAND FREE ENERGY PREDICTED BY IDOCK:    0.35 KCAL/MOL
REMARK 927      BINDING AFFINITY PREDICTED BY RF-SCORE:    0.00 PKD
ROOT
HETATM    1  C   UNL     1      -8.599  13.816  68.253  1.00  0.00    -0.175 C  
HETATM    2  C   UNL     1      -7.415  14.029  67.320  1.00  0.00    -0.029 C  
ENDROOT
BRANCH   2   3
HETATM    3  N   UNL     1      -7.441  15.349  66.729  1.00  0.00    -0.014 N  
HETATM    4  C   UNL     1      -6.348  16.151  66.589  1.00  0.00     0.448 C  
HETATM    5  N   UNL     1      -6.751  17.357  66.070  1.00  0.00    -0.221 NA 
HETATM    6  O   UNL     1      -5.192  15.889  66.880  1.00  0.00    -0.295 OA 
HETATM    7  C   UNL     1      -8.177  17.420  65.886  1.00  0.00     0.006 C  
HETATM    8  O   UNL     1      -9.716  15.568  66.378  1.00  0.00    -0.247 OA 
HETATM    9  C   UNL     1      -8.578  16.014  66.347  1.00  0.00    -0.334 C  
BRANCH   7  10
HETATM   10  C   UNL     1      -8.804  18.535  66.686  1.00  0.00    -0.300 A  
HETATM   11  C   UNL     1      -9.191  18.308  68.016  1.00  0.00    -0.300 A  
HETATM   12  C   UNL     1      -9.770  19.330  68.772  1.00  0.00    -0.510 A  
HETATM   13  C   UNL     1      -9.971  20.589  68.211  1.00  0.00    -0.156 A  
HETATM   14  C   UNL     1      -9.597  20.828  66.890  1.00  0.00    -0.330 A  
HETATM   15  C   UNL     1      -9.021  19.809  66.131  1.00  0.00    -0.387 A  
ENDBRANCH   7  10
ENDBRANCH   2   3
TORSDOF 2
ENDMDL
MODEL      167
REMARK 921   NORMALIZED FREE ENERGY PREDICTED BY IDOCK:   -2.11 KCAL/MOL
REMARK 922        TOTAL FREE ENERGY PREDICTED BY IDOCK:   -2.49 KCAL/MOL
REMARK 923 INTER-LIGAND FREE ENERGY PREDICTED BY IDOCK:   -2.61 KCAL/MOL
REMARK 924 INTRA-LIGAND FREE ENERGY PREDICTED BY IDOCK:    0.12 KCAL/MOL
REMARK 927      BINDING AFFINITY PREDICTED BY RF-SCORE:    0.00 PKD
ROOT
HETATM    1  C   UNL     1      -8.523   8.128  66.796  1.00  0.00    -0.123 C  
HETATM    2  C   UNL     1      -9.707   7.283  67.245  1.00  0.00    -0.158 C  
ENDROOT
BRANCH   2   3
HETATM    3  N   UNL     1      -9.271   6.101  67.957  1.00  0.00    -0.117 N  
HETATM    4  C   UNL     1      -9.475   4.825  67.527  1.00  0.00    -0.146 C  
HETATM    5  N   UNL     1      -9.011   3.957  68.485  1.00  0.00    -0.111 NA 
HETATM    6  O   UNL     1      -9.995   4.468  66.482  1.00  0.00    -0.208 OA 
HETATM    7  C   UNL     1      -8.510   4.647  69.645  1.00  0.00    -0.074 C  
HETATM    8  O   UNL     1      -8.430   7.094  69.870  1.00  0.00    -0.137 OA 
HETATM    9  C   UNL     1      -8.711   6.103  69.209  1.00  0.00    -0.122 C  
BRANCH   7  10
HETATM   10  C   UNL     1      -9.259   4.267  70.898  1.00  0.00    -0.203 A  
HETATM   11  C   UNL     1      -9.233   2.940  71.353  1.00  0.00    -0.190 A  
HETATM   12  C   UNL     1      -9.918   2.571  72.512  1.00  0.00    -0.222 A  
HETATM   13  C   UNL     1     -10.638   3.521  73.232  1.00  0.00    -0.277 A  
HETATM   14  C   UNL     1     -10.680   4.842  72.791  1.00  0.00    -0.282 A  
HETATM   15  C   UNL     1      -9.998   5.213  71.631  1.00  0.00    -0.243 A  
ENDBRANCH   7  10
ENDBRANCH   2   3
TORSDOF 2
ENDMDL
MODEL      168
REMARK 921   NORMALIZED FREE ENERGY PREDICTED BY IDOCK:   -2.01 KCAL/MOL
REMARK 922        TOTAL FREE ENERGY PREDICTED BY IDOCK:   -2.39 KCAL/MOL
REMARK 923 INTER-LIGAND FREE ENERGY PREDICTED BY IDOCK:   -2.16 KCAL/MOL
REMARK 924 INTRA-LIGAND FREE ENERGY PREDICTED BY IDOCK:   -0.23 KCAL/MOL
REMARK 927      BINDING AFFINITY PREDICTED BY RF-SCORE:    0.00 PKD
ROOT
HETATM    1  C   UNL     1     -10.519   5.660  70.603  1.00  0.00    -0.340 C  
HETATM    2  C   UNL     1     -10.555   7.136  70.238  1.00  0.00    -0.227 C  
ENDROOT
BRANCH   2   3
HETATM    3  N   UNL     1      -9.234   7.725  70.294  1.00  0.00    -0.156 N  
HETATM    4  C   UNL     1      -8.810   8.573  71.272  1.00  0.00    -0.190 C  
HETATM    5  N   UNL     1      -7.542   9.003  70.964  1.00  0.00    -0.131 NA 
HETATM    6  O   UNL     1      -9.427   8.931  72.263  1.00  0.00    -0.327 OA 
HETATM    7  C   UNL     1      -7.082   8.478  69.706  1.00  0.00    -0.051 C  
HETATM    8  O   UNL     1      -8.379   6.940  68.293  1.00  0.00    -0.121 OA 
HETATM    9  C   UNL     1      -8.283   7.610  69.312  1.00  0.00    -0.133 C  
BRANCH   7  10
HETATM   10  C   UNL     1      -6.760   9.573  68.719  1.00  0.00    -0.052 A  
HETATM   11  C   UNL     1      -7.195  10.885  68.964  1.00  0.00    -0.101 A  
HETATM   12  C   UNL     1      -6.903  11.911  68.062  1.00  0.00    -0.072 A  
HETATM   13  C   UNL     1      -6.176  11.641  66.906  1.00  0.00    -0.149 A  
HETATM   14  C   UNL     1      -5.743  10.343  66.645  1.00  0.00    -0.059 A  
HETATM   15  C   UNL     1      -6.035   9.315  67.542  1.00  0.00    -0.049 A  
ENDBRANCH   7  10
ENDBRANCH   2   3
TORSDOF 2
ENDMDL
MODEL      169
REMARK 921   NORMALIZED FREE ENERGY PREDICTED BY IDOCK:   -1.88 KCAL/MOL
REMARK 922        TOTAL FREE ENERGY PREDICTED BY IDOCK:   -2.24 KCAL/MOL
REMARK 923 INTER-LIGAND FREE ENERGY PREDICTED BY IDOCK:   -1.93 KCAL/MOL
REMARK 924 INTRA-LIGAND FREE ENERGY PREDICTED BY IDOCK:   -0.30 KCAL/MOL
REMARK 927      BINDING AFFINITY PREDICTED BY RF-SCORE:    0.00 PKD
ROOT
HETATM    1  C   UNL     1      -5.983   8.958  70.925  1.00  0.00    -0.041 C  
HETATM    2  C   UNL     1      -7.162   9.596  70.205  1.00  0.00    -0.128 C  
ENDROOT
BRANCH   2   3
HETATM    3  N   UNL     1      -6.810   9.980  68.855  1.00  0.00    -0.053 N  
HETATM    4  C   UNL     1      -6.176  11.140  68.525  1.00  0.00    -0.042 C  
HETATM    5  N   UNL     1      -6.080  11.214  67.156  1.00  0.00    -0.071 NA 
HETATM    6  O   UNL     1      -5.764  12.002  69.283  1.00  0.00    -0.064 OA 
HETATM    7  C   UNL     1      -6.709  10.096  66.506  1.00  0.00    -0.085 C  
HETATM    8  O   UNL     1      -7.779   8.229  67.694  1.00  0.00    -0.097 OA 
HETATM    9  C   UNL     1      -7.175   9.292  67.725  1.00  0.00    -0.083 C  
BRANCH   7  10
HETATM   10  C   UNL     1      -7.824  10.528  65.586  1.00  0.00    -0.150 A  
HETATM   11  C   UNL     1      -7.723  10.292  64.206  1.00  0.00    -0.102 A  
HETATM   12  C   UNL     1      -8.748  10.682  63.341  1.00  0.00    -0.164 A  
HETATM   13  C   UNL     1      -9.884  11.314  63.841  1.00  0.00    -0.341 A  
HETATM   14  C   UNL     1      -9.997  11.561  65.207  1.00  0.00    -0.302 A  
HETATM   15  C   UNL     1      -8.974  11.174  66.074  1.00  0.00    -0.210 A  
ENDBRANCH   7  10
ENDBRANCH   2   3
TORSDOF 2
ENDMDL
MODEL      170
REMARK 921   NORMALIZED FREE ENERGY PREDICTED BY IDOCK:   -1.87 KCAL/MOL
REMARK 922        TOTAL FREE ENERGY PREDICTED BY IDOCK:   -2.23 KCAL/MOL
REMARK 923 INTER-LIGAND FREE ENERGY PREDICTED BY IDOCK:   -1.92 KCAL/MOL
REMARK 924 INTRA-LIGAND FREE ENERGY PREDICTED BY IDOCK:   -0.31 KCAL/MOL
REMARK 927      BINDING AFFINITY PREDICTED BY RF-SCORE:    0.00 PKD
ROOT
HETATM    1  C   UNL     1      -6.901   8.264  70.309  1.00  0.00    -0.036 C  
HETATM    2  C   UNL     1      -8.156   7.622  69.736  1.00  0.00    -0.125 C  
ENDROOT
BRANCH   2   3
HETATM    3  N   UNL     1      -8.113   7.576  68.291  1.00  0.00    -0.123 N  
HETATM    4  C   UNL     1      -8.736   8.469  67.473  1.00  0.00    -0.135 C  
HETATM    5  N   UNL     1      -8.554   8.074  66.169  1.00  0.00    -0.140 NA 
HETATM    6  O   UNL     1      -9.373   9.457  67.801  1.00  0.00    -0.129 OA 
HETATM    7  C   UNL     1      -7.823   6.839  66.074  1.00  0.00    -0.104 C  
HETATM    8  O   UNL     1      -6.939   5.603  68.006  1.00  0.00    -0.062 OA 
HETATM    9  C   UNL     1      -7.548   6.564  67.557  1.00  0.00    -0.105 C  
BRANCH   7  10
HETATM   10  C   UNL     1      -8.619   5.761  65.382  1.00  0.00    -0.143 A  
HETATM   11  C   UNL     1      -8.212   5.288  64.125  1.00  0.00    -0.132 A  
HETATM   12  C   UNL     1      -8.935   4.288  63.472  1.00  0.00    -0.134 A  
HETATM   13  C   UNL     1     -10.074   3.747  64.064  1.00  0.00    -0.212 A  
HETATM   14  C   UNL     1     -10.495   4.209  65.308  1.00  0.00    -0.156 A  
HETATM   15  C   UNL     1      -9.776   5.211  65.962  1.00  0.00    -0.182 A  
ENDBRANCH   7  10
ENDBRANCH   2   3
TORSDOF 2
ENDMDL
MODEL      171
REMARK 921   NORMALIZED FREE ENERGY PREDICTED BY IDOCK:   -1.81 KCAL/MOL
REMARK 922        TOTAL FREE ENERGY PREDICTED BY IDOCK:   -2.16 KCAL/MOL
REMARK 923 INTER-LIGAND FREE ENERGY PREDICTED BY IDOCK:   -1.87 KCAL/MOL
REMARK 924 INTRA-LIGAND FREE ENERGY PREDICTED BY IDOCK:   -0.30 KCAL/MOL
REMARK 927      BINDING AFFINITY PREDICTED BY RF-SCORE:    0.00 PKD
ROOT
HETATM    1  C   UNL     1      -7.405  11.480  66.918  1.00  0.00    -0.140 C  
HETATM    2  C   UNL     1      -8.203  10.208  67.168  1.00  0.00    -0.121 C  
ENDROOT
BRANCH   2   3
HETATM    3  N   UNL     1      -7.993   9.238  66.115  1.00  0.00    -0.106 N  
HETATM    4  C   UNL     1      -8.664   9.230  64.930  1.00  0.00    -0.192 C  
HETATM    5  N   UNL     1      -8.275   8.126  64.211  1.00  0.00    -0.131 NA 
HETATM    6  O   UNL     1      -9.492  10.038  64.540  1.00  0.00    -0.272 OA 
HETATM    7  C   UNL     1      -7.339   7.308  64.935  1.00  0.00    -0.080 C  
HETATM    8  O   UNL     1      -6.478   7.847  67.174  1.00  0.00    -0.053 OA 
HETATM    9  C   UNL     1      -7.187   8.133  66.219  1.00  0.00    -0.078 C  
BRANCH   7  10
HETATM   10  C   UNL     1      -7.860   5.910  65.156  1.00  0.00    -0.107 A  
HETATM   11  C   UNL     1      -9.114   5.718  65.757  1.00  0.00    -0.122 A  
HETATM   12  C   UNL     1      -9.613   4.431  65.966  1.00  0.00    -0.190 A  
HETATM   13  C   UNL     1      -8.868   3.319  65.580  1.00  0.00    -0.134 A  
HETATM   14  C   UNL     1      -7.619   3.492  64.988  1.00  0.00    -0.077 A  
HETATM   15  C   UNL     1      -7.117   4.778  64.780  1.00  0.00    -0.062 A  
ENDBRANCH   7  10
ENDBRANCH   2   3
TORSDOF 2
ENDMDL
MODEL      172
REMARK 921   NORMALIZED FREE ENERGY PREDICTED BY IDOCK:   -1.67 KCAL/MOL
REMARK 922        TOTAL FREE ENERGY PREDICTED BY IDOCK:   -2.00 KCAL/MOL
REMARK 923 INTER-LIGAND FREE ENERGY PREDICTED BY IDOCK:   -1.71 KCAL/MOL
REMARK 924 INTRA-LIGAND FREE ENERGY PREDICTED BY IDOCK:   -0.29 KCAL/MOL
REMARK 927      BINDING AFFINITY PREDICTED BY RF-SCORE:    0.00 PKD
ROOT
HETATM    1  C   UNL     1      -6.481  13.209  67.566  1.00  0.00    -0.154 C  
HETATM    2  C   UNL     1      -7.180  12.539  68.740  1.00  0.00    -0.089 C  
ENDROOT
BRANCH   2   3
HETATM    3  N   UNL     1      -7.713  11.246  68.367  1.00  0.00    -0.117 N  
HETATM    4  C   UNL     1      -9.028  11.004  68.104  1.00  0.00    -0.152 C  
HETATM    5  N   UNL     1      -9.189   9.660  67.870  1.00  0.00    -0.125 NA 
HETATM    6  O   UNL     1      -9.943  11.811  68.087  1.00  0.00    -0.182 OA 
HETATM    7  C   UNL     1      -7.958   8.931  68.022  1.00  0.00    -0.102 C  
HETATM    8  O   UNL     1      -5.798   9.966  68.573  1.00  0.00    -0.042 OA 
HETATM    9  C   UNL     1      -6.996  10.078  68.352  1.00  0.00    -0.067 C  
BRANCH   7  10
HETATM   10  C   UNL     1      -8.053   7.875  69.096  1.00  0.00    -0.124 A  
HETATM   11  C   UNL     1      -8.472   8.228  70.388  1.00  0.00    -0.129 A  
HETATM   12  C   UNL     1      -8.569   7.264  71.393  1.00  0.00    -0.115 A  
HETATM   13  C   UNL     1      -8.247   5.936  71.123  1.00  0.00    -0.123 A  
HETATM   14  C   UNL     1      -7.823   5.570  69.847  1.00  0.00    -0.082 A  
HETATM   15  C   UNL     1      -7.723   6.532  68.841  1.00  0.00    -0.109 A  
ENDBRANCH   7  10
ENDBRANCH   2   3
TORSDOF 2
ENDMDL
MODEL      173
REMARK 921   NORMALIZED FREE ENERGY PREDICTED BY IDOCK:   -1.61 KCAL/MOL
REMARK 922        TOTAL FREE ENERGY PREDICTED BY IDOCK:   -1.93 KCAL/MOL
REMARK 923 INTER-LIGAND FREE ENERGY PREDICTED BY IDOCK:   -2.83 KCAL/MOL
REMARK 924 INTRA-LIGAND FREE ENERGY PREDICTED BY IDOCK:    0.89 KCAL/MOL
REMARK 927      BINDING AFFINITY PREDICTED BY RF-SCORE:    0.00 PKD
ROOT
HETATM    1  C   UNL     1      -9.592   3.458  71.874  1.00  0.00    -0.220 C  
HETATM    2  C   UNL     1     -10.312   4.763  72.182  1.00  0.00    -0.190 C  
ENDROOT
BRANCH   2   3
HETATM    3  N   UNL     1     -10.389   5.612  71.013  1.00  0.00    -0.222 N  
HETATM    4  C   UNL     1     -10.049   5.220  69.753  1.00  0.00    -0.264 C  
HETATM    5  N   UNL     1     -10.162   6.299  68.911  1.00  0.00    -0.167 NA 
HETATM    6  O   UNL     1      -9.684   4.112  69.394  1.00  0.00    -0.192 OA 
HETATM    7  C   UNL     1     -10.545   7.496  69.611  1.00  0.00    -0.239 C  
HETATM    8  O   UNL     1     -11.010   7.599  72.022  1.00  0.00    -0.229 OA 
HETATM    9  C   UNL     1     -10.691   6.950  71.036  1.00  0.00    -0.231 C  
BRANCH   7  10
HETATM   10  C   UNL     1      -9.516   8.590  69.470  1.00  0.00    -0.165 A  
HETATM   11  C   UNL     1      -8.674   8.901  70.549  1.00  0.00    -0.213 A  
HETATM   12  C   UNL     1      -7.713   9.908  70.435  1.00  0.00    -0.094 A  
HETATM   13  C   UNL     1      -7.581  10.618  69.244  1.00  0.00    -0.138 A  
HETATM   14  C   UNL     1      -8.412  10.326  68.166  1.00  0.00    -0.123 A  
HETATM   15  C   UNL     1      -9.375   9.322  68.277  1.00  0.00    -0.141 A  
ENDBRANCH   7  10
ENDBRANCH   2   3
TORSDOF 2
ENDMDL
MODEL      174
REMARK 921   NORMALIZED FREE ENERGY PREDICTED BY IDOCK:   -1.24 KCAL/MOL
REMARK 922        TOTAL FREE ENERGY PREDICTED BY IDOCK:   -1.52 KCAL/MOL
REMARK 923 INTER-LIGAND FREE ENERGY PREDICTED BY IDOCK:   -1.98 KCAL/MOL
REMARK 924 INTRA-LIGAND FREE ENERGY PREDICTED BY IDOCK:    0.46 KCAL/MOL
REMARK 927      BINDING AFFINITY PREDICTED BY RF-SCORE:    0.00 PKD
ROOT
HETATM    1  C   UNL     1      -9.498   3.450  71.910  1.00  0.00    -0.208 C  
HETATM    2  C   UNL     1     -10.175   4.813  71.935  1.00  0.00    -0.193 C  
ENDROOT
BRANCH   2   3
HETATM    3  N   UNL     1      -9.603   5.704  70.949  1.00  0.00    -0.165 N  
HETATM    4  C   UNL     1     -10.332   6.482  70.100  1.00  0.00    -0.201 C  
HETATM    5  N   UNL     1      -9.471   7.131  69.249  1.00  0.00    -0.153 NA 
HETATM    6  O   UNL     1     -11.546   6.598  70.057  1.00  0.00    -0.380 OA 
HETATM    7  C   UNL     1      -8.099   6.759  69.476  1.00  0.00    -0.126 C  
HETATM    8  O   UNL     1      -7.364   5.194  71.224  1.00  0.00    -0.072 OA 
HETATM    9  C   UNL     1      -8.266   5.792  70.654  1.00  0.00    -0.119 C  
BRANCH   7  10
HETATM   10  C   UNL     1      -7.469   6.140  68.253  1.00  0.00    -0.087 A  
HETATM   11  C   UNL     1      -7.196   4.763  68.228  1.00  0.00    -0.065 A  
HETATM   12  C   UNL     1      -6.616   4.173  67.103  1.00  0.00    -0.046 A  
HETATM   13  C   UNL     1      -6.300   4.949  65.990  1.00  0.00    -0.039 A  
HETATM   14  C   UNL     1      -6.559   6.317  66.001  1.00  0.00    -0.048 A  
HETATM   15  C   UNL     1      -7.137   6.910  67.125  1.00  0.00    -0.080 A  
ENDBRANCH   7  10
ENDBRANCH   2   3
TORSDOF 2
ENDMDL
MODEL      175
REMARK 921   NORMALIZED FREE ENERGY PREDICTED BY IDOCK:    0.54 KCAL/MOL
REMARK 922        TOTAL FREE ENERGY PREDICTED BY IDOCK:    0.47 KCAL/MOL
REMARK 923 INTER-LIGAND FREE ENERGY PREDICTED BY IDOCK:    0.81 KCAL/MOL
REMARK 924 INTRA-LIGAND FREE ENERGY PREDICTED BY IDOCK:   -0.34 KCAL/MOL
REMARK 927      BINDING AFFINITY PREDICTED BY RF-SCORE:    0.00 PKD
ROOT
HETATM    1  C   UNL     1     -10.459  18.022  70.268  1.00  0.00     1.428 C  
HETATM    2  C   UNL     1     -11.434  18.295  69.132  1.00  0.00     2.875 C  
ENDROOT
BRANCH   2   3
HETATM    3  N   UNL     1     -10.765  18.285  67.849  1.00  0.00    -0.369 N  
HETATM    4  C   UNL     1     -10.606  17.176  67.073  1.00  0.00    -0.227 C  
HETATM    5  N   UNL     1      -9.855  17.513  65.973  1.00  0.00    -0.517 NA 
HETATM    6  O   UNL     1     -11.028  16.052  67.289  1.00  0.00    -0.300 OA 
HETATM    7  C   UNL     1      -9.432  18.888  66.005  1.00  0.00    -0.081 C  
HETATM    8  O   UNL     1     -10.032  20.478  67.781  1.00  0.00    -0.395 OA 
HETATM    9  C   UNL     1     -10.097  19.353  67.306  1.00  0.00    -0.390 C  
BRANCH   7  10
HETATM   10  C   UNL     1      -7.929  19.020  65.997  1.00  0.00    -0.213 A  
HETATM   11  C   UNL     1      -7.326  20.099  65.331  1.00  0.00    -0.183 A  
HETATM   12  C   UNL     1      -5.937  20.238  65.317  1.00  0.00    -0.248 A  
HETATM   13  C   UNL     1      -5.132  19.303  65.963  1.00  0.00    -0.159 A  
HETATM   14  C   UNL     1      -5.715  18.224  66.623  1.00  0.00    -0.172 A  
HETATM   15  C   UNL     1      -7.103  18.080  66.638  1.00  0.00    -0.245 A  
ENDBRANCH   7  10
ENDBRANCH   2   3
TORSDOF 2
ENDMDL
MODEL      176
REMARK 921   NORMALIZED FREE ENERGY PREDICTED BY IDOCK:   12.85 KCAL/MOL
REMARK 922        TOTAL FREE ENERGY PREDICTED BY IDOCK:   14.22 KCAL/MOL
REMARK 923 INTER-LIGAND FREE ENERGY PREDICTED BY IDOCK:   13.38 KCAL/MOL
REMARK 924 INTRA-LIGAND FREE ENERGY PREDICTED BY IDOCK:    0.83 KCAL/MOL
REMARK 927      BINDING AFFINITY PREDICTED BY RF-SCORE:    0.00 PKD
ROOT
HETATM    1  C   UNL     1      -9.630   3.105  71.910  1.00  0.00    -0.222 C  
HETATM    2  C   UNL     1     -10.589   3.572  70.824  1.00  0.00     1.479 C  
ENDROOT
BRANCH   2   3
HETATM    3  N   UNL     1     -10.197   3.074  69.524  1.00  0.00     0.992 N  
HETATM    4  C   UNL     1      -9.115   2.277  69.299  1.00  0.00    -0.120 C  
HETATM    5  N   UNL     1      -8.994   2.068  67.947  1.00  0.00    -0.128 NA 
HETATM    6  O   UNL     1      -8.346   1.817  70.129  1.00  0.00    -0.041 OA 
HETATM    7  C   UNL     1      -9.993   2.782  67.197  1.00  0.00     0.949 C  
HETATM    8  O   UNL     1     -11.756   4.165  68.209  1.00  0.00     6.852 OA 
HETATM    9  C   UNL     1     -10.781   3.437  68.337  1.00  0.00     3.520 C  
BRANCH   7  10
HETATM   10  C   UNL     1      -9.381   3.762  66.226  1.00  0.00    -0.190 A  
HETATM   11  C   UNL     1     -10.210   4.592  65.455  1.00  0.00    -0.219 A  
HETATM   12  C   UNL     1      -9.660   5.507  64.555  1.00  0.00     0.796 A  
HETATM   13  C   UNL     1      -8.278   5.604  64.411  1.00  0.00    -0.120 A  
HETATM   14  C   UNL     1      -7.442   4.783  65.164  1.00  0.00    -0.076 A  
HETATM   15  C   UNL     1      -7.988   3.867  66.063  1.00  0.00    -0.090 A  
ENDBRANCH   7  10
ENDBRANCH   2   3
TORSDOF 2
ENDMDL
MODEL      177
REMARK 921   NORMALIZED FREE ENERGY PREDICTED BY IDOCK:   31.23 KCAL/MOL
REMARK 922        TOTAL FREE ENERGY PREDICTED BY IDOCK:   34.74 KCAL/MOL
REMARK 923 INTER-LIGAND FREE ENERGY PREDICTED BY IDOCK:   34.69 KCAL/MOL
REMARK 924 INTRA-LIGAND FREE ENERGY PREDICTED BY IDOCK:    0.05 KCAL/MOL
REMARK 927      BINDING AFFINITY PREDICTED BY RF-SCORE:    0.00 PKD
ROOT
HETATM    1  C   UNL     1     -14.086  16.178  65.018  1.00  0.00     5.310 C  
HETATM    2  C   UNL     1     -13.186  15.490  66.034  1.00  0.00     2.813 C  
ENDROOT
BRANCH   2   3
HETATM    3  N   UNL     1     -12.070  16.333  66.406  1.00  0.00     1.607 N  
HETATM    4  C   UNL     1     -10.783  16.127  66.009  1.00  0.00    -0.241 C  
HETATM    5  N   UNL     1      -9.980  17.062  66.615  1.00  0.00    -0.289 NA 
HETATM    6  O   UNL     1     -10.368  15.261  65.256  1.00  0.00    -0.369 OA 
HETATM    7  C   UNL     1     -10.720  17.918  67.504  1.00  0.00    -0.321 C  
HETATM    8  O   UNL     1     -13.149  17.778  67.855  1.00  0.00     4.696 OA 
HETATM    9  C   UNL     1     -12.137  17.369  67.303  1.00  0.00     2.798 C  
BRANCH   7  10
HETATM   10  C   UNL     1     -10.219  17.831  68.924  1.00  0.00    -0.345 A  
HETATM   11  C   UNL     1     -11.070  18.170  69.988  1.00  0.00     2.430 A  
HETATM   12  C   UNL     1     -10.623  18.092  71.309  1.00  0.00     2.869 A  
HETATM   13  C   UNL     1      -9.323  17.676  71.585  1.00  0.00     9.349 A  
HETATM   14  C   UNL     1      -8.464  17.341  70.541  1.00  0.00     4.172 A  
HETATM   15  C   UNL     1      -8.907  17.421  69.220  1.00  0.00     0.212 A  
ENDBRANCH   7  10
ENDBRANCH   2   3
TORSDOF 2
ENDMDL
