MODEL        1
REMARK 921   NORMALIZED FREE ENERGY PREDICTED BY IDOCK:   -4.92 KCAL/MOL
REMARK 922        TOTAL FREE ENERGY PREDICTED BY IDOCK:   -5.24 KCAL/MOL
REMARK 923 INTER-LIGAND FREE ENERGY PREDICTED BY IDOCK:   -5.20 KCAL/MOL
REMARK 924 INTRA-LIGAND FREE ENERGY PREDICTED BY IDOCK:   -0.04 KCAL/MOL
REMARK 927      BINDING AFFINITY PREDICTED BY RF-SCORE:    0.00 PKD
ROOT
HETATM    1  C   UNL     1      -9.980  11.669  64.604  1.00  0.00    -0.291 C  
HETATM    2  C   UNL     1     -10.501  12.244  65.917  1.00  0.00    -0.288 C  
ENDROOT
BRANCH   2   3
HETATM    3  C   UNL     1     -11.308  13.548  65.806  1.00  0.00    -0.318 C  
HETATM    4  C   UNL     1     -11.877  13.911  67.192  1.00  0.00    -0.445 C  
HETATM    5  C   UNL     1     -10.529  14.749  65.243  1.00  0.00    -0.427 C  
HETATM    6  C   UNL     1     -11.554  15.464  64.406  1.00  0.00    -0.264 C  
HETATM    7  O   UNL     1     -11.438  16.587  63.947  1.00  0.00    -1.145 OA 
HETATM    8  N   UNL     1     -12.607  14.633  64.203  1.00  0.00    -0.790 NA 
HETATM    9  C   UNL     1     -12.481  13.445  64.850  1.00  0.00    -0.396 C  
HETATM   10  O   UNL     1     -13.236  12.495  64.726  1.00  0.00    -0.839 OA 
ENDBRANCH   2   3
TORSDOF 1
ENDMDL
MODEL        2
REMARK 921   NORMALIZED FREE ENERGY PREDICTED BY IDOCK:   -4.51 KCAL/MOL
REMARK 922        TOTAL FREE ENERGY PREDICTED BY IDOCK:   -4.81 KCAL/MOL
REMARK 923 INTER-LIGAND FREE ENERGY PREDICTED BY IDOCK:   -4.79 KCAL/MOL
REMARK 924 INTRA-LIGAND FREE ENERGY PREDICTED BY IDOCK:   -0.01 KCAL/MOL
REMARK 927      BINDING AFFINITY PREDICTED BY RF-SCORE:    0.00 PKD
ROOT
HETATM    1  C   UNL     1      -9.060  13.317  67.568  1.00  0.00    -0.208 C  
HETATM    2  C   UNL     1     -10.240  12.942  66.676  1.00  0.00    -0.251 C  
ENDROOT
BRANCH   2   3
HETATM    3  C   UNL     1     -11.169  14.098  66.269  1.00  0.00    -0.329 C  
HETATM    4  C   UNL     1     -11.890  14.632  67.522  1.00  0.00    -0.375 C  
HETATM    5  C   UNL     1     -10.478  15.262  65.540  1.00  0.00    -0.396 C  
HETATM    6  C   UNL     1     -11.499  15.686  64.519  1.00  0.00    -0.300 C  
HETATM    7  O   UNL     1     -11.465  16.712  63.864  1.00  0.00    -1.186 OA 
HETATM    8  N   UNL     1     -12.435  14.710  64.410  1.00  0.00    -0.653 NA 
HETATM    9  C   UNL     1     -12.239  13.683  65.277  1.00  0.00    -0.439 C  
HETATM   10  O   UNL     1     -12.874  12.642  65.286  1.00  0.00    -0.656 OA 
ENDBRANCH   2   3
TORSDOF 1
ENDMDL
MODEL        3
REMARK 921   NORMALIZED FREE ENERGY PREDICTED BY IDOCK:   -4.48 KCAL/MOL
REMARK 922        TOTAL FREE ENERGY PREDICTED BY IDOCK:   -4.78 KCAL/MOL
REMARK 923 INTER-LIGAND FREE ENERGY PREDICTED BY IDOCK:   -4.74 KCAL/MOL
REMARK 924 INTRA-LIGAND FREE ENERGY PREDICTED BY IDOCK:   -0.04 KCAL/MOL
REMARK 927      BINDING AFFINITY PREDICTED BY RF-SCORE:    0.00 PKD
ROOT
HETATM    1  C   UNL     1     -11.243  16.337  68.480  1.00  0.00    -0.359 C  
HETATM    2  C   UNL     1     -10.568  16.524  67.126  1.00  0.00    -0.270 C  
ENDROOT
BRANCH   2   3
HETATM    3  C   UNL     1     -10.796  15.402  66.099  1.00  0.00    -0.313 C  
HETATM    4  C   UNL     1      -9.438  14.781  65.719  1.00  0.00    -0.209 C  
HETATM    5  C   UNL     1     -11.759  14.292  66.552  1.00  0.00    -0.409 C  
HETATM    6  C   UNL     1     -12.504  13.944  65.293  1.00  0.00    -0.478 C  
HETATM    7  O   UNL     1     -13.214  12.967  65.135  1.00  0.00    -0.703 OA 
HETATM    8  N   UNL     1     -12.298  14.927  64.380  1.00  0.00    -0.565 NA 
HETATM    9  C   UNL     1     -11.443  15.889  64.817  1.00  0.00    -0.234 C  
HETATM   10  O   UNL     1     -11.197  16.928  64.227  1.00  0.00    -1.204 OA 
ENDBRANCH   2   3
TORSDOF 1
ENDMDL
MODEL        4
REMARK 921   NORMALIZED FREE ENERGY PREDICTED BY IDOCK:   -4.43 KCAL/MOL
REMARK 922        TOTAL FREE ENERGY PREDICTED BY IDOCK:   -4.72 KCAL/MOL
REMARK 923 INTER-LIGAND FREE ENERGY PREDICTED BY IDOCK:   -4.70 KCAL/MOL
REMARK 924 INTRA-LIGAND FREE ENERGY PREDICTED BY IDOCK:   -0.02 KCAL/MOL
REMARK 927      BINDING AFFINITY PREDICTED BY RF-SCORE:    0.00 PKD
ROOT
HETATM    1  C   UNL     1     -11.288  11.962  63.477  1.00  0.00    -0.516 C  
HETATM    2  C   UNL     1     -11.941  13.339  63.540  1.00  0.00    -0.537 C  
ENDROOT
BRANCH   2   3
HETATM    3  C   UNL     1     -11.618  14.181  64.786  1.00  0.00    -0.400 C  
HETATM    4  C   UNL     1     -12.744  14.004  65.822  1.00  0.00    -0.487 C  
HETATM    5  C   UNL     1     -10.263  13.874  65.445  1.00  0.00    -0.356 C  
HETATM    6  C   UNL     1      -9.781  15.226  65.893  1.00  0.00    -0.355 C  
HETATM    7  O   UNL     1      -8.852  15.434  66.653  1.00  0.00    -0.251 OA 
HETATM    8  N   UNL     1     -10.519  16.179  65.270  1.00  0.00    -0.572 NA 
HETATM    9  C   UNL     1     -11.506  15.665  64.491  1.00  0.00    -0.300 C  
HETATM   10  O   UNL     1     -12.219  16.312  63.743  1.00  0.00    -0.923 OA 
ENDBRANCH   2   3
TORSDOF 1
ENDMDL
MODEL        5
REMARK 921   NORMALIZED FREE ENERGY PREDICTED BY IDOCK:   -4.34 KCAL/MOL
REMARK 922        TOTAL FREE ENERGY PREDICTED BY IDOCK:   -4.63 KCAL/MOL
REMARK 923 INTER-LIGAND FREE ENERGY PREDICTED BY IDOCK:   -4.54 KCAL/MOL
REMARK 924 INTRA-LIGAND FREE ENERGY PREDICTED BY IDOCK:   -0.09 KCAL/MOL
REMARK 927      BINDING AFFINITY PREDICTED BY RF-SCORE:    0.00 PKD
ROOT
HETATM    1  C   UNL     1      -9.610  10.078  65.004  1.00  0.00    -0.362 C  
HETATM    2  C   UNL     1      -9.304  11.341  65.803  1.00  0.00    -0.245 C  
ENDROOT
BRANCH   2   3
HETATM    3  C   UNL     1     -10.281  12.512  65.610  1.00  0.00    -0.287 C  
HETATM    4  C   UNL     1      -9.757  13.740  66.381  1.00  0.00    -0.304 C  
HETATM    5  C   UNL     1     -10.550  12.902  64.147  1.00  0.00    -0.442 C  
HETATM    6  C   UNL     1     -12.009  13.266  64.148  1.00  0.00    -0.447 C  
HETATM    7  O   UNL     1     -12.598  13.840  63.250  1.00  0.00    -0.830 OA 
HETATM    8  N   UNL     1     -12.572  12.802  65.293  1.00  0.00    -0.635 NA 
HETATM    9  C   UNL     1     -11.675  12.218  66.129  1.00  0.00    -0.376 C  
HETATM   10  O   UNL     1     -11.959  11.624  67.156  1.00  0.00    -0.614 OA 
ENDBRANCH   2   3
TORSDOF 1
ENDMDL
MODEL        6
REMARK 921   NORMALIZED FREE ENERGY PREDICTED BY IDOCK:   -4.23 KCAL/MOL
REMARK 922        TOTAL FREE ENERGY PREDICTED BY IDOCK:   -4.51 KCAL/MOL
REMARK 923 INTER-LIGAND FREE ENERGY PREDICTED BY IDOCK:   -4.50 KCAL/MOL
REMARK 924 INTRA-LIGAND FREE ENERGY PREDICTED BY IDOCK:   -0.01 KCAL/MOL
REMARK 927      BINDING AFFINITY PREDICTED BY RF-SCORE:    0.00 PKD
ROOT
HETATM    1  C   UNL     1     -10.984  15.239  68.284  1.00  0.00    -0.276 C  
HETATM    2  C   UNL     1     -11.325  15.784  66.901  1.00  0.00     0.050 C  
ENDROOT
BRANCH   2   3
HETATM    3  C   UNL     1     -11.306  14.763  65.752  1.00  0.00    -0.336 C  
HETATM    4  C   UNL     1      -9.849  14.348  65.466  1.00  0.00    -0.299 C  
HETATM    5  C   UNL     1     -12.160  13.505  65.986  1.00  0.00    -0.489 C  
HETATM    6  C   UNL     1     -12.727  13.214  64.624  1.00  0.00    -0.261 C  
HETATM    7  O   UNL     1     -13.288  12.183  64.293  1.00  0.00    -0.761 OA 
HETATM    8  N   UNL     1     -12.559  14.307  63.839  1.00  0.00    -0.787 NA 
HETATM    9  C   UNL     1     -11.881  15.309  64.458  1.00  0.00    -0.295 C  
HETATM   10  O   UNL     1     -11.712  16.427  64.003  1.00  0.00    -1.044 OA 
ENDBRANCH   2   3
TORSDOF 1
ENDMDL
MODEL        7
REMARK 921   NORMALIZED FREE ENERGY PREDICTED BY IDOCK:   -4.19 KCAL/MOL
REMARK 922        TOTAL FREE ENERGY PREDICTED BY IDOCK:   -4.47 KCAL/MOL
REMARK 923 INTER-LIGAND FREE ENERGY PREDICTED BY IDOCK:   -4.43 KCAL/MOL
REMARK 924 INTRA-LIGAND FREE ENERGY PREDICTED BY IDOCK:   -0.04 KCAL/MOL
REMARK 927      BINDING AFFINITY PREDICTED BY RF-SCORE:    0.00 PKD
ROOT
HETATM    1  C   UNL     1      -8.902  15.557  66.360  1.00  0.00    -0.359 C  
HETATM    2  C   UNL     1      -9.574  14.192  66.247  1.00  0.00    -0.295 C  
ENDROOT
BRANCH   2   3
HETATM    3  C   UNL     1     -10.846  14.139  65.384  1.00  0.00    -0.341 C  
HETATM    4  C   UNL     1     -11.073  15.516  64.731  1.00  0.00    -0.421 C  
HETATM    5  C   UNL     1     -10.850  13.050  64.298  1.00  0.00    -0.430 C  
HETATM    6  C   UNL     1     -12.278  12.578  64.286  1.00  0.00    -0.452 C  
HETATM    7  O   UNL     1     -12.786  11.874  63.431  1.00  0.00    -0.715 OA 
HETATM    8  N   UNL     1     -12.893  13.023  65.411  1.00  0.00    -0.643 NA 
HETATM    9  C   UNL     1     -12.093  13.807  66.181  1.00  0.00    -0.441 C  
HETATM   10  O   UNL     1     -12.379  14.223  67.291  1.00  0.00    -0.337 OA 
ENDBRANCH   2   3
TORSDOF 1
ENDMDL
MODEL        8
REMARK 921   NORMALIZED FREE ENERGY PREDICTED BY IDOCK:   -4.17 KCAL/MOL
REMARK 922        TOTAL FREE ENERGY PREDICTED BY IDOCK:   -4.45 KCAL/MOL
REMARK 923 INTER-LIGAND FREE ENERGY PREDICTED BY IDOCK:   -4.43 KCAL/MOL
REMARK 924 INTRA-LIGAND FREE ENERGY PREDICTED BY IDOCK:   -0.02 KCAL/MOL
REMARK 927      BINDING AFFINITY PREDICTED BY RF-SCORE:    0.00 PKD
ROOT
HETATM    1  C   UNL     1      -8.678  14.401  67.691  1.00  0.00    -0.191 C  
HETATM    2  C   UNL     1      -9.356  13.315  66.863  1.00  0.00    -0.244 C  
ENDROOT
BRANCH   2   3
HETATM    3  C   UNL     1     -10.747  13.664  66.308  1.00  0.00    -0.285 C  
HETATM    4  C   UNL     1     -11.399  14.732  67.208  1.00  0.00    -0.366 C  
HETATM    5  C   UNL     1     -10.764  14.145  64.847  1.00  0.00    -0.444 C  
HETATM    6  C   UNL     1     -12.027  13.542  64.298  1.00  0.00    -0.432 C  
HETATM    7  O   UNL     1     -12.552  13.837  63.239  1.00  0.00    -0.830 OA 
HETATM    8  N   UNL     1     -12.456  12.578  65.151  1.00  0.00    -0.628 NA 
HETATM    9  C   UNL     1     -11.689  12.475  66.268  1.00  0.00    -0.404 C  
HETATM   10  O   UNL     1     -11.802  11.608  67.118  1.00  0.00    -0.608 OA 
ENDBRANCH   2   3
TORSDOF 1
ENDMDL
MODEL        9
REMARK 921   NORMALIZED FREE ENERGY PREDICTED BY IDOCK:   -4.13 KCAL/MOL
REMARK 922        TOTAL FREE ENERGY PREDICTED BY IDOCK:   -4.41 KCAL/MOL
REMARK 923 INTER-LIGAND FREE ENERGY PREDICTED BY IDOCK:   -4.39 KCAL/MOL
REMARK 924 INTRA-LIGAND FREE ENERGY PREDICTED BY IDOCK:   -0.02 KCAL/MOL
REMARK 927      BINDING AFFINITY PREDICTED BY RF-SCORE:    0.00 PKD
ROOT
HETATM    1  C   UNL     1     -11.982  12.892  67.488  1.00  0.00    -0.354 C  
HETATM    2  C   UNL     1     -11.514  12.322  66.152  1.00  0.00    -0.429 C  
ENDROOT
BRANCH   2   3
HETATM    3  C   UNL     1     -11.035  13.350  65.114  1.00  0.00    -0.315 C  
HETATM    4  C   UNL     1     -10.420  12.606  63.912  1.00  0.00    -0.441 C  
HETATM    5  C   UNL     1     -12.116  14.324  64.615  1.00  0.00    -0.478 C  
HETATM    6  C   UNL     1     -11.369  15.620  64.459  1.00  0.00    -0.320 C  
HETATM    7  O   UNL     1     -11.779  16.611  63.881  1.00  0.00    -1.153 OA 
HETATM    8  N   UNL     1     -10.184  15.520  65.112  1.00  0.00    -0.377 NA 
HETATM    9  C   UNL     1      -9.973  14.291  65.651  1.00  0.00    -0.320 C  
HETATM   10  O   UNL     1      -9.043  13.996  66.382  1.00  0.00    -0.206 OA 
ENDBRANCH   2   3
TORSDOF 1
ENDMDL
MODEL       10
REMARK 921   NORMALIZED FREE ENERGY PREDICTED BY IDOCK:   -4.12 KCAL/MOL
REMARK 922        TOTAL FREE ENERGY PREDICTED BY IDOCK:   -4.40 KCAL/MOL
REMARK 923 INTER-LIGAND FREE ENERGY PREDICTED BY IDOCK:   -4.36 KCAL/MOL
REMARK 924 INTRA-LIGAND FREE ENERGY PREDICTED BY IDOCK:   -0.04 KCAL/MOL
REMARK 927      BINDING AFFINITY PREDICTED BY RF-SCORE:    0.00 PKD
ROOT
HETATM    1  C   UNL     1     -11.693  13.410  69.365  1.00  0.00    -0.382 C  
HETATM    2  C   UNL     1     -11.764  14.319  68.142  1.00  0.00    -0.385 C  
ENDROOT
BRANCH   2   3
HETATM    3  C   UNL     1     -11.634  13.622  66.777  1.00  0.00    -0.393 C  
HETATM    4  C   UNL     1     -11.568  12.097  66.993  1.00  0.00    -0.406 C  
HETATM    5  C   UNL     1     -12.749  13.949  65.770  1.00  0.00    -0.503 C  
HETATM    6  C   UNL     1     -12.023  14.003  64.455  1.00  0.00    -0.454 C  
HETATM    7  O   UNL     1     -12.547  14.019  63.354  1.00  0.00    -0.845 OA 
HETATM    8  N   UNL     1     -10.690  14.083  64.696  1.00  0.00    -0.415 NA 
HETATM    9  C   UNL     1     -10.384  14.024  66.019  1.00  0.00    -0.306 C  
HETATM   10  O   UNL     1      -9.272  14.195  66.489  1.00  0.00    -0.268 OA 
ENDBRANCH   2   3
TORSDOF 1
ENDMDL
MODEL       11
REMARK 921   NORMALIZED FREE ENERGY PREDICTED BY IDOCK:   -4.01 KCAL/MOL
REMARK 922        TOTAL FREE ENERGY PREDICTED BY IDOCK:   -4.28 KCAL/MOL
REMARK 923 INTER-LIGAND FREE ENERGY PREDICTED BY IDOCK:   -4.25 KCAL/MOL
REMARK 924 INTRA-LIGAND FREE ENERGY PREDICTED BY IDOCK:   -0.03 KCAL/MOL
REMARK 927      BINDING AFFINITY PREDICTED BY RF-SCORE:    0.00 PKD
ROOT
HETATM    1  C   UNL     1      -9.906  10.791  63.530  1.00  0.00    -0.401 C  
HETATM    2  C   UNL     1     -10.573  12.161  63.596  1.00  0.00    -0.504 C  
ENDROOT
BRANCH   2   3
HETATM    3  C   UNL     1     -10.961  12.653  65.000  1.00  0.00    -0.323 C  
HETATM    4  C   UNL     1     -10.647  11.548  66.028  1.00  0.00    -0.310 C  
HETATM    5  C   UNL     1     -10.292  13.966  65.438  1.00  0.00    -0.364 C  
HETATM    6  C   UNL     1     -11.375  14.666  66.212  1.00  0.00    -0.347 C  
HETATM    7  O   UNL     1     -11.221  15.642  66.925  1.00  0.00    -0.245 OA 
HETATM    8  N   UNL     1     -12.560  14.063  65.944  1.00  0.00    -0.487 NA 
HETATM    9  C   UNL     1     -12.436  12.982  65.130  1.00  0.00    -0.496 C  
HETATM   10  O   UNL     1     -13.366  12.353  64.653  1.00  0.00    -0.778 OA 
ENDBRANCH   2   3
TORSDOF 1
ENDMDL
MODEL       12
REMARK 921   NORMALIZED FREE ENERGY PREDICTED BY IDOCK:   -3.97 KCAL/MOL
REMARK 922        TOTAL FREE ENERGY PREDICTED BY IDOCK:   -4.24 KCAL/MOL
REMARK 923 INTER-LIGAND FREE ENERGY PREDICTED BY IDOCK:   -4.22 KCAL/MOL
REMARK 924 INTRA-LIGAND FREE ENERGY PREDICTED BY IDOCK:   -0.02 KCAL/MOL
REMARK 927      BINDING AFFINITY PREDICTED BY RF-SCORE:    0.00 PKD
ROOT
HETATM    1  C   UNL     1     -11.364  15.116  69.367  1.00  0.00    -0.307 C  
HETATM    2  C   UNL     1     -10.797  15.677  68.067  1.00  0.00    -0.308 C  
ENDROOT
BRANCH   2   3
HETATM    3  C   UNL     1     -10.839  14.734  66.853  1.00  0.00    -0.316 C  
HETATM    4  C   UNL     1      -9.590  13.831  66.870  1.00  0.00    -0.263 C  
HETATM    5  C   UNL     1     -12.101  13.861  66.751  1.00  0.00    -0.476 C  
HETATM    6  C   UNL     1     -12.369  13.813  65.272  1.00  0.00    -0.464 C  
HETATM    7  O   UNL     1     -13.146  13.057  64.715  1.00  0.00    -0.742 OA 
HETATM    8  N   UNL     1     -11.643  14.786  64.666  1.00  0.00    -0.407 NA 
HETATM    9  C   UNL     1     -10.844  15.469  65.526  1.00  0.00    -0.361 C  
HETATM   10  O   UNL     1     -10.193  16.460  65.242  1.00  0.00    -0.575 OA 
ENDBRANCH   2   3
TORSDOF 1
ENDMDL
MODEL       13
REMARK 921   NORMALIZED FREE ENERGY PREDICTED BY IDOCK:   -3.93 KCAL/MOL
REMARK 922        TOTAL FREE ENERGY PREDICTED BY IDOCK:   -4.20 KCAL/MOL
REMARK 923 INTER-LIGAND FREE ENERGY PREDICTED BY IDOCK:   -4.18 KCAL/MOL
REMARK 924 INTRA-LIGAND FREE ENERGY PREDICTED BY IDOCK:   -0.01 KCAL/MOL
REMARK 927      BINDING AFFINITY PREDICTED BY RF-SCORE:    0.00 PKD
ROOT
HETATM    1  C   UNL     1     -12.390  12.123  63.655  1.00  0.00    -0.673 C  
HETATM    2  C   UNL     1     -12.604  12.806  65.002  1.00  0.00    -0.538 C  
ENDROOT
BRANCH   2   3
HETATM    3  C   UNL     1     -11.414  13.615  65.543  1.00  0.00    -0.317 C  
HETATM    4  C   UNL     1     -10.183  12.694  65.651  1.00  0.00    -0.290 C  
HETATM    5  C   UNL     1     -11.049  14.863  64.722  1.00  0.00    -0.395 C  
HETATM    6  C   UNL     1     -10.650  15.864  65.771  1.00  0.00    -0.355 C  
HETATM    7  O   UNL     1     -10.081  16.922  65.564  1.00  0.00    -0.575 OA 
HETATM    8  N   UNL     1     -11.075  15.419  66.980  1.00  0.00    -0.307 NA 
HETATM    9  C   UNL     1     -11.664  14.196  66.922  1.00  0.00    -0.414 C  
HETATM   10  O   UNL     1     -12.229  13.645  67.851  1.00  0.00    -0.320 OA 
ENDBRANCH   2   3
TORSDOF 1
ENDMDL
MODEL       14
REMARK 921   NORMALIZED FREE ENERGY PREDICTED BY IDOCK:   -3.91 KCAL/MOL
REMARK 922        TOTAL FREE ENERGY PREDICTED BY IDOCK:   -4.17 KCAL/MOL
REMARK 923 INTER-LIGAND FREE ENERGY PREDICTED BY IDOCK:   -4.08 KCAL/MOL
REMARK 924 INTRA-LIGAND FREE ENERGY PREDICTED BY IDOCK:   -0.09 KCAL/MOL
REMARK 927      BINDING AFFINITY PREDICTED BY RF-SCORE:    0.00 PKD
ROOT
HETATM    1  C   UNL     1     -11.716  12.144  67.991  1.00  0.00    -0.409 C  
HETATM    2  C   UNL     1     -11.519  13.569  67.483  1.00  0.00    -0.361 C  
ENDROOT
BRANCH   2   3
HETATM    3  C   UNL     1     -11.263  13.716  65.974  1.00  0.00    -0.302 C  
HETATM    4  C   UNL     1     -10.712  15.127  65.689  1.00  0.00    -0.374 C  
HETATM    5  C   UNL     1     -10.318  12.665  65.368  1.00  0.00    -0.311 C  
HETATM    6  C   UNL     1     -10.916  12.401  64.014  1.00  0.00    -0.391 C  
HETATM    7  O   UNL     1     -10.376  11.796  63.105  1.00  0.00    -0.386 OA 
HETATM    8  N   UNL     1     -12.177  12.901  63.990  1.00  0.00    -0.507 NA 
HETATM    9  C   UNL     1     -12.517  13.546  65.137  1.00  0.00    -0.451 C  
HETATM   10  O   UNL     1     -13.629  13.971  65.399  1.00  0.00    -0.593 OA 
ENDBRANCH   2   3
TORSDOF 1
ENDMDL
MODEL       15
REMARK 921   NORMALIZED FREE ENERGY PREDICTED BY IDOCK:   -3.89 KCAL/MOL
REMARK 922        TOTAL FREE ENERGY PREDICTED BY IDOCK:   -4.15 KCAL/MOL
REMARK 923 INTER-LIGAND FREE ENERGY PREDICTED BY IDOCK:   -4.08 KCAL/MOL
REMARK 924 INTRA-LIGAND FREE ENERGY PREDICTED BY IDOCK:   -0.07 KCAL/MOL
REMARK 927      BINDING AFFINITY PREDICTED BY RF-SCORE:    0.00 PKD
ROOT
HETATM    1  C   UNL     1     -10.821  10.941  67.869  1.00  0.00    -0.295 C  
HETATM    2  C   UNL     1     -10.312  12.332  67.504  1.00  0.00    -0.214 C  
ENDROOT
BRANCH   2   3
HETATM    3  C   UNL     1     -10.837  12.915  66.182  1.00  0.00    -0.300 C  
HETATM    4  C   UNL     1      -9.786  13.883  65.603  1.00  0.00    -0.231 C  
HETATM    5  C   UNL     1     -11.216  11.874  65.116  1.00  0.00    -0.346 C  
HETATM    6  C   UNL     1     -12.431  12.474  64.462  1.00  0.00    -0.459 C  
HETATM    7  O   UNL     1     -12.937  12.094  63.421  1.00  0.00    -0.776 OA 
HETATM    8  N   UNL     1     -12.900  13.473  65.251  1.00  0.00    -0.704 NA 
HETATM    9  C   UNL     1     -12.127  13.697  66.345  1.00  0.00    -0.433 C  
HETATM   10  O   UNL     1     -12.406  14.456  67.258  1.00  0.00    -0.322 OA 
ENDBRANCH   2   3
TORSDOF 1
ENDMDL
MODEL       16
REMARK 921   NORMALIZED FREE ENERGY PREDICTED BY IDOCK:   -3.86 KCAL/MOL
REMARK 922        TOTAL FREE ENERGY PREDICTED BY IDOCK:   -4.12 KCAL/MOL
REMARK 923 INTER-LIGAND FREE ENERGY PREDICTED BY IDOCK:   -4.10 KCAL/MOL
REMARK 924 INTRA-LIGAND FREE ENERGY PREDICTED BY IDOCK:   -0.01 KCAL/MOL
REMARK 927      BINDING AFFINITY PREDICTED BY RF-SCORE:    0.00 PKD
ROOT
HETATM    1  C   UNL     1     -11.569  12.509  63.658  1.00  0.00    -0.580 C  
HETATM    2  C   UNL     1     -12.216  12.398  65.035  1.00  0.00    -0.465 C  
ENDROOT
BRANCH   2   3
HETATM    3  C   UNL     1     -11.431  13.024  66.199  1.00  0.00    -0.381 C  
HETATM    4  C   UNL     1      -9.936  12.687  66.040  1.00  0.00    -0.267 C  
HETATM    5  C   UNL     1     -11.600  14.544  66.356  1.00  0.00    -0.370 C  
HETATM    6  C   UNL     1     -11.609  14.740  67.847  1.00  0.00    -0.351 C  
HETATM    7  O   UNL     1     -11.505  15.808  68.424  1.00  0.00    -0.362 OA 
HETATM    8  N   UNL     1     -11.805  13.536  68.443  1.00  0.00    -0.360 NA 
HETATM    9  C   UNL     1     -11.867  12.507  67.558  1.00  0.00    -0.323 C  
HETATM   10  O   UNL     1     -12.154  11.356  67.840  1.00  0.00    -0.646 OA 
ENDBRANCH   2   3
TORSDOF 1
ENDMDL
MODEL       17
REMARK 921   NORMALIZED FREE ENERGY PREDICTED BY IDOCK:   -3.85 KCAL/MOL
REMARK 922        TOTAL FREE ENERGY PREDICTED BY IDOCK:   -4.11 KCAL/MOL
REMARK 923 INTER-LIGAND FREE ENERGY PREDICTED BY IDOCK:   -4.07 KCAL/MOL
REMARK 924 INTRA-LIGAND FREE ENERGY PREDICTED BY IDOCK:   -0.04 KCAL/MOL
REMARK 927      BINDING AFFINITY PREDICTED BY RF-SCORE:    0.00 PKD
ROOT
HETATM    1  C   UNL     1      -9.129  17.969  67.436  1.00  0.00    -0.250 C  
HETATM    2  C   UNL     1     -10.471  17.271  67.240  1.00  0.00    -0.319 C  
ENDROOT
BRANCH   2   3
HETATM    3  C   UNL     1     -10.412  15.859  66.634  1.00  0.00    -0.306 C  
HETATM    4  C   UNL     1      -8.938  15.424  66.508  1.00  0.00    -0.344 C  
HETATM    5  C   UNL     1     -11.198  14.786  67.406  1.00  0.00    -0.346 C  
HETATM    6  C   UNL     1     -11.763  13.919  66.314  1.00  0.00    -0.383 C  
HETATM    7  O   UNL     1     -12.274  12.824  66.470  1.00  0.00    -0.494 OA 
HETATM    8  N   UNL     1     -11.657  14.581  65.134  1.00  0.00    -0.359 NA 
HETATM    9  C   UNL     1     -11.025  15.778  65.249  1.00  0.00    -0.344 C  
HETATM   10  O   UNL     1     -10.917  16.602  64.357  1.00  0.00    -0.924 OA 
ENDBRANCH   2   3
TORSDOF 1
ENDMDL
MODEL       18
REMARK 921   NORMALIZED FREE ENERGY PREDICTED BY IDOCK:   -3.83 KCAL/MOL
REMARK 922        TOTAL FREE ENERGY PREDICTED BY IDOCK:   -4.09 KCAL/MOL
REMARK 923 INTER-LIGAND FREE ENERGY PREDICTED BY IDOCK:   -4.00 KCAL/MOL
REMARK 924 INTRA-LIGAND FREE ENERGY PREDICTED BY IDOCK:   -0.09 KCAL/MOL
REMARK 927      BINDING AFFINITY PREDICTED BY RF-SCORE:    0.00 PKD
ROOT
HETATM    1  C   UNL     1     -10.823  14.998  64.883  1.00  0.00    -0.430 C  
HETATM    2  C   UNL     1     -11.930  14.105  64.330  1.00  0.00    -0.478 C  
ENDROOT
BRANCH   2   3
HETATM    3  C   UNL     1     -11.617  12.601  64.279  1.00  0.00    -0.435 C  
HETATM    4  C   UNL     1     -12.777  11.866  63.578  1.00  0.00    -0.530 C  
HETATM    5  C   UNL     1     -10.291  12.234  63.592  1.00  0.00    -0.463 C  
HETATM    6  C   UNL     1      -9.783  11.081  64.413  1.00  0.00    -0.280 C  
HETATM    7  O   UNL     1      -8.870  10.336  64.103  1.00  0.00    -0.189 OA 
HETATM    8  N   UNL     1     -10.475  11.039  65.579  1.00  0.00    -0.257 NA 
HETATM    9  C   UNL     1     -11.455  11.978  65.652  1.00  0.00    -0.316 C  
HETATM   10  O   UNL     1     -12.127  12.214  66.642  1.00  0.00    -0.622 OA 
ENDBRANCH   2   3
TORSDOF 1
ENDMDL
MODEL       19
REMARK 921   NORMALIZED FREE ENERGY PREDICTED BY IDOCK:   -3.81 KCAL/MOL
REMARK 922        TOTAL FREE ENERGY PREDICTED BY IDOCK:   -4.07 KCAL/MOL
REMARK 923 INTER-LIGAND FREE ENERGY PREDICTED BY IDOCK:   -4.02 KCAL/MOL
REMARK 924 INTRA-LIGAND FREE ENERGY PREDICTED BY IDOCK:   -0.05 KCAL/MOL
REMARK 927      BINDING AFFINITY PREDICTED BY RF-SCORE:    0.00 PKD
ROOT
HETATM    1  C   UNL     1     -10.295  15.956  65.645  1.00  0.00    -0.413 C  
HETATM    2  C   UNL     1     -10.885  14.907  64.708  1.00  0.00    -0.382 C  
ENDROOT
BRANCH   2   3
HETATM    3  C   UNL     1     -10.805  13.451  65.194  1.00  0.00    -0.322 C  
HETATM    4  C   UNL     1     -10.305  12.559  64.041  1.00  0.00    -0.429 C  
HETATM    5  C   UNL     1      -9.924  13.226  66.435  1.00  0.00    -0.288 C  
HETATM    6  C   UNL     1     -10.670  12.170  67.203  1.00  0.00    -0.232 C  
HETATM    7  O   UNL     1     -10.230  11.532  68.143  1.00  0.00    -0.182 OA 
HETATM    8  N   UNL     1     -11.931  12.082  66.709  1.00  0.00    -0.610 NA 
HETATM    9  C   UNL     1     -12.144  12.897  65.643  1.00  0.00    -0.458 C  
HETATM   10  O   UNL     1     -13.224  13.082  65.107  1.00  0.00    -0.703 OA 
ENDBRANCH   2   3
TORSDOF 1
ENDMDL
MODEL       20
REMARK 921   NORMALIZED FREE ENERGY PREDICTED BY IDOCK:   -3.79 KCAL/MOL
REMARK 922        TOTAL FREE ENERGY PREDICTED BY IDOCK:   -4.05 KCAL/MOL
REMARK 923 INTER-LIGAND FREE ENERGY PREDICTED BY IDOCK:   -4.01 KCAL/MOL
REMARK 924 INTRA-LIGAND FREE ENERGY PREDICTED BY IDOCK:   -0.04 KCAL/MOL
REMARK 927      BINDING AFFINITY PREDICTED BY RF-SCORE:    0.00 PKD
ROOT
HETATM    1  C   UNL     1     -10.689  12.257  68.734  1.00  0.00    -0.247 C  
HETATM    2  C   UNL     1     -11.759  12.770  67.776  1.00  0.00    -0.412 C  
ENDROOT
BRANCH   2   3
HETATM    3  C   UNL     1     -11.271  13.162  66.371  1.00  0.00    -0.328 C  
HETATM    4  C   UNL     1      -9.808  12.709  66.199  1.00  0.00    -0.265 C  
HETATM    5  C   UNL     1     -12.117  12.612  65.211  1.00  0.00    -0.519 C  
HETATM    6  C   UNL     1     -12.104  13.735  64.211  1.00  0.00    -0.440 C  
HETATM    7  O   UNL     1     -12.468  13.657  63.050  1.00  0.00    -0.719 OA 
HETATM    8  N   UNL     1     -11.670  14.863  64.828  1.00  0.00    -0.410 NA 
HETATM    9  C   UNL     1     -11.311  14.658  66.122  1.00  0.00    -0.350 C  
HETATM   10  O   UNL     1     -11.005  15.535  66.912  1.00  0.00    -0.317 OA 
ENDBRANCH   2   3
TORSDOF 1
ENDMDL
MODEL       21
REMARK 921   NORMALIZED FREE ENERGY PREDICTED BY IDOCK:   -3.78 KCAL/MOL
REMARK 922        TOTAL FREE ENERGY PREDICTED BY IDOCK:   -4.04 KCAL/MOL
REMARK 923 INTER-LIGAND FREE ENERGY PREDICTED BY IDOCK:   -4.20 KCAL/MOL
REMARK 924 INTRA-LIGAND FREE ENERGY PREDICTED BY IDOCK:    0.16 KCAL/MOL
REMARK 927      BINDING AFFINITY PREDICTED BY RF-SCORE:    0.00 PKD
ROOT
HETATM    1  C   UNL     1     -11.597  13.478  64.422  1.00  0.00    -0.429 C  
HETATM    2  C   UNL     1     -10.266  13.975  64.977  1.00  0.00    -0.395 C  
ENDROOT
BRANCH   2   3
HETATM    3  C   UNL     1     -10.334  15.227  65.867  1.00  0.00    -0.346 C  
HETATM    4  C   UNL     1     -11.436  15.035  66.927  1.00  0.00    -0.266 C  
HETATM    5  C   UNL     1      -9.015  15.604  66.562  1.00  0.00    -0.343 C  
HETATM    6  C   UNL     1      -9.024  17.108  66.527  1.00  0.00    -0.272 C  
HETATM    7  O   UNL     1      -8.277  17.837  67.156  1.00  0.00    -0.210 OA 
HETATM    8  N   UNL     1      -9.965  17.518  65.639  1.00  0.00    -0.565 NA 
HETATM    9  C   UNL     1     -10.668  16.490  65.096  1.00  0.00    -0.244 C  
HETATM   10  O   UNL     1     -11.478  16.597  64.191  1.00  0.00    -1.131 OA 
ENDBRANCH   2   3
TORSDOF 1
ENDMDL
MODEL       22
REMARK 921   NORMALIZED FREE ENERGY PREDICTED BY IDOCK:   -3.78 KCAL/MOL
REMARK 922        TOTAL FREE ENERGY PREDICTED BY IDOCK:   -4.03 KCAL/MOL
REMARK 923 INTER-LIGAND FREE ENERGY PREDICTED BY IDOCK:   -3.97 KCAL/MOL
REMARK 924 INTRA-LIGAND FREE ENERGY PREDICTED BY IDOCK:   -0.06 KCAL/MOL
REMARK 927      BINDING AFFINITY PREDICTED BY RF-SCORE:    0.00 PKD
ROOT
HETATM    1  C   UNL     1     -10.811  16.305  65.293  1.00  0.00    -0.310 C  
HETATM    2  C   UNL     1     -10.648  15.383  66.496  1.00  0.00    -0.306 C  
ENDROOT
BRANCH   2   3
HETATM    3  C   UNL     1     -11.385  14.035  66.415  1.00  0.00    -0.338 C  
HETATM    4  C   UNL     1     -11.837  13.620  67.829  1.00  0.00    -0.403 C  
HETATM    5  C   UNL     1     -12.592  14.010  65.463  1.00  0.00    -0.543 C  
HETATM    6  C   UNL     1     -12.526  12.635  64.857  1.00  0.00    -0.494 C  
HETATM    7  O   UNL     1     -13.409  12.102  64.208  1.00  0.00    -0.761 OA 
HETATM    8  N   UNL     1     -11.301  12.108  65.106  1.00  0.00    -0.326 NA 
HETATM    9  C   UNL     1     -10.520  12.914  65.872  1.00  0.00    -0.279 C  
HETATM   10  O   UNL     1      -9.344  12.713  66.128  1.00  0.00    -0.207 OA 
ENDBRANCH   2   3
TORSDOF 1
ENDMDL
MODEL       23
REMARK 921   NORMALIZED FREE ENERGY PREDICTED BY IDOCK:   -3.74 KCAL/MOL
REMARK 922        TOTAL FREE ENERGY PREDICTED BY IDOCK:   -3.99 KCAL/MOL
REMARK 923 INTER-LIGAND FREE ENERGY PREDICTED BY IDOCK:   -3.99 KCAL/MOL
REMARK 924 INTRA-LIGAND FREE ENERGY PREDICTED BY IDOCK:   -0.00 KCAL/MOL
REMARK 927      BINDING AFFINITY PREDICTED BY RF-SCORE:    0.00 PKD
ROOT
HETATM    1  C   UNL     1     -10.272  10.849  67.660  1.00  0.00    -0.214 C  
HETATM    2  C   UNL     1     -11.355  11.827  67.215  1.00  0.00    -0.379 C  
ENDROOT
BRANCH   2   3
HETATM    3  C   UNL     1     -11.140  12.489  65.843  1.00  0.00    -0.334 C  
HETATM    4  C   UNL     1     -10.410  11.500  64.913  1.00  0.00    -0.340 C  
HETATM    5  C   UNL     1     -12.421  12.990  65.155  1.00  0.00    -0.552 C  
HETATM    6  C   UNL     1     -11.980  14.264  64.489  1.00  0.00    -0.462 C  
HETATM    7  O   UNL     1     -12.613  14.884  63.652  1.00  0.00    -0.724 OA 
HETATM    8  N   UNL     1     -10.785  14.637  65.011  1.00  0.00    -0.404 NA 
HETATM    9  C   UNL     1     -10.296  13.747  65.914  1.00  0.00    -0.309 C  
HETATM   10  O   UNL     1      -9.304  13.920  66.603  1.00  0.00    -0.269 OA 
ENDBRANCH   2   3
TORSDOF 1
ENDMDL
MODEL       24
REMARK 921   NORMALIZED FREE ENERGY PREDICTED BY IDOCK:   -3.65 KCAL/MOL
REMARK 922        TOTAL FREE ENERGY PREDICTED BY IDOCK:   -3.90 KCAL/MOL
REMARK 923 INTER-LIGAND FREE ENERGY PREDICTED BY IDOCK:   -3.86 KCAL/MOL
REMARK 924 INTRA-LIGAND FREE ENERGY PREDICTED BY IDOCK:   -0.04 KCAL/MOL
REMARK 927      BINDING AFFINITY PREDICTED BY RF-SCORE:    0.00 PKD
ROOT
HETATM    1  C   UNL     1     -10.624   5.814  71.082  1.00  0.00    -0.315 C  
HETATM    2  C   UNL     1     -11.419   6.989  70.522  1.00  0.00    -0.363 C  
ENDROOT
BRANCH   2   3
HETATM    3  C   UNL     1     -11.911   8.019  71.552  1.00  0.00    -0.331 C  
HETATM    4  C   UNL     1     -11.204   7.768  72.898  1.00  0.00    -0.434 C  
HETATM    5  C   UNL     1     -11.725   9.490  71.142  1.00  0.00    -0.438 C  
HETATM    6  C   UNL     1     -12.960  10.159  71.681  1.00  0.00    -0.456 C  
HETATM    7  O   UNL     1     -13.132  11.361  71.776  1.00  0.00    -0.480 OA 
HETATM    8  N   UNL     1     -13.871   9.203  71.994  1.00  0.00    -0.425 NA 
HETATM    9  C   UNL     1     -13.405   7.940  71.807  1.00  0.00    -0.328 C  
HETATM   10  O   UNL     1     -14.073   6.925  71.904  1.00  0.00    -0.285 OA 
ENDBRANCH   2   3
TORSDOF 1
ENDMDL
MODEL       25
REMARK 921   NORMALIZED FREE ENERGY PREDICTED BY IDOCK:   -3.64 KCAL/MOL
REMARK 922        TOTAL FREE ENERGY PREDICTED BY IDOCK:   -3.88 KCAL/MOL
REMARK 923 INTER-LIGAND FREE ENERGY PREDICTED BY IDOCK:   -3.84 KCAL/MOL
REMARK 924 INTRA-LIGAND FREE ENERGY PREDICTED BY IDOCK:   -0.04 KCAL/MOL
REMARK 927      BINDING AFFINITY PREDICTED BY RF-SCORE:    0.00 PKD
ROOT
HETATM    1  C   UNL     1     -10.508  11.613  68.554  1.00  0.00    -0.236 C  
HETATM    2  C   UNL     1      -9.977  12.390  67.353  1.00  0.00    -0.203 C  
ENDROOT
BRANCH   2   3
HETATM    3  C   UNL     1     -10.808  13.610  66.922  1.00  0.00    -0.286 C  
HETATM    4  C   UNL     1     -11.667  14.084  68.111  1.00  0.00    -0.387 C  
HETATM    5  C   UNL     1      -9.991  14.793  66.377  1.00  0.00    -0.291 C  
HETATM    6  C   UNL     1     -10.856  15.331  65.271  1.00  0.00    -0.403 C  
HETATM    7  O   UNL     1     -10.704  16.400  64.706  1.00  0.00    -0.700 OA 
HETATM    8  N   UNL     1     -11.802  14.407  64.970  1.00  0.00    -0.383 NA 
HETATM    9  C   UNL     1     -11.753  13.313  65.774  1.00  0.00    -0.359 C  
HETATM   10  O   UNL     1     -12.418  12.302  65.623  1.00  0.00    -0.591 OA 
ENDBRANCH   2   3
TORSDOF 1
ENDMDL
MODEL       26
REMARK 921   NORMALIZED FREE ENERGY PREDICTED BY IDOCK:   -3.62 KCAL/MOL
REMARK 922        TOTAL FREE ENERGY PREDICTED BY IDOCK:   -3.87 KCAL/MOL
REMARK 923 INTER-LIGAND FREE ENERGY PREDICTED BY IDOCK:   -3.82 KCAL/MOL
REMARK 924 INTRA-LIGAND FREE ENERGY PREDICTED BY IDOCK:   -0.05 KCAL/MOL
REMARK 927      BINDING AFFINITY PREDICTED BY RF-SCORE:    0.00 PKD
ROOT
HETATM    1  C   UNL     1      -7.474  16.297  68.875  1.00  0.00    -0.209 C  
HETATM    2  C   UNL     1      -8.834  16.069  68.222  1.00  0.00    -0.182 C  
ENDROOT
BRANCH   2   3
HETATM    3  C   UNL     1      -9.034  16.719  66.843  1.00  0.00    -0.244 C  
HETATM    4  C   UNL     1      -7.657  17.008  66.214  1.00  0.00    -0.340 C  
HETATM    5  C   UNL     1      -9.886  15.902  65.857  1.00  0.00    -0.383 C  
HETATM    6  C   UNL     1     -10.672  16.955  65.124  1.00  0.00    -0.103 C  
HETATM    7  O   UNL     1     -11.315  16.779  64.104  1.00  0.00    -1.194 OA 
HETATM    8  N   UNL     1     -10.588  18.120  65.814  1.00  0.00    -0.553 NA 
HETATM    9  C   UNL     1      -9.785  18.035  66.907  1.00  0.00    -0.314 C  
HETATM   10  O   UNL     1      -9.649  18.910  67.746  1.00  0.00    -0.300 OA 
ENDBRANCH   2   3
TORSDOF 1
ENDMDL
MODEL       27
REMARK 921   NORMALIZED FREE ENERGY PREDICTED BY IDOCK:   -3.58 KCAL/MOL
REMARK 922        TOTAL FREE ENERGY PREDICTED BY IDOCK:   -3.82 KCAL/MOL
REMARK 923 INTER-LIGAND FREE ENERGY PREDICTED BY IDOCK:   -3.80 KCAL/MOL
REMARK 924 INTRA-LIGAND FREE ENERGY PREDICTED BY IDOCK:   -0.02 KCAL/MOL
REMARK 927      BINDING AFFINITY PREDICTED BY RF-SCORE:    0.00 PKD
ROOT
HETATM    1  C   UNL     1     -10.651  11.577  63.439  1.00  0.00    -0.460 C  
HETATM    2  C   UNL     1     -10.501  11.703  64.951  1.00  0.00    -0.339 C  
ENDROOT
BRANCH   2   3
HETATM    3  C   UNL     1     -11.469  12.675  65.645  1.00  0.00    -0.387 C  
HETATM    4  C   UNL     1     -12.784  12.739  64.842  1.00  0.00    -0.479 C  
HETATM    5  C   UNL     1     -11.782  12.346  67.114  1.00  0.00    -0.415 C  
HETATM    6  C   UNL     1     -11.871  13.700  67.762  1.00  0.00    -0.368 C  
HETATM    7  O   UNL     1     -12.314  13.928  68.874  1.00  0.00    -0.301 OA 
HETATM    8  N   UNL     1     -11.328  14.620  66.924  1.00  0.00    -0.347 NA 
HETATM    9  C   UNL     1     -10.930  14.090  65.737  1.00  0.00    -0.294 C  
HETATM   10  O   UNL     1     -10.309  14.689  64.876  1.00  0.00    -0.411 OA 
ENDBRANCH   2   3
TORSDOF 1
ENDMDL
MODEL       28
REMARK 921   NORMALIZED FREE ENERGY PREDICTED BY IDOCK:   -3.57 KCAL/MOL
REMARK 922        TOTAL FREE ENERGY PREDICTED BY IDOCK:   -3.81 KCAL/MOL
REMARK 923 INTER-LIGAND FREE ENERGY PREDICTED BY IDOCK:   -3.77 KCAL/MOL
REMARK 924 INTRA-LIGAND FREE ENERGY PREDICTED BY IDOCK:   -0.04 KCAL/MOL
REMARK 927      BINDING AFFINITY PREDICTED BY RF-SCORE:    0.00 PKD
ROOT
HETATM    1  C   UNL     1     -10.540  15.293  65.195  1.00  0.00    -0.453 C  
HETATM    2  C   UNL     1     -11.231  14.965  66.515  1.00  0.00    -0.335 C  
ENDROOT
BRANCH   2   3
HETATM    3  C   UNL     1     -10.886  13.600  67.133  1.00  0.00    -0.292 C  
HETATM    4  C   UNL     1      -9.506  13.145  66.619  1.00  0.00    -0.260 C  
HETATM    5  C   UNL     1     -10.898  13.560  68.671  1.00  0.00    -0.281 C  
HETATM    6  C   UNL     1     -11.462  12.200  68.977  1.00  0.00    -0.297 C  
HETATM    7  O   UNL     1     -11.449  11.655  70.067  1.00  0.00    -0.264 OA 
HETATM    8  N   UNL     1     -12.033  11.702  67.852  1.00  0.00    -0.623 NA 
HETATM    9  C   UNL     1     -11.881  12.513  66.773  1.00  0.00    -0.346 C  
HETATM   10  O   UNL     1     -12.407  12.340  65.686  1.00  0.00    -0.619 OA 
ENDBRANCH   2   3
TORSDOF 1
ENDMDL
MODEL       29
REMARK 921   NORMALIZED FREE ENERGY PREDICTED BY IDOCK:   -3.56 KCAL/MOL
REMARK 922        TOTAL FREE ENERGY PREDICTED BY IDOCK:   -3.80 KCAL/MOL
REMARK 923 INTER-LIGAND FREE ENERGY PREDICTED BY IDOCK:   -3.78 KCAL/MOL
REMARK 924 INTRA-LIGAND FREE ENERGY PREDICTED BY IDOCK:   -0.02 KCAL/MOL
REMARK 927      BINDING AFFINITY PREDICTED BY RF-SCORE:    0.00 PKD
ROOT
HETATM    1  C   UNL     1     -10.513  15.468  69.863  1.00  0.00    -0.323 C  
HETATM    2  C   UNL     1     -11.343  15.680  71.125  1.00  0.00    -0.446 C  
ENDROOT
BRANCH   2   3
HETATM    3  C   UNL     1     -12.560  14.755  71.293  1.00  0.00    -0.403 C  
HETATM    4  C   UNL     1     -13.785  15.402  70.617  1.00  0.00    -0.034 C  
HETATM    5  C   UNL     1     -12.371  13.328  70.753  1.00  0.00    -0.425 C  
HETATM    6  C   UNL     1     -13.111  12.480  71.751  1.00  0.00    -0.347 C  
HETATM    7  O   UNL     1     -13.408  11.307  71.605  1.00  0.00    -0.356 OA 
HETATM    8  N   UNL     1     -13.347  13.221  72.862  1.00  0.00    -0.468 NA 
HETATM    9  C   UNL     1     -12.925  14.508  72.744  1.00  0.00    -0.471 C  
HETATM   10  O   UNL     1     -12.918  15.329  73.646  1.00  0.00    -0.508 OA 
ENDBRANCH   2   3
TORSDOF 1
ENDMDL
MODEL       30
REMARK 921   NORMALIZED FREE ENERGY PREDICTED BY IDOCK:   -3.54 KCAL/MOL
REMARK 922        TOTAL FREE ENERGY PREDICTED BY IDOCK:   -3.78 KCAL/MOL
REMARK 923 INTER-LIGAND FREE ENERGY PREDICTED BY IDOCK:   -3.70 KCAL/MOL
REMARK 924 INTRA-LIGAND FREE ENERGY PREDICTED BY IDOCK:   -0.09 KCAL/MOL
REMARK 927      BINDING AFFINITY PREDICTED BY RF-SCORE:    0.00 PKD
ROOT
HETATM    1  C   UNL     1     -10.129  20.199  67.257  1.00  0.00    -0.572 C  
HETATM    2  C   UNL     1      -9.079  19.388  68.010  1.00  0.00    -0.382 C  
ENDROOT
BRANCH   2   3
HETATM    3  C   UNL     1      -9.085  17.873  67.748  1.00  0.00    -0.258 C  
HETATM    4  C   UNL     1      -8.083  17.191  68.701  1.00  0.00    -0.264 C  
HETATM    5  C   UNL     1     -10.458  17.194  67.879  1.00  0.00    -0.369 C  
HETATM    6  C   UNL     1     -10.440  16.161  66.787  1.00  0.00    -0.294 C  
HETATM    7  O   UNL     1     -11.236  15.247  66.660  1.00  0.00    -0.314 OA 
HETATM    8  N   UNL     1      -9.421  16.445  65.936  1.00  0.00    -0.469 NA 
HETATM    9  C   UNL     1      -8.677  17.510  66.333  1.00  0.00    -0.242 C  
HETATM   10  O   UNL     1      -7.789  18.028  65.677  1.00  0.00    -0.531 OA 
ENDBRANCH   2   3
TORSDOF 1
ENDMDL
MODEL       31
REMARK 921   NORMALIZED FREE ENERGY PREDICTED BY IDOCK:   -3.53 KCAL/MOL
REMARK 922        TOTAL FREE ENERGY PREDICTED BY IDOCK:   -3.77 KCAL/MOL
REMARK 923 INTER-LIGAND FREE ENERGY PREDICTED BY IDOCK:   -3.76 KCAL/MOL
REMARK 924 INTRA-LIGAND FREE ENERGY PREDICTED BY IDOCK:   -0.02 KCAL/MOL
REMARK 927      BINDING AFFINITY PREDICTED BY RF-SCORE:    0.00 PKD
ROOT
HETATM    1  C   UNL     1     -11.748  15.762  68.851  1.00  0.00    -0.404 C  
HETATM    2  C   UNL     1     -11.777  14.636  67.823  1.00  0.00    -0.386 C  
ENDROOT
BRANCH   2   3
HETATM    3  C   UNL     1     -11.295  13.262  68.317  1.00  0.00    -0.335 C  
HETATM    4  C   UNL     1      -9.759  13.198  68.216  1.00  0.00    -0.223 C  
HETATM    5  C   UNL     1     -11.730  12.894  69.745  1.00  0.00    -0.351 C  
HETATM    6  C   UNL     1     -12.004  11.418  69.655  1.00  0.00    -0.348 C  
HETATM    7  O   UNL     1     -12.166  10.667  70.600  1.00  0.00    -0.302 OA 
HETATM    8  N   UNL     1     -12.094  11.072  68.346  1.00  0.00    -0.573 NA 
HETATM    9  C   UNL     1     -11.848  12.108  67.502  1.00  0.00    -0.237 C  
HETATM   10  O   UNL     1     -11.986  12.073  66.291  1.00  0.00    -0.596 OA 
ENDBRANCH   2   3
TORSDOF 1
ENDMDL
MODEL       32
REMARK 921   NORMALIZED FREE ENERGY PREDICTED BY IDOCK:   -3.52 KCAL/MOL
REMARK 922        TOTAL FREE ENERGY PREDICTED BY IDOCK:   -3.76 KCAL/MOL
REMARK 923 INTER-LIGAND FREE ENERGY PREDICTED BY IDOCK:   -3.74 KCAL/MOL
REMARK 924 INTRA-LIGAND FREE ENERGY PREDICTED BY IDOCK:   -0.01 KCAL/MOL
REMARK 927      BINDING AFFINITY PREDICTED BY RF-SCORE:    0.00 PKD
ROOT
HETATM    1  C   UNL     1      -7.368  15.641  67.154  1.00  0.00    -0.247 C  
HETATM    2  C   UNL     1      -8.313  16.543  66.366  1.00  0.00    -0.358 C  
ENDROOT
BRANCH   2   3
HETATM    3  C   UNL     1      -9.463  17.175  67.167  1.00  0.00    -0.249 C  
HETATM    4  C   UNL     1     -10.327  16.056  67.782  1.00  0.00    -0.279 C  
HETATM    5  C   UNL     1      -9.027  18.151  68.273  1.00  0.00    -0.306 C  
HETATM    6  C   UNL     1     -10.082  19.222  68.225  1.00  0.00    -0.425 C  
HETATM    7  O   UNL     1     -10.257  20.084  69.068  1.00  0.00    -0.401 OA 
HETATM    8  N   UNL     1     -10.772  19.101  67.063  1.00  0.00    -0.458 NA 
HETATM    9  C   UNL     1     -10.379  18.035  66.318  1.00  0.00    -0.382 C  
HETATM   10  O   UNL     1     -10.765  17.790  65.187  1.00  0.00    -0.638 OA 
ENDBRANCH   2   3
TORSDOF 1
ENDMDL
MODEL       33
REMARK 921   NORMALIZED FREE ENERGY PREDICTED BY IDOCK:   -3.51 KCAL/MOL
REMARK 922        TOTAL FREE ENERGY PREDICTED BY IDOCK:   -3.75 KCAL/MOL
REMARK 923 INTER-LIGAND FREE ENERGY PREDICTED BY IDOCK:   -3.70 KCAL/MOL
REMARK 924 INTRA-LIGAND FREE ENERGY PREDICTED BY IDOCK:   -0.04 KCAL/MOL
REMARK 927      BINDING AFFINITY PREDICTED BY RF-SCORE:    0.00 PKD
ROOT
HETATM    1  C   UNL     1     -10.703   8.292  69.038  1.00  0.00    -0.098 C  
HETATM    2  C   UNL     1     -11.155   7.546  70.290  1.00  0.00    -0.263 C  
ENDROOT
BRANCH   2   3
HETATM    3  C   UNL     1     -11.726   8.417  71.422  1.00  0.00    -0.332 C  
HETATM    4  C   UNL     1     -11.020   8.056  72.744  1.00  0.00    -0.449 C  
HETATM    5  C   UNL     1     -11.629   9.934  71.188  1.00  0.00    -0.468 C  
HETATM    6  C   UNL     1     -12.911  10.457  71.776  1.00  0.00    -0.475 C  
HETATM    7  O   UNL     1     -13.162  11.628  72.005  1.00  0.00    -0.501 OA 
HETATM    8  N   UNL     1     -13.763   9.417  71.959  1.00  0.00    -0.408 NA 
HETATM    9  C   UNL     1     -13.214   8.216  71.637  1.00  0.00    -0.332 C  
HETATM   10  O   UNL     1     -13.817   7.156  71.603  1.00  0.00    -0.375 OA 
ENDBRANCH   2   3
TORSDOF 1
ENDMDL
MODEL       34
REMARK 921   NORMALIZED FREE ENERGY PREDICTED BY IDOCK:   -3.50 KCAL/MOL
REMARK 922        TOTAL FREE ENERGY PREDICTED BY IDOCK:   -3.74 KCAL/MOL
REMARK 923 INTER-LIGAND FREE ENERGY PREDICTED BY IDOCK:   -3.74 KCAL/MOL
REMARK 924 INTRA-LIGAND FREE ENERGY PREDICTED BY IDOCK:   -0.00 KCAL/MOL
REMARK 927      BINDING AFFINITY PREDICTED BY RF-SCORE:    0.00 PKD
ROOT
HETATM    1  C   UNL     1      -9.182  12.067  67.922  1.00  0.00    -0.190 C  
HETATM    2  C   UNL     1      -9.432  12.904  66.672  1.00  0.00    -0.255 C  
ENDROOT
BRANCH   2   3
HETATM    3  C   UNL     1     -10.788  12.690  65.979  1.00  0.00    -0.306 C  
HETATM    4  C   UNL     1     -11.852  12.351  67.042  1.00  0.00    -0.368 C  
HETATM    5  C   UNL     1     -11.277  13.872  65.125  1.00  0.00    -0.326 C  
HETATM    6  C   UNL     1     -11.937  13.201  63.952  1.00  0.00    -0.488 C  
HETATM    7  O   UNL     1     -12.653  13.749  63.132  1.00  0.00    -0.793 OA 
HETATM    8  N   UNL     1     -11.562  11.898  63.928  1.00  0.00    -0.418 NA 
HETATM    9  C   UNL     1     -10.773  11.550  64.978  1.00  0.00    -0.290 C  
HETATM   10  O   UNL     1     -10.216  10.474  65.111  1.00  0.00    -0.305 OA 
ENDBRANCH   2   3
TORSDOF 1
ENDMDL
MODEL       35
REMARK 921   NORMALIZED FREE ENERGY PREDICTED BY IDOCK:   -3.49 KCAL/MOL
REMARK 922        TOTAL FREE ENERGY PREDICTED BY IDOCK:   -3.73 KCAL/MOL
REMARK 923 INTER-LIGAND FREE ENERGY PREDICTED BY IDOCK:   -3.69 KCAL/MOL
REMARK 924 INTRA-LIGAND FREE ENERGY PREDICTED BY IDOCK:   -0.04 KCAL/MOL
REMARK 927      BINDING AFFINITY PREDICTED BY RF-SCORE:    0.00 PKD
ROOT
HETATM    1  C   UNL     1      -6.851  19.452  67.374  1.00  0.00    -0.226 C  
HETATM    2  C   UNL     1      -7.912  19.136  68.423  1.00  0.00    -0.376 C  
ENDROOT
BRANCH   2   3
HETATM    3  C   UNL     1      -9.335  18.900  67.890  1.00  0.00    -0.338 C  
HETATM    4  C   UNL     1     -10.316  19.823  68.640  1.00  0.00    -0.422 C  
HETATM    5  C   UNL     1      -9.504  19.097  66.374  1.00  0.00    -0.390 C  
HETATM    6  C   UNL     1     -10.484  18.022  65.992  1.00  0.00    -0.313 C  
HETATM    7  O   UNL     1     -11.071  17.942  64.928  1.00  0.00    -0.782 OA 
HETATM    8  N   UNL     1     -10.567  17.127  67.009  1.00  0.00    -0.274 NA 
HETATM    9  C   UNL     1      -9.818  17.476  68.088  1.00  0.00    -0.306 C  
HETATM   10  O   UNL     1      -9.636  16.777  69.071  1.00  0.00    -0.259 OA 
ENDBRANCH   2   3
TORSDOF 1
ENDMDL
MODEL       36
REMARK 921   NORMALIZED FREE ENERGY PREDICTED BY IDOCK:   -3.49 KCAL/MOL
REMARK 922        TOTAL FREE ENERGY PREDICTED BY IDOCK:   -3.73 KCAL/MOL
REMARK 923 INTER-LIGAND FREE ENERGY PREDICTED BY IDOCK:   -3.67 KCAL/MOL
REMARK 924 INTRA-LIGAND FREE ENERGY PREDICTED BY IDOCK:   -0.06 KCAL/MOL
REMARK 927      BINDING AFFINITY PREDICTED BY RF-SCORE:    0.00 PKD
ROOT
HETATM    1  C   UNL     1      -6.917  17.110  68.359  1.00  0.00    -0.195 C  
HETATM    2  C   UNL     1      -7.289  18.580  68.523  1.00  0.00    -0.314 C  
ENDROOT
BRANCH   2   3
HETATM    3  C   UNL     1      -8.418  19.093  67.614  1.00  0.00    -0.323 C  
HETATM    4  C   UNL     1      -8.090  20.530  67.162  1.00  0.00    -0.358 C  
HETATM    5  C   UNL     1      -8.707  18.221  66.380  1.00  0.00    -0.260 C  
HETATM    6  C   UNL     1     -10.203  18.299  66.244  1.00  0.00    -0.401 C  
HETATM    7  O   UNL     1     -10.848  17.936  65.276  1.00  0.00    -0.614 OA 
HETATM    8  N   UNL     1     -10.719  18.792  67.398  1.00  0.00    -0.449 NA 
HETATM    9  C   UNL     1      -9.768  19.136  68.304  1.00  0.00    -0.373 C  
HETATM   10  O   UNL     1      -9.986  19.486  69.452  1.00  0.00    -0.384 OA 
ENDBRANCH   2   3
TORSDOF 1
ENDMDL
MODEL       37
REMARK 921   NORMALIZED FREE ENERGY PREDICTED BY IDOCK:   -3.48 KCAL/MOL
REMARK 922        TOTAL FREE ENERGY PREDICTED BY IDOCK:   -3.72 KCAL/MOL
REMARK 923 INTER-LIGAND FREE ENERGY PREDICTED BY IDOCK:   -3.70 KCAL/MOL
REMARK 924 INTRA-LIGAND FREE ENERGY PREDICTED BY IDOCK:   -0.02 KCAL/MOL
REMARK 927      BINDING AFFINITY PREDICTED BY RF-SCORE:    0.00 PKD
ROOT
HETATM    1  C   UNL     1      -9.330  10.633  63.428  1.00  0.00    -0.324 C  
HETATM    2  C   UNL     1      -9.964  12.021  63.424  1.00  0.00    -0.384 C  
ENDROOT
BRANCH   2   3
HETATM    3  C   UNL     1     -11.152  12.220  64.380  1.00  0.00    -0.381 C  
HETATM    4  C   UNL     1     -12.467  12.077  63.589  1.00  0.00    -0.637 C  
HETATM    5  C   UNL     1     -11.178  11.274  65.592  1.00  0.00    -0.074 C  
HETATM    6  C   UNL     1     -11.699  12.147  66.701  1.00  0.00    -0.313 C  
HETATM    7  O   UNL     1     -12.086  11.758  67.789  1.00  0.00    -0.595 OA 
HETATM    8  N   UNL     1     -11.617  13.444  66.309  1.00  0.00    -0.330 NA 
HETATM    9  C   UNL     1     -11.168  13.588  65.035  1.00  0.00    -0.322 C  
HETATM   10  O   UNL     1     -10.897  14.652  64.504  1.00  0.00    -0.338 OA 
ENDBRANCH   2   3
TORSDOF 1
ENDMDL
MODEL       38
REMARK 921   NORMALIZED FREE ENERGY PREDICTED BY IDOCK:   -3.47 KCAL/MOL
REMARK 922        TOTAL FREE ENERGY PREDICTED BY IDOCK:   -3.71 KCAL/MOL
REMARK 923 INTER-LIGAND FREE ENERGY PREDICTED BY IDOCK:   -3.62 KCAL/MOL
REMARK 924 INTRA-LIGAND FREE ENERGY PREDICTED BY IDOCK:   -0.09 KCAL/MOL
REMARK 927      BINDING AFFINITY PREDICTED BY RF-SCORE:    0.00 PKD
ROOT
HETATM    1  C   UNL     1     -10.653  16.734  68.408  1.00  0.00    -0.354 C  
HETATM    2  C   UNL     1     -10.812  17.984  67.547  1.00  0.00    -0.252 C  
ENDROOT
BRANCH   2   3
HETATM    3  C   UNL     1      -9.599  18.928  67.502  1.00  0.00    -0.347 C  
HETATM    4  C   UNL     1      -9.972  20.193  66.705  1.00  0.00    -0.595 C  
HETATM    5  C   UNL     1      -9.040  19.335  68.876  1.00  0.00    -0.368 C  
HETATM    6  C   UNL     1      -7.554  19.377  68.645  1.00  0.00    -0.363 C  
HETATM    7  O   UNL     1      -6.732  19.863  69.402  1.00  0.00    -0.337 OA 
HETATM    8  N   UNL     1      -7.276  18.739  67.481  1.00  0.00    -0.214 NA 
HETATM    9  C   UNL     1      -8.388  18.312  66.828  1.00  0.00    -0.255 C  
HETATM   10  O   UNL     1      -8.390  17.613  65.828  1.00  0.00    -0.537 OA 
ENDBRANCH   2   3
TORSDOF 1
ENDMDL
MODEL       39
REMARK 921   NORMALIZED FREE ENERGY PREDICTED BY IDOCK:   -3.46 KCAL/MOL
REMARK 922        TOTAL FREE ENERGY PREDICTED BY IDOCK:   -3.69 KCAL/MOL
REMARK 923 INTER-LIGAND FREE ENERGY PREDICTED BY IDOCK:   -3.61 KCAL/MOL
REMARK 924 INTRA-LIGAND FREE ENERGY PREDICTED BY IDOCK:   -0.09 KCAL/MOL
REMARK 927      BINDING AFFINITY PREDICTED BY RF-SCORE:    0.00 PKD
ROOT
HETATM    1  C   UNL     1     -10.114  19.490  69.067  1.00  0.00    -0.444 C  
HETATM    2  C   UNL     1      -9.168  19.914  67.948  1.00  0.00    -0.423 C  
ENDROOT
BRANCH   2   3
HETATM    3  C   UNL     1      -8.980  18.901  66.806  1.00  0.00    -0.320 C  
HETATM    4  C   UNL     1      -7.772  19.324  65.948  1.00  0.00    -0.235 C  
HETATM    5  C   UNL     1      -8.804  17.441  67.254  1.00  0.00    -0.238 C  
HETATM    6  C   UNL     1      -9.543  16.664  66.199  1.00  0.00    -0.294 C  
HETATM    7  O   UNL     1      -9.485  15.458  66.033  1.00  0.00    -0.306 OA 
HETATM    8  N   UNL     1     -10.327  17.521  65.497  1.00  0.00    -0.636 NA 
HETATM    9  C   UNL     1     -10.180  18.815  65.882  1.00  0.00    -0.266 C  
HETATM   10  O   UNL     1     -10.860  19.747  65.485  1.00  0.00    -0.445 OA 
ENDBRANCH   2   3
TORSDOF 1
ENDMDL
MODEL       40
REMARK 921   NORMALIZED FREE ENERGY PREDICTED BY IDOCK:   -3.44 KCAL/MOL
REMARK 922        TOTAL FREE ENERGY PREDICTED BY IDOCK:   -3.67 KCAL/MOL
REMARK 923 INTER-LIGAND FREE ENERGY PREDICTED BY IDOCK:   -3.59 KCAL/MOL
REMARK 924 INTRA-LIGAND FREE ENERGY PREDICTED BY IDOCK:   -0.08 KCAL/MOL
REMARK 927      BINDING AFFINITY PREDICTED BY RF-SCORE:    0.00 PKD
ROOT
HETATM    1  C   UNL     1     -14.398   8.504  71.706  1.00  0.00    -0.522 C  
HETATM    2  C   UNL     1     -13.081   8.749  72.436  1.00  0.00    -0.444 C  
ENDROOT
BRANCH   2   3
HETATM    3  C   UNL     1     -11.853   8.013  71.874  1.00  0.00    -0.353 C  
HETATM    4  C   UNL     1     -10.789   7.885  72.981  1.00  0.00    -0.408 C  
HETATM    5  C   UNL     1     -12.143   6.624  71.279  1.00  0.00    -0.395 C  
HETATM    6  C   UNL     1     -11.218   6.555  70.096  1.00  0.00    -0.377 C  
HETATM    7  O   UNL     1     -10.954   5.550  69.459  1.00  0.00    -0.288 OA 
HETATM    8  N   UNL     1     -10.767   7.805  69.821  1.00  0.00    -0.245 NA 
HETATM    9  C   UNL     1     -11.206   8.736  70.708  1.00  0.00    -0.266 C  
HETATM   10  O   UNL     1     -11.035   9.939  70.603  1.00  0.00    -0.296 OA 
ENDBRANCH   2   3
TORSDOF 1
ENDMDL
MODEL       41
REMARK 921   NORMALIZED FREE ENERGY PREDICTED BY IDOCK:   -3.41 KCAL/MOL
REMARK 922        TOTAL FREE ENERGY PREDICTED BY IDOCK:   -3.65 KCAL/MOL
REMARK 923 INTER-LIGAND FREE ENERGY PREDICTED BY IDOCK:   -3.64 KCAL/MOL
REMARK 924 INTRA-LIGAND FREE ENERGY PREDICTED BY IDOCK:   -0.00 KCAL/MOL
REMARK 927      BINDING AFFINITY PREDICTED BY RF-SCORE:    0.00 PKD
ROOT
HETATM    1  C   UNL     1     -10.737  13.874  64.747  1.00  0.00    -0.437 C  
HETATM    2  C   UNL     1     -11.098  15.320  65.073  1.00  0.00    -0.436 C  
ENDROOT
BRANCH   2   3
HETATM    3  C   UNL     1     -10.365  15.942  66.273  1.00  0.00    -0.324 C  
HETATM    4  C   UNL     1      -8.948  15.343  66.366  1.00  0.00    -0.351 C  
HETATM    5  C   UNL     1     -10.271  17.477  66.254  1.00  0.00    -0.356 C  
HETATM    6  C   UNL     1     -10.432  17.851  67.702  1.00  0.00    -0.397 C  
HETATM    7  O   UNL     1     -10.208  18.949  68.181  1.00  0.00    -0.366 OA 
HETATM    8  N   UNL     1     -10.917  16.779  68.377  1.00  0.00    -0.354 NA 
HETATM    9  C   UNL     1     -11.054  15.675  67.597  1.00  0.00    -0.305 C  
HETATM   10  O   UNL     1     -11.580  14.631  67.946  1.00  0.00    -0.319 OA 
ENDBRANCH   2   3
TORSDOF 1
ENDMDL
MODEL       42
REMARK 921   NORMALIZED FREE ENERGY PREDICTED BY IDOCK:   -3.40 KCAL/MOL
REMARK 922        TOTAL FREE ENERGY PREDICTED BY IDOCK:   -3.64 KCAL/MOL
REMARK 923 INTER-LIGAND FREE ENERGY PREDICTED BY IDOCK:   -3.62 KCAL/MOL
REMARK 924 INTRA-LIGAND FREE ENERGY PREDICTED BY IDOCK:   -0.02 KCAL/MOL
REMARK 927      BINDING AFFINITY PREDICTED BY RF-SCORE:    0.00 PKD
ROOT
HETATM    1  C   UNL     1      -9.028   7.757  72.849  1.00  0.00    -0.243 C  
HETATM    2  C   UNL     1      -9.518   8.724  71.776  1.00  0.00    -0.363 C  
ENDROOT
BRANCH   2   3
HETATM    3  C   UNL     1     -11.000   8.600  71.385  1.00  0.00    -0.341 C  
HETATM    4  C   UNL     1     -11.133   7.614  70.208  1.00  0.00    -0.256 C  
HETATM    5  C   UNL     1     -11.940   8.169  72.524  1.00  0.00    -0.410 C  
HETATM    6  C   UNL     1     -13.188   8.968  72.265  1.00  0.00    -0.460 C  
HETATM    7  O   UNL     1     -14.270   8.784  72.792  1.00  0.00    -0.520 OA 
HETATM    8  N   UNL     1     -12.895   9.959  71.386  1.00  0.00    -0.374 NA 
HETATM    9  C   UNL     1     -11.612   9.916  70.941  1.00  0.00    -0.373 C  
HETATM   10  O   UNL     1     -11.082  10.765  70.243  1.00  0.00    -0.276 OA 
ENDBRANCH   2   3
TORSDOF 1
ENDMDL
MODEL       43
REMARK 921   NORMALIZED FREE ENERGY PREDICTED BY IDOCK:   -3.39 KCAL/MOL
REMARK 922        TOTAL FREE ENERGY PREDICTED BY IDOCK:   -3.62 KCAL/MOL
REMARK 923 INTER-LIGAND FREE ENERGY PREDICTED BY IDOCK:   -3.63 KCAL/MOL
REMARK 924 INTRA-LIGAND FREE ENERGY PREDICTED BY IDOCK:    0.01 KCAL/MOL
REMARK 927      BINDING AFFINITY PREDICTED BY RF-SCORE:    0.00 PKD
ROOT
HETATM    1  C   UNL     1      -9.372  13.521  66.819  1.00  0.00    -0.262 C  
HETATM    2  C   UNL     1      -8.928  14.954  66.543  1.00  0.00    -0.288 C  
ENDROOT
BRANCH   2   3
HETATM    3  C   UNL     1     -10.042  16.015  66.546  1.00  0.00    -0.297 C  
HETATM    4  C   UNL     1     -11.107  15.628  67.592  1.00  0.00    -0.305 C  
HETATM    5  C   UNL     1      -9.569  17.455  66.806  1.00  0.00    -0.283 C  
HETATM    6  C   UNL     1     -10.451  18.277  65.908  1.00  0.00    -0.307 C  
HETATM    7  O   UNL     1     -10.574  19.488  65.948  1.00  0.00    -0.504 OA 
HETATM    8  N   UNL     1     -11.048  17.452  65.011  1.00  0.00    -0.670 NA 
HETATM    9  C   UNL     1     -10.749  16.141  65.210  1.00  0.00    -0.368 C  
HETATM   10  O   UNL     1     -11.066  15.229  64.466  1.00  0.00    -0.343 OA 
ENDBRANCH   2   3
TORSDOF 1
ENDMDL
MODEL       44
REMARK 921   NORMALIZED FREE ENERGY PREDICTED BY IDOCK:   -3.38 KCAL/MOL
REMARK 922        TOTAL FREE ENERGY PREDICTED BY IDOCK:   -3.61 KCAL/MOL
REMARK 923 INTER-LIGAND FREE ENERGY PREDICTED BY IDOCK:   -3.59 KCAL/MOL
REMARK 924 INTRA-LIGAND FREE ENERGY PREDICTED BY IDOCK:   -0.02 KCAL/MOL
REMARK 927      BINDING AFFINITY PREDICTED BY RF-SCORE:    0.00 PKD
ROOT
HETATM    1  C   UNL     1     -14.322   7.744  71.589  1.00  0.00    -0.607 C  
HETATM    2  C   UNL     1     -13.127   8.487  72.177  1.00  0.00    -0.393 C  
ENDROOT
BRANCH   2   3
HETATM    3  C   UNL     1     -11.754   8.128  71.584  1.00  0.00    -0.330 C  
HETATM    4  C   UNL     1     -11.883   6.834  70.757  1.00  0.00    -0.446 C  
HETATM    5  C   UNL     1     -11.110   9.226  70.721  1.00  0.00    -0.349 C  
HETATM    6  C   UNL     1      -9.648   9.113  71.052  1.00  0.00    -0.280 C  
HETATM    7  O   UNL     1      -8.738   9.643  70.438  1.00  0.00    -0.221 OA 
HETATM    8  N   UNL     1      -9.512   8.367  72.177  1.00  0.00    -0.262 NA 
HETATM    9  C   UNL     1     -10.694   7.883  72.641  1.00  0.00    -0.347 C  
HETATM   10  O   UNL     1     -10.842   7.290  73.696  1.00  0.00    -0.356 OA 
ENDBRANCH   2   3
TORSDOF 1
ENDMDL
MODEL       45
REMARK 921   NORMALIZED FREE ENERGY PREDICTED BY IDOCK:   -3.38 KCAL/MOL
REMARK 922        TOTAL FREE ENERGY PREDICTED BY IDOCK:   -3.61 KCAL/MOL
REMARK 923 INTER-LIGAND FREE ENERGY PREDICTED BY IDOCK:   -3.52 KCAL/MOL
REMARK 924 INTRA-LIGAND FREE ENERGY PREDICTED BY IDOCK:   -0.09 KCAL/MOL
REMARK 927      BINDING AFFINITY PREDICTED BY RF-SCORE:    0.00 PKD
ROOT
HETATM    1  C   UNL     1     -12.532  12.549  63.701  1.00  0.00    -0.570 C  
HETATM    2  C   UNL     1     -11.181  12.099  64.247  1.00  0.00    -0.409 C  
ENDROOT
BRANCH   2   3
HETATM    3  C   UNL     1     -10.635  12.903  65.438  1.00  0.00    -0.308 C  
HETATM    4  C   UNL     1      -9.205  12.427  65.757  1.00  0.00     0.071 C  
HETATM    5  C   UNL     1     -10.637  14.429  65.248  1.00  0.00    -0.398 C  
HETATM    6  C   UNL     1     -10.991  14.948  66.615  1.00  0.00    -0.325 C  
HETATM    7  O   UNL     1     -10.895  16.106  66.982  1.00  0.00    -0.292 OA 
HETATM    8  N   UNL     1     -11.485  13.923  67.355  1.00  0.00    -0.329 NA 
HETATM    9  C   UNL     1     -11.458  12.732  66.701  1.00  0.00    -0.350 C  
HETATM   10  O   UNL     1     -11.955  11.697  67.110  1.00  0.00    -0.614 OA 
ENDBRANCH   2   3
TORSDOF 1
ENDMDL
MODEL       46
REMARK 921   NORMALIZED FREE ENERGY PREDICTED BY IDOCK:   -3.36 KCAL/MOL
REMARK 922        TOTAL FREE ENERGY PREDICTED BY IDOCK:   -3.59 KCAL/MOL
REMARK 923 INTER-LIGAND FREE ENERGY PREDICTED BY IDOCK:   -3.54 KCAL/MOL
REMARK 924 INTRA-LIGAND FREE ENERGY PREDICTED BY IDOCK:   -0.05 KCAL/MOL
REMARK 927      BINDING AFFINITY PREDICTED BY RF-SCORE:    0.00 PKD
ROOT
HETATM    1  C   UNL     1     -10.493   9.754  66.633  1.00  0.00    -0.233 C  
HETATM    2  C   UNL     1     -10.124  11.214  66.395  1.00  0.00    -0.269 C  
ENDROOT
BRANCH   2   3
HETATM    3  C   UNL     1     -11.047  12.256  67.050  1.00  0.00    -0.339 C  
HETATM    4  C   UNL     1     -11.861  11.578  68.169  1.00  0.00    -0.306 C  
HETATM    5  C   UNL     1     -10.332  13.495  67.614  1.00  0.00    -0.239 C  
HETATM    6  C   UNL     1     -11.290  14.615  67.312  1.00  0.00    -0.353 C  
HETATM    7  O   UNL     1     -11.233  15.742  67.771  1.00  0.00    -0.336 OA 
HETATM    8  N   UNL     1     -12.198  14.178  66.403  1.00  0.00    -0.459 NA 
HETATM    9  C   UNL     1     -12.040  12.868  66.079  1.00  0.00    -0.422 C  
HETATM   10  O   UNL     1     -12.653  12.283  65.202  1.00  0.00    -0.585 OA 
ENDBRANCH   2   3
TORSDOF 1
ENDMDL
MODEL       47
REMARK 921   NORMALIZED FREE ENERGY PREDICTED BY IDOCK:   -3.34 KCAL/MOL
REMARK 922        TOTAL FREE ENERGY PREDICTED BY IDOCK:   -3.57 KCAL/MOL
REMARK 923 INTER-LIGAND FREE ENERGY PREDICTED BY IDOCK:   -3.55 KCAL/MOL
REMARK 924 INTRA-LIGAND FREE ENERGY PREDICTED BY IDOCK:   -0.03 KCAL/MOL
REMARK 927      BINDING AFFINITY PREDICTED BY RF-SCORE:    0.00 PKD
ROOT
HETATM    1  C   UNL     1     -10.979  10.817  67.310  1.00  0.00    -0.359 C  
HETATM    2  C   UNL     1     -11.464  11.852  66.299  1.00  0.00    -0.367 C  
ENDROOT
BRANCH   2   3
HETATM    3  C   UNL     1     -10.690  13.180  66.273  1.00  0.00    -0.295 C  
HETATM    4  C   UNL     1      -9.237  12.929  66.722  1.00  0.00    -0.230 C  
HETATM    5  C   UNL     1     -10.688  13.907  64.918  1.00  0.00    -0.422 C  
HETATM    6  C   UNL     1     -10.774  15.358  65.302  1.00  0.00    -0.421 C  
HETATM    7  O   UNL     1     -10.584  16.303  64.557  1.00  0.00    -0.532 OA 
HETATM    8  N   UNL     1     -11.150  15.442  66.603  1.00  0.00    -0.283 NA 
HETATM    9  C   UNL     1     -11.273  14.228  67.202  1.00  0.00    -0.322 C  
HETATM   10  O   UNL     1     -11.712  14.041  68.324  1.00  0.00    -0.316 OA 
ENDBRANCH   2   3
TORSDOF 1
ENDMDL
MODEL       48
REMARK 921   NORMALIZED FREE ENERGY PREDICTED BY IDOCK:   -3.33 KCAL/MOL
REMARK 922        TOTAL FREE ENERGY PREDICTED BY IDOCK:   -3.56 KCAL/MOL
REMARK 923 INTER-LIGAND FREE ENERGY PREDICTED BY IDOCK:   -3.52 KCAL/MOL
REMARK 924 INTRA-LIGAND FREE ENERGY PREDICTED BY IDOCK:   -0.04 KCAL/MOL
REMARK 927      BINDING AFFINITY PREDICTED BY RF-SCORE:    0.00 PKD
ROOT
HETATM    1  C   UNL     1     -12.652  12.254  63.426  1.00  0.00    -0.545 C  
HETATM    2  C   UNL     1     -11.194  12.609  63.701  1.00  0.00    -0.525 C  
ENDROOT
BRANCH   2   3
HETATM    3  C   UNL     1     -10.880  13.108  65.121  1.00  0.00    -0.321 C  
HETATM    4  C   UNL     1     -10.163  14.469  65.031  1.00  0.00    -0.398 C  
HETATM    5  C   UNL     1     -12.098  13.232  66.052  1.00  0.00    -0.491 C  
HETATM    6  C   UNL     1     -11.558  12.802  67.388  1.00  0.00    -0.356 C  
HETATM    7  O   UNL     1     -12.117  12.949  68.460  1.00  0.00    -0.279 OA 
HETATM    8  N   UNL     1     -10.370  12.175  67.196  1.00  0.00    -0.213 NA 
HETATM    9  C   UNL     1      -9.973  12.172  65.896  1.00  0.00    -0.245 C  
HETATM   10  O   UNL     1      -9.007  11.569  65.460  1.00  0.00    -0.152 OA 
ENDBRANCH   2   3
TORSDOF 1
ENDMDL
MODEL       49
REMARK 921   NORMALIZED FREE ENERGY PREDICTED BY IDOCK:   -3.33 KCAL/MOL
REMARK 922        TOTAL FREE ENERGY PREDICTED BY IDOCK:   -3.56 KCAL/MOL
REMARK 923 INTER-LIGAND FREE ENERGY PREDICTED BY IDOCK:   -3.55 KCAL/MOL
REMARK 924 INTRA-LIGAND FREE ENERGY PREDICTED BY IDOCK:   -0.02 KCAL/MOL
REMARK 927      BINDING AFFINITY PREDICTED BY RF-SCORE:    0.00 PKD
ROOT
HETATM    1  C   UNL     1     -10.962   6.687  69.455  1.00  0.00    -0.367 C  
HETATM    2  C   UNL     1     -11.733   7.239  70.650  1.00  0.00    -0.310 C  
ENDROOT
BRANCH   2   3
HETATM    3  C   UNL     1     -11.425   8.696  71.033  1.00  0.00    -0.324 C  
HETATM    4  C   UNL     1     -10.184   8.728  71.946  1.00  0.00    -0.415 C  
HETATM    5  C   UNL     1     -11.213   9.651  69.847  1.00  0.00    -0.244 C  
HETATM    6  C   UNL     1     -11.846  10.932  70.315  1.00  0.00    -0.361 C  
HETATM    7  O   UNL     1     -11.722  12.021  69.784  1.00  0.00    -0.308 OA 
HETATM    8  N   UNL     1     -12.621  10.664  71.397  1.00  0.00    -0.402 NA 
HETATM    9  C   UNL     1     -12.557   9.365  71.790  1.00  0.00    -0.387 C  
HETATM   10  O   UNL     1     -13.251   8.860  72.656  1.00  0.00    -0.427 OA 
ENDBRANCH   2   3
TORSDOF 1
ENDMDL
MODEL       50
REMARK 921   NORMALIZED FREE ENERGY PREDICTED BY IDOCK:   -3.32 KCAL/MOL
REMARK 922        TOTAL FREE ENERGY PREDICTED BY IDOCK:   -3.55 KCAL/MOL
REMARK 923 INTER-LIGAND FREE ENERGY PREDICTED BY IDOCK:   -3.52 KCAL/MOL
REMARK 924 INTRA-LIGAND FREE ENERGY PREDICTED BY IDOCK:   -0.03 KCAL/MOL
REMARK 927      BINDING AFFINITY PREDICTED BY RF-SCORE:    0.00 PKD
ROOT
HETATM    1  C   UNL     1     -13.999   8.613  71.772  1.00  0.00    -0.492 C  
HETATM    2  C   UNL     1     -13.397   7.215  71.671  1.00  0.00    -0.397 C  
ENDROOT
BRANCH   2   3
HETATM    3  C   UNL     1     -11.869   7.151  71.510  1.00  0.00    -0.348 C  
HETATM    4  C   UNL     1     -11.530   6.571  70.122  1.00  0.00    -0.477 C  
HETATM    5  C   UNL     1     -11.138   8.491  71.697  1.00  0.00    -0.360 C  
HETATM    6  C   UNL     1      -9.868   8.098  72.400  1.00  0.00    -0.276 C  
HETATM    7  O   UNL     1      -8.892   8.810  72.555  1.00  0.00    -0.402 OA 
HETATM    8  N   UNL     1     -10.010   6.837  72.880  1.00  0.00    -0.168 NA 
HETATM    9  C   UNL     1     -11.197   6.268  72.543  1.00  0.00    -0.279 C  
HETATM   10  O   UNL     1     -11.602   5.194  72.956  1.00  0.00    -0.320 OA 
ENDBRANCH   2   3
TORSDOF 1
ENDMDL
MODEL       51
REMARK 921   NORMALIZED FREE ENERGY PREDICTED BY IDOCK:   -3.30 KCAL/MOL
REMARK 922        TOTAL FREE ENERGY PREDICTED BY IDOCK:   -3.52 KCAL/MOL
REMARK 923 INTER-LIGAND FREE ENERGY PREDICTED BY IDOCK:   -3.50 KCAL/MOL
REMARK 924 INTRA-LIGAND FREE ENERGY PREDICTED BY IDOCK:   -0.03 KCAL/MOL
REMARK 927      BINDING AFFINITY PREDICTED BY RF-SCORE:    0.00 PKD
ROOT
HETATM    1  C   UNL     1      -9.118   8.281  69.340  1.00  0.00    -0.154 C  
HETATM    2  C   UNL     1     -10.559   8.756  69.495  1.00  0.00    -0.224 C  
ENDROOT
BRANCH   2   3
HETATM    3  C   UNL     1     -11.210   8.492  70.863  1.00  0.00    -0.304 C  
HETATM    4  C   UNL     1     -10.116   8.467  71.948  1.00  0.00    -0.367 C  
HETATM    5  C   UNL     1     -12.308   9.491  71.264  1.00  0.00    -0.430 C  
HETATM    6  C   UNL     1     -13.319   8.629  71.971  1.00  0.00    -0.392 C  
HETATM    7  O   UNL     1     -14.249   9.034  72.645  1.00  0.00    -0.574 OA 
HETATM    8  N   UNL     1     -13.053   7.328  71.691  1.00  0.00    -0.373 NA 
HETATM    9  C   UNL     1     -11.940   7.163  70.930  1.00  0.00    -0.334 C  
HETATM   10  O   UNL     1     -11.568   6.105  70.451  1.00  0.00    -0.343 OA 
ENDBRANCH   2   3
TORSDOF 1
ENDMDL
MODEL       52
REMARK 921   NORMALIZED FREE ENERGY PREDICTED BY IDOCK:   -3.29 KCAL/MOL
REMARK 922        TOTAL FREE ENERGY PREDICTED BY IDOCK:   -3.52 KCAL/MOL
REMARK 923 INTER-LIGAND FREE ENERGY PREDICTED BY IDOCK:   -3.51 KCAL/MOL
REMARK 924 INTRA-LIGAND FREE ENERGY PREDICTED BY IDOCK:   -0.01 KCAL/MOL
REMARK 927      BINDING AFFINITY PREDICTED BY RF-SCORE:    0.00 PKD
ROOT
HETATM    1  C   UNL     1     -12.318  12.463  63.454  1.00  0.00    -0.603 C  
HETATM    2  C   UNL     1     -11.069  13.003  64.144  1.00  0.00    -0.437 C  
ENDROOT
BRANCH   2   3
HETATM    3  C   UNL     1     -11.196  13.268  65.653  1.00  0.00    -0.304 C  
HETATM    4  C   UNL     1     -12.541  13.967  65.933  1.00  0.00    -0.498 C  
HETATM    5  C   UNL     1     -11.071  12.022  66.546  1.00  0.00    -0.362 C  
HETATM    6  C   UNL     1     -10.322  12.529  67.747  1.00  0.00    -0.222 C  
HETATM    7  O   UNL     1     -10.189  11.937  68.803  1.00  0.00    -0.207 OA 
HETATM    8  N   UNL     1      -9.773  13.732  67.441  1.00  0.00    -0.230 NA 
HETATM    9  C   UNL     1     -10.101  14.166  66.196  1.00  0.00    -0.313 C  
HETATM   10  O   UNL     1      -9.636  15.155  65.653  1.00  0.00    -0.334 OA 
ENDBRANCH   2   3
TORSDOF 1
ENDMDL
MODEL       53
REMARK 921   NORMALIZED FREE ENERGY PREDICTED BY IDOCK:   -3.27 KCAL/MOL
REMARK 922        TOTAL FREE ENERGY PREDICTED BY IDOCK:   -3.50 KCAL/MOL
REMARK 923 INTER-LIGAND FREE ENERGY PREDICTED BY IDOCK:   -3.41 KCAL/MOL
REMARK 924 INTRA-LIGAND FREE ENERGY PREDICTED BY IDOCK:   -0.09 KCAL/MOL
REMARK 927      BINDING AFFINITY PREDICTED BY RF-SCORE:    0.00 PKD
ROOT
HETATM    1  C   UNL     1     -10.823  14.581  68.222  1.00  0.00    -0.247 C  
HETATM    2  C   UNL     1     -11.795  14.128  67.137  1.00  0.00    -0.454 C  
ENDROOT
BRANCH   2   3
HETATM    3  C   UNL     1     -11.380  12.881  66.340  1.00  0.00    -0.361 C  
HETATM    4  C   UNL     1     -12.392  12.648  65.201  1.00  0.00    -0.547 C  
HETATM    5  C   UNL     1      -9.956  12.923  65.760  1.00  0.00    -0.261 C  
HETATM    6  C   UNL     1      -9.481  11.503  65.906  1.00  0.00    -0.230 C  
HETATM    7  O   UNL     1      -8.488  11.029  65.382  1.00  0.00    -0.138 OA 
HETATM    8  N   UNL     1     -10.310  10.852  66.760  1.00  0.00    -0.232 NA 
HETATM    9  C   UNL     1     -11.351  11.618  67.181  1.00  0.00    -0.306 C  
HETATM   10  O   UNL     1     -12.156  11.297  68.038  1.00  0.00    -0.638 OA 
ENDBRANCH   2   3
TORSDOF 1
ENDMDL
MODEL       54
REMARK 921   NORMALIZED FREE ENERGY PREDICTED BY IDOCK:   -3.27 KCAL/MOL
REMARK 922        TOTAL FREE ENERGY PREDICTED BY IDOCK:   -3.50 KCAL/MOL
REMARK 923 INTER-LIGAND FREE ENERGY PREDICTED BY IDOCK:   -3.48 KCAL/MOL
REMARK 924 INTRA-LIGAND FREE ENERGY PREDICTED BY IDOCK:   -0.02 KCAL/MOL
REMARK 927      BINDING AFFINITY PREDICTED BY RF-SCORE:    0.00 PKD
ROOT
HETATM    1  C   UNL     1     -10.055  10.826  64.098  1.00  0.00    -0.418 C  
HETATM    2  C   UNL     1     -11.141  11.599  64.839  1.00  0.00    -0.317 C  
ENDROOT
BRANCH   2   3
HETATM    3  C   UNL     1     -10.649  12.630  65.868  1.00  0.00    -0.297 C  
HETATM    4  C   UNL     1      -9.306  12.155  66.458  1.00  0.00    -0.229 C  
HETATM    5  C   UNL     1     -10.494  14.063  65.332  1.00  0.00    -0.365 C  
HETATM    6  C   UNL     1     -10.937  14.915  66.489  1.00  0.00    -0.327 C  
HETATM    7  O   UNL     1     -10.775  16.119  66.587  1.00  0.00    -0.306 OA 
HETATM    8  N   UNL     1     -11.594  14.131  67.380  1.00  0.00    -0.351 NA 
HETATM    9  C   UNL     1     -11.608  12.819  67.028  1.00  0.00    -0.360 C  
HETATM   10  O   UNL     1     -12.235  11.946  67.603  1.00  0.00    -0.510 OA 
ENDBRANCH   2   3
TORSDOF 1
ENDMDL
MODEL       55
REMARK 921   NORMALIZED FREE ENERGY PREDICTED BY IDOCK:   -3.27 KCAL/MOL
REMARK 922        TOTAL FREE ENERGY PREDICTED BY IDOCK:   -3.49 KCAL/MOL
REMARK 923 INTER-LIGAND FREE ENERGY PREDICTED BY IDOCK:   -3.41 KCAL/MOL
REMARK 924 INTRA-LIGAND FREE ENERGY PREDICTED BY IDOCK:   -0.09 KCAL/MOL
REMARK 927      BINDING AFFINITY PREDICTED BY RF-SCORE:    0.00 PKD
ROOT
HETATM    1  C   UNL     1     -10.765  19.645  67.020  1.00  0.00    -0.575 C  
HETATM    2  C   UNL     1      -9.758  18.708  66.360  1.00  0.00    -0.363 C  
ENDROOT
BRANCH   2   3
HETATM    3  C   UNL     1      -8.339  18.721  66.952  1.00  0.00    -0.277 C  
HETATM    4  C   UNL     1      -7.424  17.826  66.093  1.00  0.00    -0.322 C  
HETATM    5  C   UNL     1      -7.706  20.115  67.094  1.00  0.00    -0.343 C  
HETATM    6  C   UNL     1      -6.938  20.017  68.384  1.00  0.00    -0.294 C  
HETATM    7  O   UNL     1      -6.109  20.817  68.779  1.00  0.00    -0.343 OA 
HETATM    8  N   UNL     1      -7.360  18.918  69.059  1.00  0.00    -0.310 NA 
HETATM    9  C   UNL     1      -8.281  18.192  68.373  1.00  0.00    -0.303 C  
HETATM   10  O   UNL     1      -8.893  17.236  68.818  1.00  0.00    -0.276 OA 
ENDBRANCH   2   3
TORSDOF 1
ENDMDL
MODEL       56
REMARK 921   NORMALIZED FREE ENERGY PREDICTED BY IDOCK:   -3.26 KCAL/MOL
REMARK 922        TOTAL FREE ENERGY PREDICTED BY IDOCK:   -3.49 KCAL/MOL
REMARK 923 INTER-LIGAND FREE ENERGY PREDICTED BY IDOCK:   -3.47 KCAL/MOL
REMARK 924 INTRA-LIGAND FREE ENERGY PREDICTED BY IDOCK:   -0.01 KCAL/MOL
REMARK 927      BINDING AFFINITY PREDICTED BY RF-SCORE:    0.00 PKD
ROOT
HETATM    1  C   UNL     1     -10.270  13.185  68.680  1.00  0.00    -0.177 C  
HETATM    2  C   UNL     1     -10.522  14.689  68.667  1.00  0.00    -0.244 C  
ENDROOT
BRANCH   2   3
HETATM    3  C   UNL     1     -10.030  15.442  67.420  1.00  0.00    -0.229 C  
HETATM    4  C   UNL     1      -8.530  15.156  67.215  1.00  0.00    -0.220 C  
HETATM    5  C   UNL     1     -10.794  15.123  66.123  1.00  0.00    -0.330 C  
HETATM    6  C   UNL     1     -10.849  16.451  65.418  1.00  0.00    -0.239 C  
HETATM    7  O   UNL     1     -11.172  16.625  64.256  1.00  0.00    -1.098 OA 
HETATM    8  N   UNL     1     -10.530  17.428  66.305  1.00  0.00    -0.315 NA 
HETATM    9  C   UNL     1     -10.191  16.947  67.529  1.00  0.00    -0.295 C  
HETATM   10  O   UNL     1      -9.984  17.630  68.518  1.00  0.00    -0.326 OA 
ENDBRANCH   2   3
TORSDOF 1
ENDMDL
MODEL       57
REMARK 921   NORMALIZED FREE ENERGY PREDICTED BY IDOCK:   -3.24 KCAL/MOL
REMARK 922        TOTAL FREE ENERGY PREDICTED BY IDOCK:   -3.47 KCAL/MOL
REMARK 923 INTER-LIGAND FREE ENERGY PREDICTED BY IDOCK:   -3.42 KCAL/MOL
REMARK 924 INTRA-LIGAND FREE ENERGY PREDICTED BY IDOCK:   -0.04 KCAL/MOL
REMARK 927      BINDING AFFINITY PREDICTED BY RF-SCORE:    0.00 PKD
ROOT
HETATM    1  C   UNL     1      -5.343  18.759  68.668  1.00  0.00    -0.193 C  
HETATM    2  C   UNL     1      -6.551  19.643  68.374  1.00  0.00    -0.307 C  
ENDROOT
BRANCH   2   3
HETATM    3  C   UNL     1      -7.818  18.914  67.896  1.00  0.00    -0.289 C  
HETATM    4  C   UNL     1      -7.774  17.452  68.384  1.00  0.00    -0.258 C  
HETATM    5  C   UNL     1      -9.144  19.560  68.332  1.00  0.00    -0.410 C  
HETATM    6  C   UNL     1     -10.038  19.353  67.141  1.00  0.00    -0.384 C  
HETATM    7  O   UNL     1     -11.245  19.514  67.122  1.00  0.00    -0.353 OA 
HETATM    8  N   UNL     1      -9.271  19.009  66.076  1.00  0.00    -0.460 NA 
HETATM    9  C   UNL     1      -7.954  18.881  66.386  1.00  0.00    -0.285 C  
HETATM   10  O   UNL     1      -7.058  18.698  65.579  1.00  0.00    -0.486 OA 
ENDBRANCH   2   3
TORSDOF 1
ENDMDL
MODEL       58
REMARK 921   NORMALIZED FREE ENERGY PREDICTED BY IDOCK:   -3.20 KCAL/MOL
REMARK 922        TOTAL FREE ENERGY PREDICTED BY IDOCK:   -3.42 KCAL/MOL
REMARK 923 INTER-LIGAND FREE ENERGY PREDICTED BY IDOCK:   -3.35 KCAL/MOL
REMARK 924 INTRA-LIGAND FREE ENERGY PREDICTED BY IDOCK:   -0.07 KCAL/MOL
REMARK 927      BINDING AFFINITY PREDICTED BY RF-SCORE:    0.00 PKD
ROOT
HETATM    1  C   UNL     1     -10.470  11.209  67.303  1.00  0.00    -0.263 C  
HETATM    2  C   UNL     1     -11.346  11.694  66.152  1.00  0.00    -0.275 C  
ENDROOT
BRANCH   2   3
HETATM    3  C   UNL     1     -11.526  13.217  66.040  1.00  0.00    -0.370 C  
HETATM    4  C   UNL     1     -12.904  13.519  65.419  1.00  0.00    -0.420 C  
HETATM    5  C   UNL     1     -11.380  13.989  67.362  1.00  0.00    -0.350 C  
HETATM    6  C   UNL     1     -10.686  15.257  66.948  1.00  0.00    -0.313 C  
HETATM    7  O   UNL     1     -10.562  16.255  67.635  1.00  0.00    -0.299 OA 
HETATM    8  N   UNL     1     -10.174  15.086  65.703  1.00  0.00    -0.333 NA 
HETATM    9  C   UNL     1     -10.482  13.878  65.161  1.00  0.00    -0.393 C  
HETATM   10  O   UNL     1     -10.038  13.448  64.110  1.00  0.00    -0.338 OA 
ENDBRANCH   2   3
TORSDOF 1
ENDMDL
MODEL       59
REMARK 921   NORMALIZED FREE ENERGY PREDICTED BY IDOCK:   -3.17 KCAL/MOL
REMARK 922        TOTAL FREE ENERGY PREDICTED BY IDOCK:   -3.39 KCAL/MOL
REMARK 923 INTER-LIGAND FREE ENERGY PREDICTED BY IDOCK:   -3.34 KCAL/MOL
REMARK 924 INTRA-LIGAND FREE ENERGY PREDICTED BY IDOCK:   -0.06 KCAL/MOL
REMARK 927      BINDING AFFINITY PREDICTED BY RF-SCORE:    0.00 PKD
ROOT
HETATM    1  C   UNL     1     -10.789  15.185  68.401  1.00  0.00    -0.255 C  
HETATM    2  C   UNL     1     -10.921  16.695  68.236  1.00  0.00    -0.341 C  
ENDROOT
BRANCH   2   3
HETATM    3  C   UNL     1      -9.640  17.441  67.824  1.00  0.00    -0.264 C  
HETATM    4  C   UNL     1      -9.559  18.772  68.596  1.00  0.00    -0.432 C  
HETATM    5  C   UNL     1      -8.335  16.653  68.023  1.00  0.00    -0.187 C  
HETATM    6  C   UNL     1      -7.504  17.053  66.835  1.00  0.00    -0.212 C  
HETATM    7  O   UNL     1      -6.313  16.838  66.697  1.00  0.00    -0.191 OA 
HETATM    8  N   UNL     1      -8.311  17.647  65.920  1.00  0.00    -0.546 NA 
HETATM    9  C   UNL     1      -9.595  17.776  66.345  1.00  0.00    -0.283 C  
HETATM   10  O   UNL     1     -10.525  18.166  65.659  1.00  0.00    -0.626 OA 
ENDBRANCH   2   3
TORSDOF 1
ENDMDL
MODEL       60
REMARK 921   NORMALIZED FREE ENERGY PREDICTED BY IDOCK:   -3.17 KCAL/MOL
REMARK 922        TOTAL FREE ENERGY PREDICTED BY IDOCK:   -3.39 KCAL/MOL
REMARK 923 INTER-LIGAND FREE ENERGY PREDICTED BY IDOCK:   -3.34 KCAL/MOL
REMARK 924 INTRA-LIGAND FREE ENERGY PREDICTED BY IDOCK:   -0.05 KCAL/MOL
REMARK 927      BINDING AFFINITY PREDICTED BY RF-SCORE:    0.00 PKD
ROOT
HETATM    1  C   UNL     1     -12.412   9.997  71.327  1.00  0.00    -0.494 C  
HETATM    2  C   UNL     1     -12.402   8.709  72.144  1.00  0.00    -0.452 C  
ENDROOT
BRANCH   2   3
HETATM    3  C   UNL     1     -11.106   7.884  72.082  1.00  0.00    -0.351 C  
HETATM    4  C   UNL     1      -9.977   8.756  71.499  1.00  0.00    -0.370 C  
HETATM    5  C   UNL     1     -10.650   7.285  73.423  1.00  0.00    -0.435 C  
HETATM    6  C   UNL     1     -10.095   5.943  73.032  1.00  0.00    -0.181 C  
HETATM    7  O   UNL     1      -9.427   5.216  73.746  1.00  0.00    -0.131 OA 
HETATM    8  N   UNL     1     -10.506   5.652  71.772  1.00  0.00    -0.222 NA 
HETATM    9  C   UNL     1     -11.224   6.654  71.201  1.00  0.00    -0.292 C  
HETATM   10  O   UNL     1     -11.799   6.581  70.128  1.00  0.00    -0.416 OA 
ENDBRANCH   2   3
TORSDOF 1
ENDMDL
MODEL       61
REMARK 921   NORMALIZED FREE ENERGY PREDICTED BY IDOCK:   -3.14 KCAL/MOL
REMARK 922        TOTAL FREE ENERGY PREDICTED BY IDOCK:   -3.36 KCAL/MOL
REMARK 923 INTER-LIGAND FREE ENERGY PREDICTED BY IDOCK:   -3.28 KCAL/MOL
REMARK 924 INTRA-LIGAND FREE ENERGY PREDICTED BY IDOCK:   -0.07 KCAL/MOL
REMARK 927      BINDING AFFINITY PREDICTED BY RF-SCORE:    0.00 PKD
ROOT
HETATM    1  C   UNL     1      -8.976  12.707  66.715  1.00  0.00    -0.197 C  
HETATM    2  C   UNL     1     -10.058  13.316  65.829  1.00  0.00    -0.293 C  
ENDROOT
BRANCH   2   3
HETATM    3  C   UNL     1     -10.993  14.330  66.510  1.00  0.00    -0.316 C  
HETATM    4  C   UNL     1     -12.357  14.321  65.792  1.00  0.00    -0.420 C  
HETATM    5  C   UNL     1     -11.206  14.109  68.017  1.00  0.00    -0.302 C  
HETATM    6  C   UNL     1     -11.271  15.508  68.566  1.00  0.00    -0.333 C  
HETATM    7  O   UNL     1     -11.644  15.815  69.684  1.00  0.00    -0.318 OA 
HETATM    8  N   UNL     1     -10.795  16.366  67.628  1.00  0.00    -0.312 NA 
HETATM    9  C   UNL     1     -10.468  15.752  66.461  1.00  0.00    -0.303 C  
HETATM   10  O   UNL     1      -9.911  16.290  65.518  1.00  0.00    -0.489 OA 
ENDBRANCH   2   3
TORSDOF 1
ENDMDL
MODEL       62
REMARK 921   NORMALIZED FREE ENERGY PREDICTED BY IDOCK:   -3.13 KCAL/MOL
REMARK 922        TOTAL FREE ENERGY PREDICTED BY IDOCK:   -3.35 KCAL/MOL
REMARK 923 INTER-LIGAND FREE ENERGY PREDICTED BY IDOCK:   -3.35 KCAL/MOL
REMARK 924 INTRA-LIGAND FREE ENERGY PREDICTED BY IDOCK:    0.01 KCAL/MOL
REMARK 927      BINDING AFFINITY PREDICTED BY RF-SCORE:    0.00 PKD
ROOT
HETATM    1  C   UNL     1     -10.259  20.068  68.411  1.00  0.00    -0.510 C  
HETATM    2  C   UNL     1      -9.447  18.806  68.681  1.00  0.00    -0.412 C  
ENDROOT
BRANCH   2   3
HETATM    3  C   UNL     1      -8.341  18.487  67.661  1.00  0.00    -0.268 C  
HETATM    4  C   UNL     1      -7.738  19.806  67.140  1.00  0.00    -0.299 C  
HETATM    5  C   UNL     1      -7.215  17.579  68.183  1.00  0.00    -0.216 C  
HETATM    6  C   UNL     1      -6.885  16.718  66.995  1.00  0.00    -0.211 C  
HETATM    7  O   UNL     1      -5.905  16.002  66.888  1.00  0.00    -0.320 OA 
HETATM    8  N   UNL     1      -7.885  16.830  66.085  1.00  0.00    -0.329 NA 
HETATM    9  C   UNL     1      -8.846  17.716  66.456  1.00  0.00    -0.263 C  
HETATM   10  O   UNL     1      -9.898  17.898  65.865  1.00  0.00    -0.529 OA 
ENDBRANCH   2   3
TORSDOF 1
ENDMDL
MODEL       63
REMARK 921   NORMALIZED FREE ENERGY PREDICTED BY IDOCK:   -3.13 KCAL/MOL
REMARK 922        TOTAL FREE ENERGY PREDICTED BY IDOCK:   -3.35 KCAL/MOL
REMARK 923 INTER-LIGAND FREE ENERGY PREDICTED BY IDOCK:   -3.31 KCAL/MOL
REMARK 924 INTRA-LIGAND FREE ENERGY PREDICTED BY IDOCK:   -0.04 KCAL/MOL
REMARK 927      BINDING AFFINITY PREDICTED BY RF-SCORE:    0.00 PKD
ROOT
HETATM    1  C   UNL     1     -10.235   4.199  72.544  1.00  0.00    -0.240 C  
HETATM    2  C   UNL     1     -11.261   5.212  73.041  1.00  0.00    -0.390 C  
ENDROOT
BRANCH   2   3
HETATM    3  C   UNL     1     -11.538   6.401  72.106  1.00  0.00    -0.357 C  
HETATM    4  C   UNL     1     -10.786   6.186  70.777  1.00  0.00    -0.350 C  
HETATM    5  C   UNL     1     -13.025   6.668  71.815  1.00  0.00    -0.191 C  
HETATM    6  C   UNL     1     -13.104   8.169  71.767  1.00  0.00    -0.345 C  
HETATM    7  O   UNL     1     -14.048   8.817  71.351  1.00  0.00    -0.371 OA 
HETATM    8  N   UNL     1     -11.972   8.682  72.312  1.00  0.00    -0.375 NA 
HETATM    9  C   UNL     1     -11.075   7.728  72.675  1.00  0.00    -0.376 C  
HETATM   10  O   UNL     1     -10.043   7.935  73.291  1.00  0.00    -0.313 OA 
ENDBRANCH   2   3
TORSDOF 1
ENDMDL
MODEL       64
REMARK 921   NORMALIZED FREE ENERGY PREDICTED BY IDOCK:   -3.12 KCAL/MOL
REMARK 922        TOTAL FREE ENERGY PREDICTED BY IDOCK:   -3.34 KCAL/MOL
REMARK 923 INTER-LIGAND FREE ENERGY PREDICTED BY IDOCK:   -3.30 KCAL/MOL
REMARK 924 INTRA-LIGAND FREE ENERGY PREDICTED BY IDOCK:   -0.04 KCAL/MOL
REMARK 927      BINDING AFFINITY PREDICTED BY RF-SCORE:    0.00 PKD
ROOT
HETATM    1  C   UNL     1     -10.271   6.867  73.825  1.00  0.00    -0.396 C  
HETATM    2  C   UNL     1     -11.231   6.330  72.769  1.00  0.00    -0.272 C  
ENDROOT
BRANCH   2   3
HETATM    3  C   UNL     1     -11.704   7.342  71.713  1.00  0.00    -0.319 C  
HETATM    4  C   UNL     1     -13.242   7.305  71.628  1.00  0.00    -0.421 C  
HETATM    5  C   UNL     1     -11.239   8.790  71.945  1.00  0.00    -0.438 C  
HETATM    6  C   UNL     1     -10.969   9.294  70.554  1.00  0.00    -0.265 C  
HETATM    7  O   UNL     1     -10.788  10.458  70.243  1.00  0.00    -0.292 OA 
HETATM    8  N   UNL     1     -10.908   8.233  69.710  1.00  0.00    -0.222 NA 
HETATM    9  C   UNL     1     -11.170   7.049  70.324  1.00  0.00    -0.298 C  
HETATM   10  O   UNL     1     -11.058   5.951  69.805  1.00  0.00    -0.377 OA 
ENDBRANCH   2   3
TORSDOF 1
ENDMDL
MODEL       65
REMARK 921   NORMALIZED FREE ENERGY PREDICTED BY IDOCK:   -3.12 KCAL/MOL
REMARK 922        TOTAL FREE ENERGY PREDICTED BY IDOCK:   -3.34 KCAL/MOL
REMARK 923 INTER-LIGAND FREE ENERGY PREDICTED BY IDOCK:   -3.33 KCAL/MOL
REMARK 924 INTRA-LIGAND FREE ENERGY PREDICTED BY IDOCK:   -0.01 KCAL/MOL
REMARK 927      BINDING AFFINITY PREDICTED BY RF-SCORE:    0.00 PKD
ROOT
HETATM    1  C   UNL     1      -9.569  14.172  66.801  1.00  0.00    -0.290 C  
HETATM    2  C   UNL     1      -8.616  15.361  66.730  1.00  0.00    -0.308 C  
ENDROOT
BRANCH   2   3
HETATM    3  C   UNL     1      -9.271  16.751  66.780  1.00  0.00    -0.263 C  
HETATM    4  C   UNL     1     -10.382  16.826  65.715  1.00  0.00    -0.322 C  
HETATM    5  C   UNL     1      -9.846  17.151  68.149  1.00  0.00    -0.281 C  
HETATM    6  C   UNL     1      -9.544  18.622  68.235  1.00  0.00    -0.347 C  
HETATM    7  O   UNL     1     -10.010  19.396  69.053  1.00  0.00    -0.437 OA 
HETATM    8  N   UNL     1      -8.627  18.935  67.285  1.00  0.00    -0.275 NA 
HETATM    9  C   UNL     1      -8.298  17.880  66.495  1.00  0.00    -0.262 C  
HETATM   10  O   UNL     1      -7.414  17.882  65.654  1.00  0.00    -0.544 OA 
ENDBRANCH   2   3
TORSDOF 1
ENDMDL
MODEL       66
REMARK 921   NORMALIZED FREE ENERGY PREDICTED BY IDOCK:   -3.12 KCAL/MOL
REMARK 922        TOTAL FREE ENERGY PREDICTED BY IDOCK:   -3.34 KCAL/MOL
REMARK 923 INTER-LIGAND FREE ENERGY PREDICTED BY IDOCK:   -3.29 KCAL/MOL
REMARK 924 INTRA-LIGAND FREE ENERGY PREDICTED BY IDOCK:   -0.05 KCAL/MOL
REMARK 927      BINDING AFFINITY PREDICTED BY RF-SCORE:    0.00 PKD
ROOT
HETATM    1  C   UNL     1      -6.412  19.918  67.399  1.00  0.00    -0.227 C  
HETATM    2  C   UNL     1      -7.569  19.489  68.295  1.00  0.00    -0.346 C  
ENDROOT
BRANCH   2   3
HETATM    3  C   UNL     1      -8.585  18.522  67.665  1.00  0.00    -0.276 C  
HETATM    4  C   UNL     1      -7.934  17.821  66.456  1.00  0.00    -0.299 C  
HETATM    5  C   UNL     1      -9.158  17.464  68.622  1.00  0.00    -0.261 C  
HETATM    6  C   UNL     1     -10.592  17.341  68.184  1.00  0.00    -0.386 C  
HETATM    7  O   UNL     1     -11.365  16.462  68.522  1.00  0.00    -0.371 OA 
HETATM    8  N   UNL     1     -10.897  18.399  67.391  1.00  0.00    -0.355 NA 
HETATM    9  C   UNL     1      -9.836  19.216  67.161  1.00  0.00    -0.338 C  
HETATM   10  O   UNL     1      -9.890  20.288  66.582  1.00  0.00    -0.430 OA 
ENDBRANCH   2   3
TORSDOF 1
ENDMDL
MODEL       67
REMARK 921   NORMALIZED FREE ENERGY PREDICTED BY IDOCK:   -3.12 KCAL/MOL
REMARK 922        TOTAL FREE ENERGY PREDICTED BY IDOCK:   -3.33 KCAL/MOL
REMARK 923 INTER-LIGAND FREE ENERGY PREDICTED BY IDOCK:   -3.31 KCAL/MOL
REMARK 924 INTRA-LIGAND FREE ENERGY PREDICTED BY IDOCK:   -0.02 KCAL/MOL
REMARK 927      BINDING AFFINITY PREDICTED BY RF-SCORE:    0.00 PKD
ROOT
HETATM    1  C   UNL     1     -10.539  14.759  67.803  1.00  0.00    -0.257 C  
HETATM    2  C   UNL     1     -10.932  16.198  68.119  1.00  0.00    -0.341 C  
ENDROOT
BRANCH   2   3
HETATM    3  C   UNL     1     -10.037  17.289  67.509  1.00  0.00    -0.315 C  
HETATM    4  C   UNL     1      -9.436  16.771  66.188  1.00  0.00    -0.295 C  
HETATM    5  C   UNL     1     -10.732  18.639  67.261  1.00  0.00    -0.449 C  
HETATM    6  C   UNL     1      -9.664  19.644  67.592  1.00  0.00    -0.358 C  
HETATM    7  O   UNL     1      -9.703  20.834  67.332  1.00  0.00    -0.465 OA 
HETATM    8  N   UNL     1      -8.673  19.018  68.275  1.00  0.00    -0.318 NA 
HETATM    9  C   UNL     1      -8.878  17.681  68.407  1.00  0.00    -0.281 C  
HETATM   10  O   UNL     1      -8.193  16.929  69.079  1.00  0.00    -0.234 OA 
ENDBRANCH   2   3
TORSDOF 1
ENDMDL
MODEL       68
REMARK 921   NORMALIZED FREE ENERGY PREDICTED BY IDOCK:   -3.11 KCAL/MOL
REMARK 922        TOTAL FREE ENERGY PREDICTED BY IDOCK:   -3.33 KCAL/MOL
REMARK 923 INTER-LIGAND FREE ENERGY PREDICTED BY IDOCK:   -3.29 KCAL/MOL
REMARK 924 INTRA-LIGAND FREE ENERGY PREDICTED BY IDOCK:   -0.04 KCAL/MOL
REMARK 927      BINDING AFFINITY PREDICTED BY RF-SCORE:    0.00 PKD
ROOT
HETATM    1  C   UNL     1     -10.410  10.159  66.738  1.00  0.00    -0.285 C  
HETATM    2  C   UNL     1     -10.451  11.442  65.915  1.00  0.00    -0.309 C  
ENDROOT
BRANCH   2   3
HETATM    3  C   UNL     1     -11.215  12.620  66.543  1.00  0.00    -0.342 C  
HETATM    4  C   UNL     1     -12.303  13.099  65.561  1.00  0.00    -0.529 C  
HETATM    5  C   UNL     1     -11.853  12.327  67.911  1.00  0.00    -0.358 C  
HETATM    6  C   UNL     1     -11.671  13.617  68.662  1.00  0.00    -0.354 C  
HETATM    7  O   UNL     1     -12.216  13.912  69.711  1.00  0.00    -0.330 OA 
HETATM    8  N   UNL     1     -10.759  14.378  68.005  1.00  0.00    -0.239 NA 
HETATM    9  C   UNL     1     -10.327  13.812  66.847  1.00  0.00    -0.266 C  
HETATM   10  O   UNL     1      -9.426  14.245  66.149  1.00  0.00    -0.281 OA 
ENDBRANCH   2   3
TORSDOF 1
ENDMDL
MODEL       69
REMARK 921   NORMALIZED FREE ENERGY PREDICTED BY IDOCK:   -3.11 KCAL/MOL
REMARK 922        TOTAL FREE ENERGY PREDICTED BY IDOCK:   -3.33 KCAL/MOL
REMARK 923 INTER-LIGAND FREE ENERGY PREDICTED BY IDOCK:   -3.27 KCAL/MOL
REMARK 924 INTRA-LIGAND FREE ENERGY PREDICTED BY IDOCK:   -0.06 KCAL/MOL
REMARK 927      BINDING AFFINITY PREDICTED BY RF-SCORE:    0.00 PKD
ROOT
HETATM    1  C   UNL     1     -10.945   5.911  69.814  1.00  0.00    -0.452 C  
HETATM    2  C   UNL     1     -11.953   6.748  70.596  1.00  0.00    -0.418 C  
ENDROOT
BRANCH   2   3
HETATM    3  C   UNL     1     -11.359   7.823  71.521  1.00  0.00    -0.289 C  
HETATM    4  C   UNL     1     -12.506   8.596  72.200  1.00  0.00    -0.453 C  
HETATM    5  C   UNL     1     -10.391   7.297  72.593  1.00  0.00    -0.264 C  
HETATM    6  C   UNL     1      -9.343   8.373  72.672  1.00  0.00    -0.264 C  
HETATM    7  O   UNL     1      -8.498   8.479  73.543  1.00  0.00    -0.365 OA 
HETATM    8  N   UNL     1      -9.461   9.176  71.584  1.00  0.00    -0.316 NA 
HETATM    9  C   UNL     1     -10.506   8.839  70.785  1.00  0.00    -0.219 C  
HETATM   10  O   UNL     1     -10.743   9.333  69.695  1.00  0.00    -0.226 OA 
ENDBRANCH   2   3
TORSDOF 1
ENDMDL
MODEL       70
REMARK 921   NORMALIZED FREE ENERGY PREDICTED BY IDOCK:   -3.06 KCAL/MOL
REMARK 922        TOTAL FREE ENERGY PREDICTED BY IDOCK:   -3.28 KCAL/MOL
REMARK 923 INTER-LIGAND FREE ENERGY PREDICTED BY IDOCK:   -3.24 KCAL/MOL
REMARK 924 INTRA-LIGAND FREE ENERGY PREDICTED BY IDOCK:   -0.03 KCAL/MOL
REMARK 927      BINDING AFFINITY PREDICTED BY RF-SCORE:    0.00 PKD
ROOT
HETATM    1  C   UNL     1     -11.177  15.614  64.656  1.00  0.00    -0.380 C  
HETATM    2  C   UNL     1     -10.616  14.206  64.831  1.00  0.00    -0.449 C  
ENDROOT
BRANCH   2   3
HETATM    3  C   UNL     1     -10.920  13.524  66.176  1.00  0.00    -0.289 C  
HETATM    4  C   UNL     1     -11.734  14.489  67.060  1.00  0.00    -0.412 C  
HETATM    5  C   UNL     1     -11.658  12.179  66.071  1.00  0.00    -0.420 C  
HETATM    6  C   UNL     1     -11.043  11.360  67.172  1.00  0.00    -0.305 C  
HETATM    7  O   UNL     1     -11.474  10.302  67.596  1.00  0.00    -0.345 OA 
HETATM    8  N   UNL     1      -9.901  11.968  67.581  1.00  0.00    -0.186 NA 
HETATM    9  C   UNL     1      -9.671  13.149  66.951  1.00  0.00    -0.243 C  
HETATM   10  O   UNL     1      -8.656  13.816  67.060  1.00  0.00    -0.214 OA 
ENDBRANCH   2   3
TORSDOF 1
ENDMDL
MODEL       71
REMARK 921   NORMALIZED FREE ENERGY PREDICTED BY IDOCK:   -3.05 KCAL/MOL
REMARK 922        TOTAL FREE ENERGY PREDICTED BY IDOCK:   -3.27 KCAL/MOL
REMARK 923 INTER-LIGAND FREE ENERGY PREDICTED BY IDOCK:   -3.23 KCAL/MOL
REMARK 924 INTRA-LIGAND FREE ENERGY PREDICTED BY IDOCK:   -0.04 KCAL/MOL
REMARK 927      BINDING AFFINITY PREDICTED BY RF-SCORE:    0.00 PKD
ROOT
HETATM    1  C   UNL     1      -9.607  15.679  65.927  1.00  0.00    -0.385 C  
HETATM    2  C   UNL     1     -10.011  16.947  66.672  1.00  0.00    -0.302 C  
ENDROOT
BRANCH   2   3
HETATM    3  C   UNL     1      -8.894  17.981  66.894  1.00  0.00    -0.266 C  
HETATM    4  C   UNL     1      -8.732  18.235  68.405  1.00  0.00    -0.325 C  
HETATM    5  C   UNL     1      -7.532  17.608  66.287  1.00  0.00    -0.340 C  
HETATM    6  C   UNL     1      -6.997  18.926  65.799  1.00  0.00    -0.261 C  
HETATM    7  O   UNL     1      -5.851  19.140  65.444  1.00  0.00    -0.169 OA 
HETATM    8  N   UNL     1      -8.013  19.824  65.769  1.00  0.00    -0.397 NA 
HETATM    9  C   UNL     1      -9.184  19.320  66.242  1.00  0.00    -0.331 C  
HETATM   10  O   UNL     1     -10.260  19.893  66.204  1.00  0.00    -0.456 OA 
ENDBRANCH   2   3
TORSDOF 1
ENDMDL
MODEL       72
REMARK 921   NORMALIZED FREE ENERGY PREDICTED BY IDOCK:   -3.05 KCAL/MOL
REMARK 922        TOTAL FREE ENERGY PREDICTED BY IDOCK:   -3.27 KCAL/MOL
REMARK 923 INTER-LIGAND FREE ENERGY PREDICTED BY IDOCK:   -3.18 KCAL/MOL
REMARK 924 INTRA-LIGAND FREE ENERGY PREDICTED BY IDOCK:   -0.09 KCAL/MOL
REMARK 927      BINDING AFFINITY PREDICTED BY RF-SCORE:    0.00 PKD
ROOT
HETATM    1  C   UNL     1      -6.727  16.892  68.977  1.00  0.00    -0.215 C  
HETATM    2  C   UNL     1      -8.119  17.512  68.926  1.00  0.00    -0.168 C  
ENDROOT
BRANCH   2   3
HETATM    3  C   UNL     1      -8.302  18.674  67.936  1.00  0.00    -0.293 C  
HETATM    4  C   UNL     1      -9.668  19.343  68.187  1.00  0.00    -0.470 C  
HETATM    5  C   UNL     1      -7.196  19.741  67.974  1.00  0.00    -0.321 C  
HETATM    6  C   UNL     1      -7.039  20.129  66.529  1.00  0.00    -0.251 C  
HETATM    7  O   UNL     1      -6.425  21.097  66.116  1.00  0.00    -0.238 OA 
HETATM    8  N   UNL     1      -7.651  19.194  65.759  1.00  0.00    -0.460 NA 
HETATM    9  C   UNL     1      -8.278  18.232  66.486  1.00  0.00    -0.268 C  
HETATM   10  O   UNL     1      -8.790  17.227  66.023  1.00  0.00    -0.495 OA 
ENDBRANCH   2   3
TORSDOF 1
ENDMDL
MODEL       73
REMARK 921   NORMALIZED FREE ENERGY PREDICTED BY IDOCK:   -3.05 KCAL/MOL
REMARK 922        TOTAL FREE ENERGY PREDICTED BY IDOCK:   -3.27 KCAL/MOL
REMARK 923 INTER-LIGAND FREE ENERGY PREDICTED BY IDOCK:   -3.25 KCAL/MOL
REMARK 924 INTRA-LIGAND FREE ENERGY PREDICTED BY IDOCK:   -0.02 KCAL/MOL
REMARK 927      BINDING AFFINITY PREDICTED BY RF-SCORE:    0.00 PKD
ROOT
HETATM    1  C   UNL     1     -10.010   8.562  67.950  1.00  0.00    -0.225 C  
HETATM    2  C   UNL     1     -10.808   9.847  67.755  1.00  0.00    -0.321 C  
ENDROOT
BRANCH   2   3
HETATM    3  C   UNL     1     -10.309  10.787  66.645  1.00  0.00    -0.294 C  
HETATM    4  C   UNL     1      -9.084  11.570  67.159  1.00  0.00    -0.167 C  
HETATM    5  C   UNL     1      -9.956  10.097  65.317  1.00  0.00    -0.381 C  
HETATM    6  C   UNL     1     -10.412  11.086  64.281  1.00  0.00    -0.359 C  
HETATM    7  O   UNL     1     -10.135  11.051  63.095  1.00  0.00    -0.332 OA 
HETATM    8  N   UNL     1     -11.227  11.994  64.875  1.00  0.00    -0.320 NA 
HETATM    9  C   UNL     1     -11.346  11.807  66.215  1.00  0.00    -0.287 C  
HETATM   10  O   UNL     1     -12.112  12.416  66.943  1.00  0.00    -0.564 OA 
ENDBRANCH   2   3
TORSDOF 1
ENDMDL
MODEL       74
REMARK 921   NORMALIZED FREE ENERGY PREDICTED BY IDOCK:   -3.05 KCAL/MOL
REMARK 922        TOTAL FREE ENERGY PREDICTED BY IDOCK:   -3.26 KCAL/MOL
REMARK 923 INTER-LIGAND FREE ENERGY PREDICTED BY IDOCK:   -3.22 KCAL/MOL
REMARK 924 INTRA-LIGAND FREE ENERGY PREDICTED BY IDOCK:   -0.04 KCAL/MOL
REMARK 927      BINDING AFFINITY PREDICTED BY RF-SCORE:    0.00 PKD
ROOT
HETATM    1  C   UNL     1     -11.491  11.013  69.590  1.00  0.00    -0.375 C  
HETATM    2  C   UNL     1     -10.449   9.959  69.948  1.00  0.00    -0.309 C  
ENDROOT
BRANCH   2   3
HETATM    3  C   UNL     1     -10.936   8.810  70.848  1.00  0.00    -0.315 C  
HETATM    4  C   UNL     1      -9.978   8.665  72.046  1.00  0.00    -0.399 C  
HETATM    5  C   UNL     1     -12.379   8.951  71.359  1.00  0.00    -0.368 C  
HETATM    6  C   UNL     1     -12.894   7.538  71.335  1.00  0.00    -0.342 C  
HETATM    7  O   UNL     1     -13.922   7.148  71.862  1.00  0.00    -0.322 OA 
HETATM    8  N   UNL     1     -12.054   6.781  70.586  1.00  0.00    -0.372 NA 
HETATM    9  C   UNL     1     -10.973   7.471  70.137  1.00  0.00    -0.254 C  
HETATM   10  O   UNL     1     -10.145   7.041  69.351  1.00  0.00    -0.163 OA 
ENDBRANCH   2   3
TORSDOF 1
ENDMDL
MODEL       75
REMARK 921   NORMALIZED FREE ENERGY PREDICTED BY IDOCK:   -3.04 KCAL/MOL
REMARK 922        TOTAL FREE ENERGY PREDICTED BY IDOCK:   -3.26 KCAL/MOL
REMARK 923 INTER-LIGAND FREE ENERGY PREDICTED BY IDOCK:   -3.17 KCAL/MOL
REMARK 924 INTRA-LIGAND FREE ENERGY PREDICTED BY IDOCK:   -0.09 KCAL/MOL
REMARK 927      BINDING AFFINITY PREDICTED BY RF-SCORE:    0.00 PKD
ROOT
HETATM    1  C   UNL     1     -10.079   6.021  69.464  1.00  0.00    -0.246 C  
HETATM    2  C   UNL     1     -11.518   6.389  69.810  1.00  0.00    -0.468 C  
ENDROOT
BRANCH   2   3
HETATM    3  C   UNL     1     -11.784   6.755  71.280  1.00  0.00    -0.384 C  
HETATM    4  C   UNL     1     -13.298   6.952  71.487  1.00  0.00    -0.303 C  
HETATM    5  C   UNL     1     -11.253   5.743  72.309  1.00  0.00    -0.333 C  
HETATM    6  C   UNL     1     -10.776   6.615  73.438  1.00  0.00    -0.289 C  
HETATM    7  O   UNL     1     -10.478   6.230  74.555  1.00  0.00    -0.268 OA 
HETATM    8  N   UNL     1     -10.683   7.893  72.991  1.00  0.00    -0.376 NA 
HETATM    9  C   UNL     1     -11.101   8.041  71.707  1.00  0.00    -0.260 C  
HETATM   10  O   UNL     1     -11.000   9.064  71.050  1.00  0.00    -0.242 OA 
ENDBRANCH   2   3
TORSDOF 1
ENDMDL
MODEL       76
REMARK 921   NORMALIZED FREE ENERGY PREDICTED BY IDOCK:   -3.04 KCAL/MOL
REMARK 922        TOTAL FREE ENERGY PREDICTED BY IDOCK:   -3.25 KCAL/MOL
REMARK 923 INTER-LIGAND FREE ENERGY PREDICTED BY IDOCK:   -3.23 KCAL/MOL
REMARK 924 INTRA-LIGAND FREE ENERGY PREDICTED BY IDOCK:   -0.02 KCAL/MOL
REMARK 927      BINDING AFFINITY PREDICTED BY RF-SCORE:    0.00 PKD
ROOT
HETATM    1  C   UNL     1     -10.641  19.544  67.008  1.00  0.00    -0.607 C  
HETATM    2  C   UNL     1     -10.338  18.186  66.382  1.00  0.00    -0.404 C  
ENDROOT
BRANCH   2   3
HETATM    3  C   UNL     1      -9.864  17.090  67.351  1.00  0.00    -0.262 C  
HETATM    4  C   UNL     1      -8.326  17.009  67.311  1.00  0.00    -0.204 C  
HETATM    5  C   UNL     1     -10.331  17.262  68.806  1.00  0.00    -0.358 C  
HETATM    6  C   UNL     1     -10.599  15.851  69.253  1.00  0.00    -0.252 C  
HETATM    7  O   UNL     1     -10.781  15.493  70.403  1.00  0.00    -0.316 OA 
HETATM    8  N   UNL     1     -10.659  15.052  68.158  1.00  0.00    -0.244 NA 
HETATM    9  C   UNL     1     -10.397  15.714  67.000  1.00  0.00    -0.289 C  
HETATM   10  O   UNL     1     -10.507  15.240  65.882  1.00  0.00    -0.294 OA 
ENDBRANCH   2   3
TORSDOF 1
ENDMDL
MODEL       77
REMARK 921   NORMALIZED FREE ENERGY PREDICTED BY IDOCK:   -3.03 KCAL/MOL
REMARK 922        TOTAL FREE ENERGY PREDICTED BY IDOCK:   -3.25 KCAL/MOL
REMARK 923 INTER-LIGAND FREE ENERGY PREDICTED BY IDOCK:   -3.23 KCAL/MOL
REMARK 924 INTRA-LIGAND FREE ENERGY PREDICTED BY IDOCK:   -0.01 KCAL/MOL
REMARK 927      BINDING AFFINITY PREDICTED BY RF-SCORE:    0.00 PKD
ROOT
HETATM    1  C   UNL     1     -11.265  15.342  68.190  1.00  0.00    -0.328 C  
HETATM    2  C   UNL     1     -10.928  16.829  68.164  1.00  0.00    -0.309 C  
ENDROOT
BRANCH   2   3
HETATM    3  C   UNL     1      -9.445  17.180  67.958  1.00  0.00    -0.262 C  
HETATM    4  C   UNL     1      -8.588  16.337  68.922  1.00  0.00    -0.260 C  
HETATM    5  C   UNL     1      -8.927  17.001  66.522  1.00  0.00    -0.298 C  
HETATM    6  C   UNL     1      -7.974  18.151  66.351  1.00  0.00    -0.266 C  
HETATM    7  O   UNL     1      -7.172  18.281  65.443  1.00  0.00    -0.541 OA 
HETATM    8  N   UNL     1      -8.192  19.048  67.346  1.00  0.00    -0.272 NA 
HETATM    9  C   UNL     1      -9.133  18.638  68.236  1.00  0.00    -0.322 C  
HETATM   10  O   UNL     1      -9.584  19.318  69.142  1.00  0.00    -0.374 OA 
ENDBRANCH   2   3
TORSDOF 1
ENDMDL
MODEL       78
REMARK 921   NORMALIZED FREE ENERGY PREDICTED BY IDOCK:   -3.01 KCAL/MOL
REMARK 922        TOTAL FREE ENERGY PREDICTED BY IDOCK:   -3.22 KCAL/MOL
REMARK 923 INTER-LIGAND FREE ENERGY PREDICTED BY IDOCK:   -3.18 KCAL/MOL
REMARK 924 INTRA-LIGAND FREE ENERGY PREDICTED BY IDOCK:   -0.05 KCAL/MOL
REMARK 927      BINDING AFFINITY PREDICTED BY RF-SCORE:    0.00 PKD
ROOT
HETATM    1  C   UNL     1     -11.159  11.371  66.552  1.00  0.00    -0.312 C  
HETATM    2  C   UNL     1     -11.804  12.738  66.760  1.00  0.00    -0.452 C  
ENDROOT
BRANCH   2   3
HETATM    3  C   UNL     1     -11.002  13.737  67.610  1.00  0.00    -0.278 C  
HETATM    4  C   UNL     1      -9.537  13.266  67.697  1.00  0.00    -0.213 C  
HETATM    5  C   UNL     1     -11.043  15.193  67.116  1.00  0.00    -0.335 C  
HETATM    6  C   UNL     1     -11.079  15.990  68.390  1.00  0.00    -0.351 C  
HETATM    7  O   UNL     1     -10.901  17.192  68.481  1.00  0.00    -0.349 OA 
HETATM    8  N   UNL     1     -11.395  15.159  69.415  1.00  0.00    -0.274 NA 
HETATM    9  C   UNL     1     -11.519  13.862  69.030  1.00  0.00    -0.299 C  
HETATM   10  O   UNL     1     -11.912  12.954  69.743  1.00  0.00    -0.313 OA 
ENDBRANCH   2   3
TORSDOF 1
ENDMDL
MODEL       79
REMARK 921   NORMALIZED FREE ENERGY PREDICTED BY IDOCK:   -3.01 KCAL/MOL
REMARK 922        TOTAL FREE ENERGY PREDICTED BY IDOCK:   -3.22 KCAL/MOL
REMARK 923 INTER-LIGAND FREE ENERGY PREDICTED BY IDOCK:   -3.19 KCAL/MOL
REMARK 924 INTRA-LIGAND FREE ENERGY PREDICTED BY IDOCK:   -0.03 KCAL/MOL
REMARK 927      BINDING AFFINITY PREDICTED BY RF-SCORE:    0.00 PKD
ROOT
HETATM    1  C   UNL     1     -11.136  10.158  70.367  1.00  0.00    -0.393 C  
HETATM    2  C   UNL     1     -11.504   9.366  71.618  1.00  0.00    -0.463 C  
ENDROOT
BRANCH   2   3
HETATM    3  C   UNL     1     -11.699   7.853  71.423  1.00  0.00    -0.311 C  
HETATM    4  C   UNL     1     -13.195   7.513  71.565  1.00  0.00    -0.404 C  
HETATM    5  C   UNL     1     -11.171   7.295  70.090  1.00  0.00    -0.264 C  
HETATM    6  C   UNL     1     -10.617   5.951  70.473  1.00  0.00    -0.275 C  
HETATM    7  O   UNL     1     -10.293   5.069  69.696  1.00  0.00    -0.260 OA 
HETATM    8  N   UNL     1     -10.489   5.901  71.822  1.00  0.00    -0.219 NA 
HETATM    9  C   UNL     1     -10.949   7.019  72.443  1.00  0.00    -0.248 C  
HETATM   10  O   UNL     1     -10.831   7.258  73.633  1.00  0.00    -0.356 OA 
ENDBRANCH   2   3
TORSDOF 1
ENDMDL
MODEL       80
REMARK 921   NORMALIZED FREE ENERGY PREDICTED BY IDOCK:   -3.01 KCAL/MOL
REMARK 922        TOTAL FREE ENERGY PREDICTED BY IDOCK:   -3.22 KCAL/MOL
REMARK 923 INTER-LIGAND FREE ENERGY PREDICTED BY IDOCK:   -3.13 KCAL/MOL
REMARK 924 INTRA-LIGAND FREE ENERGY PREDICTED BY IDOCK:   -0.09 KCAL/MOL
REMARK 927      BINDING AFFINITY PREDICTED BY RF-SCORE:    0.00 PKD
ROOT
HETATM    1  C   UNL     1     -10.593  19.608  66.449  1.00  0.00    -0.592 C  
HETATM    2  C   UNL     1     -10.372  18.171  65.987  1.00  0.00    -0.360 C  
ENDROOT
BRANCH   2   3
HETATM    3  C   UNL     1      -9.360  17.351  66.803  1.00  0.00    -0.279 C  
HETATM    4  C   UNL     1      -9.125  15.997  66.104  1.00  0.00    -0.387 C  
HETATM    5  C   UNL     1      -8.008  18.042  67.047  1.00  0.00    -0.237 C  
HETATM    6  C   UNL     1      -7.648  17.617  68.444  1.00  0.00    -0.260 C  
HETATM    7  O   UNL     1      -6.558  17.753  68.969  1.00  0.00    -0.225 OA 
HETATM    8  N   UNL     1      -8.754  17.105  69.041  1.00  0.00    -0.171 NA 
HETATM    9  C   UNL     1      -9.831  17.053  68.214  1.00  0.00    -0.278 C  
HETATM   10  O   UNL     1     -10.962  16.747  68.553  1.00  0.00    -0.345 OA 
ENDBRANCH   2   3
TORSDOF 1
ENDMDL
MODEL       81
REMARK 921   NORMALIZED FREE ENERGY PREDICTED BY IDOCK:   -3.01 KCAL/MOL
REMARK 922        TOTAL FREE ENERGY PREDICTED BY IDOCK:   -3.22 KCAL/MOL
REMARK 923 INTER-LIGAND FREE ENERGY PREDICTED BY IDOCK:   -3.13 KCAL/MOL
REMARK 924 INTRA-LIGAND FREE ENERGY PREDICTED BY IDOCK:   -0.09 KCAL/MOL
REMARK 927      BINDING AFFINITY PREDICTED BY RF-SCORE:    0.00 PKD
ROOT
HETATM    1  C   UNL     1     -10.932  11.202  69.112  1.00  0.00    -0.295 C  
HETATM    2  C   UNL     1     -11.466  11.842  67.834  1.00  0.00    -0.385 C  
ENDROOT
BRANCH   2   3
HETATM    3  C   UNL     1     -11.360  13.374  67.755  1.00  0.00    -0.325 C  
HETATM    4  C   UNL     1     -12.076  13.866  66.482  1.00  0.00    -0.484 C  
HETATM    5  C   UNL     1     -11.910  14.129  68.976  1.00  0.00    -0.384 C  
HETATM    6  C   UNL     1     -10.954  15.280  69.132  1.00  0.00    -0.251 C  
HETATM    7  O   UNL     1     -11.128  16.257  69.840  1.00  0.00    -0.336 OA 
HETATM    8  N   UNL     1      -9.844  15.026  68.395  1.00  0.00    -0.217 NA 
HETATM    9  C   UNL     1      -9.928  13.870  67.685  1.00  0.00    -0.237 C  
HETATM   10  O   UNL     1      -9.016  13.371  67.048  1.00  0.00    -0.217 OA 
ENDBRANCH   2   3
TORSDOF 1
ENDMDL
MODEL       82
REMARK 921   NORMALIZED FREE ENERGY PREDICTED BY IDOCK:   -2.98 KCAL/MOL
REMARK 922        TOTAL FREE ENERGY PREDICTED BY IDOCK:   -3.19 KCAL/MOL
REMARK 923 INTER-LIGAND FREE ENERGY PREDICTED BY IDOCK:   -3.15 KCAL/MOL
REMARK 924 INTRA-LIGAND FREE ENERGY PREDICTED BY IDOCK:   -0.05 KCAL/MOL
REMARK 927      BINDING AFFINITY PREDICTED BY RF-SCORE:    0.00 PKD
ROOT
HETATM    1  C   UNL     1     -12.305  13.953  71.252  1.00  0.00    -0.419 C  
HETATM    2  C   UNL     1     -11.386  14.889  70.474  1.00  0.00    -0.280 C  
ENDROOT
BRANCH   2   3
HETATM    3  C   UNL     1     -10.952  14.402  69.082  1.00  0.00    -0.288 C  
HETATM    4  C   UNL     1      -9.422  14.540  68.952  1.00  0.00    -0.144 C  
HETATM    5  C   UNL     1     -11.367  12.961  68.738  1.00  0.00    -0.333 C  
HETATM    6  C   UNL     1     -11.706  13.039  67.275  1.00  0.00    -0.375 C  
HETATM    7  O   UNL     1     -11.877  12.087  66.534  1.00  0.00    -0.585 OA 
HETATM    8  N   UNL     1     -11.842  14.344  66.928  1.00  0.00    -0.407 NA 
HETATM    9  C   UNL     1     -11.573  15.198  67.950  1.00  0.00    -0.311 C  
HETATM   10  O   UNL     1     -11.742  16.405  67.918  1.00  0.00    -0.007 OA 
ENDBRANCH   2   3
TORSDOF 1
ENDMDL
MODEL       83
REMARK 921   NORMALIZED FREE ENERGY PREDICTED BY IDOCK:   -2.97 KCAL/MOL
REMARK 922        TOTAL FREE ENERGY PREDICTED BY IDOCK:   -3.18 KCAL/MOL
REMARK 923 INTER-LIGAND FREE ENERGY PREDICTED BY IDOCK:   -3.17 KCAL/MOL
REMARK 924 INTRA-LIGAND FREE ENERGY PREDICTED BY IDOCK:   -0.01 KCAL/MOL
REMARK 927      BINDING AFFINITY PREDICTED BY RF-SCORE:    0.00 PKD
ROOT
HETATM    1  C   UNL     1      -7.818  17.102  66.247  1.00  0.00    -0.351 C  
HETATM    2  C   UNL     1      -6.900  18.321  66.225  1.00  0.00    -0.275 C  
ENDROOT
BRANCH   2   3
HETATM    3  C   UNL     1      -7.200  19.407  67.271  1.00  0.00    -0.231 C  
HETATM    4  C   UNL     1      -8.657  19.881  67.105  1.00  0.00    -0.384 C  
HETATM    5  C   UNL     1      -6.959  18.989  68.731  1.00  0.00    -0.343 C  
HETATM    6  C   UNL     1      -6.408  20.238  69.362  1.00  0.00    -0.289 C  
HETATM    7  O   UNL     1      -6.278  20.431  70.558  1.00  0.00    -0.487 OA 
HETATM    8  N   UNL     1      -6.031  21.093  68.379  1.00  0.00    -0.304 NA 
HETATM    9  C   UNL     1      -6.312  20.629  67.133  1.00  0.00    -0.251 C  
HETATM   10  O   UNL     1      -5.962  21.160  66.092  1.00  0.00    -0.251 OA 
ENDBRANCH   2   3
TORSDOF 1
ENDMDL
MODEL       84
REMARK 921   NORMALIZED FREE ENERGY PREDICTED BY IDOCK:   -2.97 KCAL/MOL
REMARK 922        TOTAL FREE ENERGY PREDICTED BY IDOCK:   -3.17 KCAL/MOL
REMARK 923 INTER-LIGAND FREE ENERGY PREDICTED BY IDOCK:   -3.13 KCAL/MOL
REMARK 924 INTRA-LIGAND FREE ENERGY PREDICTED BY IDOCK:   -0.05 KCAL/MOL
REMARK 927      BINDING AFFINITY PREDICTED BY RF-SCORE:    0.00 PKD
ROOT
HETATM    1  C   UNL     1     -11.075  10.430  69.742  1.00  0.00    -0.352 C  
HETATM    2  C   UNL     1     -10.882   8.929  69.931  1.00  0.00    -0.219 C  
ENDROOT
BRANCH   2   3
HETATM    3  C   UNL     1     -11.409   8.344  71.252  1.00  0.00    -0.314 C  
HETATM    4  C   UNL     1     -12.448   9.310  71.854  1.00  0.00    -0.457 C  
HETATM    5  C   UNL     1     -12.020   6.937  71.143  1.00  0.00    -0.413 C  
HETATM    6  C   UNL     1     -11.590   6.273  72.422  1.00  0.00    -0.282 C  
HETATM    7  O   UNL     1     -12.028   5.223  72.859  1.00  0.00    -0.227 OA 
HETATM    8  N   UNL     1     -10.598   7.009  72.983  1.00  0.00    -0.264 NA 
HETATM    9  C   UNL     1     -10.323   8.147  72.292  1.00  0.00    -0.292 C  
HETATM   10  O   UNL     1      -9.397   8.905  72.530  1.00  0.00    -0.308 OA 
ENDBRANCH   2   3
TORSDOF 1
ENDMDL
MODEL       85
REMARK 921   NORMALIZED FREE ENERGY PREDICTED BY IDOCK:   -2.96 KCAL/MOL
REMARK 922        TOTAL FREE ENERGY PREDICTED BY IDOCK:   -3.17 KCAL/MOL
REMARK 923 INTER-LIGAND FREE ENERGY PREDICTED BY IDOCK:   -3.29 KCAL/MOL
REMARK 924 INTRA-LIGAND FREE ENERGY PREDICTED BY IDOCK:    0.12 KCAL/MOL
REMARK 927      BINDING AFFINITY PREDICTED BY RF-SCORE:    0.00 PKD
ROOT
HETATM    1  C   UNL     1     -12.275  10.769  69.940  1.00  0.00    -0.384 C  
HETATM    2  C   UNL     1     -10.891  11.043  69.360  1.00  0.00    -0.278 C  
ENDROOT
BRANCH   2   3
HETATM    3  C   UNL     1     -10.814  12.160  68.305  1.00  0.00    -0.256 C  
HETATM    4  C   UNL     1      -9.359  12.658  68.201  1.00  0.00    -0.210 C  
HETATM    5  C   UNL     1     -11.324  11.771  66.907  1.00  0.00    -0.386 C  
HETATM    6  C   UNL     1     -12.005  13.023  66.426  1.00  0.00    -0.402 C  
HETATM    7  O   UNL     1     -12.365  13.241  65.283  1.00  0.00    -0.423 OA 
HETATM    8  N   UNL     1     -12.199  13.847  67.487  1.00  0.00    -0.315 NA 
HETATM    9  C   UNL     1     -11.678  13.360  68.643  1.00  0.00    -0.349 C  
HETATM   10  O   UNL     1     -11.829  13.859  69.745  1.00  0.00    -0.289 OA 
ENDBRANCH   2   3
TORSDOF 1
ENDMDL
MODEL       86
REMARK 921   NORMALIZED FREE ENERGY PREDICTED BY IDOCK:   -2.96 KCAL/MOL
REMARK 922        TOTAL FREE ENERGY PREDICTED BY IDOCK:   -3.17 KCAL/MOL
REMARK 923 INTER-LIGAND FREE ENERGY PREDICTED BY IDOCK:   -3.14 KCAL/MOL
REMARK 924 INTRA-LIGAND FREE ENERGY PREDICTED BY IDOCK:   -0.04 KCAL/MOL
REMARK 927      BINDING AFFINITY PREDICTED BY RF-SCORE:    0.00 PKD
ROOT
HETATM    1  C   UNL     1     -10.166  11.645  64.667  1.00  0.00    -0.327 C  
HETATM    2  C   UNL     1     -11.282  12.423  65.357  1.00  0.00    -0.358 C  
ENDROOT
BRANCH   2   3
HETATM    3  C   UNL     1     -11.035  12.792  66.829  1.00  0.00    -0.301 C  
HETATM    4  C   UNL     1      -9.517  12.856  67.087  1.00  0.00    -0.229 C  
HETATM    5  C   UNL     1     -11.688  14.106  67.289  1.00  0.00    -0.421 C  
HETATM    6  C   UNL     1     -12.123  13.802  68.697  1.00  0.00    -0.298 C  
HETATM    7  O   UNL     1     -12.492  14.622  69.519  1.00  0.00    -0.239 OA 
HETATM    8  N   UNL     1     -12.087  12.458  68.883  1.00  0.00    -0.211 NA 
HETATM    9  C   UNL     1     -11.614  11.783  67.802  1.00  0.00    -0.304 C  
HETATM   10  O   UNL     1     -11.601  10.569  67.685  1.00  0.00    -0.447 OA 
ENDBRANCH   2   3
TORSDOF 1
ENDMDL
MODEL       87
REMARK 921   NORMALIZED FREE ENERGY PREDICTED BY IDOCK:   -2.95 KCAL/MOL
REMARK 922        TOTAL FREE ENERGY PREDICTED BY IDOCK:   -3.16 KCAL/MOL
REMARK 923 INTER-LIGAND FREE ENERGY PREDICTED BY IDOCK:   -3.07 KCAL/MOL
REMARK 924 INTRA-LIGAND FREE ENERGY PREDICTED BY IDOCK:   -0.09 KCAL/MOL
REMARK 927      BINDING AFFINITY PREDICTED BY RF-SCORE:    0.00 PKD
ROOT
HETATM    1  C   UNL     1      -8.262  16.241  66.478  1.00  0.00    -0.344 C  
HETATM    2  C   UNL     1      -7.529  17.503  66.035  1.00  0.00    -0.274 C  
ENDROOT
BRANCH   2   3
HETATM    3  C   UNL     1      -7.928  18.801  66.757  1.00  0.00    -0.265 C  
HETATM    4  C   UNL     1      -7.187  19.988  66.110  1.00  0.00    -0.310 C  
HETATM    5  C   UNL     1      -9.438  19.093  66.784  1.00  0.00    -0.376 C  
HETATM    6  C   UNL     1      -9.648  19.698  68.145  1.00  0.00    -0.377 C  
HETATM    7  O   UNL     1     -10.654  20.278  68.516  1.00  0.00    -0.268 OA 
HETATM    8  N   UNL     1      -8.555  19.446  68.908  1.00  0.00    -0.349 NA 
HETATM    9  C   UNL     1      -7.571  18.798  68.231  1.00  0.00    -0.281 C  
HETATM   10  O   UNL     1      -6.549  18.359  68.731  1.00  0.00    -0.229 OA 
ENDBRANCH   2   3
TORSDOF 1
ENDMDL
MODEL       88
REMARK 921   NORMALIZED FREE ENERGY PREDICTED BY IDOCK:   -2.93 KCAL/MOL
REMARK 922        TOTAL FREE ENERGY PREDICTED BY IDOCK:   -3.14 KCAL/MOL
REMARK 923 INTER-LIGAND FREE ENERGY PREDICTED BY IDOCK:   -3.05 KCAL/MOL
REMARK 924 INTRA-LIGAND FREE ENERGY PREDICTED BY IDOCK:   -0.09 KCAL/MOL
REMARK 927      BINDING AFFINITY PREDICTED BY RF-SCORE:    0.00 PKD
ROOT
HETATM    1  C   UNL     1     -10.370  19.710  68.160  1.00  0.00    -0.561 C  
HETATM    2  C   UNL     1      -9.368  18.642  68.586  1.00  0.00    -0.375 C  
ENDROOT
BRANCH   2   3
HETATM    3  C   UNL     1      -8.084  18.550  67.746  1.00  0.00    -0.264 C  
HETATM    4  C   UNL     1      -7.353  17.235  68.079  1.00  0.00    -0.193 C  
HETATM    5  C   UNL     1      -8.293  18.649  66.225  1.00  0.00    -0.249 C  
HETATM    6  C   UNL     1      -7.098  19.436  65.762  1.00  0.00    -0.290 C  
HETATM    7  O   UNL     1      -6.739  19.567  64.605  1.00  0.00    -0.373 OA 
HETATM    8  N   UNL     1      -6.516  20.020  66.840  1.00  0.00    -0.191 NA 
HETATM    9  C   UNL     1      -7.113  19.685  68.014  1.00  0.00    -0.272 C  
HETATM   10  O   UNL     1      -6.848  20.174  69.100  1.00  0.00    -0.281 OA 
ENDBRANCH   2   3
TORSDOF 1
ENDMDL
MODEL       89
REMARK 921   NORMALIZED FREE ENERGY PREDICTED BY IDOCK:   -2.91 KCAL/MOL
REMARK 922        TOTAL FREE ENERGY PREDICTED BY IDOCK:   -3.11 KCAL/MOL
REMARK 923 INTER-LIGAND FREE ENERGY PREDICTED BY IDOCK:   -3.10 KCAL/MOL
REMARK 924 INTRA-LIGAND FREE ENERGY PREDICTED BY IDOCK:   -0.02 KCAL/MOL
REMARK 927      BINDING AFFINITY PREDICTED BY RF-SCORE:    0.00 PKD
ROOT
HETATM    1  C   UNL     1      -9.859   8.337  66.467  1.00  0.00    -0.323 C  
HETATM    2  C   UNL     1      -8.988   9.551  66.774  1.00  0.00    -0.157 C  
ENDROOT
BRANCH   2   3
HETATM    3  C   UNL     1      -9.731  10.886  66.947  1.00  0.00    -0.210 C  
HETATM    4  C   UNL     1      -8.742  11.954  67.452  1.00  0.00    -0.166 C  
HETATM    5  C   UNL     1     -10.443  11.402  65.686  1.00  0.00    -0.316 C  
HETATM    6  C   UNL     1     -11.704  12.017  66.227  1.00  0.00    -0.246 C  
HETATM    7  O   UNL     1     -12.466  12.738  65.607  1.00  0.00    -0.586 OA 
HETATM    8  N   UNL     1     -11.881  11.594  67.504  1.00  0.00    -0.624 NA 
HETATM    9  C   UNL     1     -10.865  10.811  67.952  1.00  0.00    -0.264 C  
HETATM   10  O   UNL     1     -10.855  10.217  69.017  1.00  0.00    -0.207 OA 
ENDBRANCH   2   3
TORSDOF 1
ENDMDL
MODEL       90
REMARK 921   NORMALIZED FREE ENERGY PREDICTED BY IDOCK:   -2.90 KCAL/MOL
REMARK 922        TOTAL FREE ENERGY PREDICTED BY IDOCK:   -3.10 KCAL/MOL
REMARK 923 INTER-LIGAND FREE ENERGY PREDICTED BY IDOCK:   -3.04 KCAL/MOL
REMARK 924 INTRA-LIGAND FREE ENERGY PREDICTED BY IDOCK:   -0.07 KCAL/MOL
REMARK 927      BINDING AFFINITY PREDICTED BY RF-SCORE:    0.00 PKD
ROOT
HETATM    1  C   UNL     1      -8.379  13.541  67.142  1.00  0.00    -0.151 C  
HETATM    2  C   UNL     1      -9.701  13.726  66.404  1.00  0.00    -0.304 C  
ENDROOT
BRANCH   2   3
HETATM    3  C   UNL     1     -10.942  13.128  67.087  1.00  0.00    -0.289 C  
HETATM    4  C   UNL     1     -11.937  12.658  66.008  1.00  0.00    -0.478 C  
HETATM    5  C   UNL     1     -10.657  11.972  68.060  1.00  0.00    -0.233 C  
HETATM    6  C   UNL     1     -11.648  12.199  69.168  1.00  0.00    -0.319 C  
HETATM    7  O   UNL     1     -11.926  11.402  70.046  1.00  0.00    -0.310 OA 
HETATM    8  N   UNL     1     -12.143  13.458  69.058  1.00  0.00    -0.307 NA 
HETATM    9  C   UNL     1     -11.674  14.122  67.970  1.00  0.00    -0.359 C  
HETATM   10  O   UNL     1     -11.878  15.299  67.725  1.00  0.00    -0.287 OA 
ENDBRANCH   2   3
TORSDOF 1
ENDMDL
MODEL       91
REMARK 921   NORMALIZED FREE ENERGY PREDICTED BY IDOCK:   -2.89 KCAL/MOL
REMARK 922        TOTAL FREE ENERGY PREDICTED BY IDOCK:   -3.10 KCAL/MOL
REMARK 923 INTER-LIGAND FREE ENERGY PREDICTED BY IDOCK:   -3.01 KCAL/MOL
REMARK 924 INTRA-LIGAND FREE ENERGY PREDICTED BY IDOCK:   -0.08 KCAL/MOL
REMARK 927      BINDING AFFINITY PREDICTED BY RF-SCORE:    0.00 PKD
ROOT
HETATM    1  C   UNL     1     -11.662  15.993  68.646  1.00  0.00    -0.273 C  
HETATM    2  C   UNL     1     -11.531  15.017  67.482  1.00  0.00    -0.339 C  
ENDROOT
BRANCH   2   3
HETATM    3  C   UNL     1     -10.281  15.185  66.602  1.00  0.00    -0.270 C  
HETATM    4  C   UNL     1     -10.360  14.201  65.418  1.00  0.00    -0.384 C  
HETATM    5  C   UNL     1     -10.045  16.608  66.070  1.00  0.00    -0.359 C  
HETATM    6  C   UNL     1      -8.549  16.753  66.118  1.00  0.00    -0.264 C  
HETATM    7  O   UNL     1      -7.904  17.640  65.589  1.00  0.00    -0.533 OA 
HETATM    8  N   UNL     1      -8.041  15.762  66.893  1.00  0.00    -0.235 NA 
HETATM    9  C   UNL     1      -8.988  14.896  67.341  1.00  0.00    -0.189 C  
HETATM   10  O   UNL     1      -8.794  14.000  68.145  1.00  0.00    -0.168 OA 
ENDBRANCH   2   3
TORSDOF 1
ENDMDL
MODEL       92
REMARK 921   NORMALIZED FREE ENERGY PREDICTED BY IDOCK:   -2.89 KCAL/MOL
REMARK 922        TOTAL FREE ENERGY PREDICTED BY IDOCK:   -3.10 KCAL/MOL
REMARK 923 INTER-LIGAND FREE ENERGY PREDICTED BY IDOCK:   -3.06 KCAL/MOL
REMARK 924 INTRA-LIGAND FREE ENERGY PREDICTED BY IDOCK:   -0.03 KCAL/MOL
REMARK 927      BINDING AFFINITY PREDICTED BY RF-SCORE:    0.00 PKD
ROOT
HETATM    1  C   UNL     1     -13.173   8.788  71.638  1.00  0.00    -0.399 C  
HETATM    2  C   UNL     1     -12.996   7.274  71.575  1.00  0.00    -0.434 C  
ENDROOT
BRANCH   2   3
HETATM    3  C   UNL     1     -11.546   6.764  71.619  1.00  0.00    -0.336 C  
HETATM    4  C   UNL     1     -10.588   7.969  71.706  1.00  0.00    -0.296 C  
HETATM    5  C   UNL     1     -11.236   5.780  72.759  1.00  0.00    -0.336 C  
HETATM    6  C   UNL     1     -10.283   4.805  72.125  1.00  0.00    -0.195 C  
HETATM    7  O   UNL     1      -9.610   3.981  72.720  1.00  0.00    -0.125 OA 
HETATM    8  N   UNL     1     -10.335   4.958  70.778  1.00  0.00    -0.199 NA 
HETATM    9  C   UNL     1     -11.156   5.968  70.388  1.00  0.00    -0.329 C  
HETATM   10  O   UNL     1     -11.459   6.219  69.233  1.00  0.00    -0.411 OA 
ENDBRANCH   2   3
TORSDOF 1
ENDMDL
MODEL       93
REMARK 921   NORMALIZED FREE ENERGY PREDICTED BY IDOCK:   -2.89 KCAL/MOL
REMARK 922        TOTAL FREE ENERGY PREDICTED BY IDOCK:   -3.09 KCAL/MOL
REMARK 923 INTER-LIGAND FREE ENERGY PREDICTED BY IDOCK:   -3.05 KCAL/MOL
REMARK 924 INTRA-LIGAND FREE ENERGY PREDICTED BY IDOCK:   -0.05 KCAL/MOL
REMARK 927      BINDING AFFINITY PREDICTED BY RF-SCORE:    0.00 PKD
ROOT
HETATM    1  C   UNL     1      -9.997   4.924  69.854  1.00  0.00    -0.317 C  
HETATM    2  C   UNL     1     -10.991   6.070  69.698  1.00  0.00    -0.470 C  
ENDROOT
BRANCH   2   3
HETATM    3  C   UNL     1     -10.883   7.199  70.737  1.00  0.00    -0.267 C  
HETATM    4  C   UNL     1      -9.536   7.080  71.476  1.00  0.00    -0.159 C  
HETATM    5  C   UNL     1     -11.033   8.621  70.171  1.00  0.00    -0.234 C  
HETATM    6  C   UNL     1     -11.795   9.344  71.247  1.00  0.00    -0.360 C  
HETATM    7  O   UNL     1     -11.949  10.551  71.320  1.00  0.00    -0.345 OA 
HETATM    8  N   UNL     1     -12.328   8.427  72.094  1.00  0.00    -0.349 NA 
HETATM    9  C   UNL     1     -11.978   7.151  71.786  1.00  0.00    -0.313 C  
HETATM   10  O   UNL     1     -12.426   6.152  72.324  1.00  0.00    -0.236 OA 
ENDBRANCH   2   3
TORSDOF 1
ENDMDL
MODEL       94
REMARK 921   NORMALIZED FREE ENERGY PREDICTED BY IDOCK:   -2.89 KCAL/MOL
REMARK 922        TOTAL FREE ENERGY PREDICTED BY IDOCK:   -3.09 KCAL/MOL
REMARK 923 INTER-LIGAND FREE ENERGY PREDICTED BY IDOCK:   -3.03 KCAL/MOL
REMARK 924 INTRA-LIGAND FREE ENERGY PREDICTED BY IDOCK:   -0.07 KCAL/MOL
REMARK 927      BINDING AFFINITY PREDICTED BY RF-SCORE:    0.00 PKD
ROOT
HETATM    1  C   UNL     1      -7.066  19.323  65.652  1.00  0.00    -0.278 C  
HETATM    2  C   UNL     1      -8.472  19.862  65.892  1.00  0.00    -0.184 C  
ENDROOT
BRANCH   2   3
HETATM    3  C   UNL     1      -9.413  18.951  66.699  1.00  0.00    -0.357 C  
HETATM    4  C   UNL     1     -10.778  19.648  66.860  1.00  0.00    -0.570 C  
HETATM    5  C   UNL     1      -9.622  17.546  66.109  1.00  0.00    -0.201 C  
HETATM    6  C   UNL     1      -9.695  16.667  67.327  1.00  0.00    -0.245 C  
HETATM    7  O   UNL     1     -10.068  15.507  67.344  1.00  0.00    -0.241 OA 
HETATM    8  N   UNL     1      -9.227  17.362  68.394  1.00  0.00    -0.270 NA 
HETATM    9  C   UNL     1      -8.897  18.645  68.092  1.00  0.00    -0.311 C  
HETATM   10  O   UNL     1      -8.346  19.424  68.851  1.00  0.00    -0.368 OA 
ENDBRANCH   2   3
TORSDOF 1
ENDMDL
MODEL       95
REMARK 921   NORMALIZED FREE ENERGY PREDICTED BY IDOCK:   -2.87 KCAL/MOL
REMARK 922        TOTAL FREE ENERGY PREDICTED BY IDOCK:   -3.08 KCAL/MOL
REMARK 923 INTER-LIGAND FREE ENERGY PREDICTED BY IDOCK:   -3.06 KCAL/MOL
REMARK 924 INTRA-LIGAND FREE ENERGY PREDICTED BY IDOCK:   -0.01 KCAL/MOL
REMARK 927      BINDING AFFINITY PREDICTED BY RF-SCORE:    0.00 PKD
ROOT
HETATM    1  C   UNL     1     -10.330  10.564  69.034  1.00  0.00    -0.232 C  
HETATM    2  C   UNL     1     -11.126  10.252  70.298  1.00  0.00    -0.388 C  
ENDROOT
BRANCH   2   3
HETATM    3  C   UNL     1     -10.823   8.902  70.968  1.00  0.00    -0.326 C  
HETATM    4  C   UNL     1     -10.707   7.813  69.883  1.00  0.00    -0.245 C  
HETATM    5  C   UNL     1      -9.565   8.881  71.851  1.00  0.00    -0.326 C  
HETATM    6  C   UNL     1      -9.959   7.989  72.996  1.00  0.00    -0.279 C  
HETATM    7  O   UNL     1      -9.200   7.517  73.823  1.00  0.00    -0.236 OA 
HETATM    8  N   UNL     1     -11.308   7.839  72.985  1.00  0.00    -0.365 NA 
HETATM    9  C   UNL     1     -11.905   8.460  71.934  1.00  0.00    -0.336 C  
HETATM   10  O   UNL     1     -13.110   8.568  71.777  1.00  0.00    -0.330 OA 
ENDBRANCH   2   3
TORSDOF 1
ENDMDL
MODEL       96
REMARK 921   NORMALIZED FREE ENERGY PREDICTED BY IDOCK:   -2.86 KCAL/MOL
REMARK 922        TOTAL FREE ENERGY PREDICTED BY IDOCK:   -3.07 KCAL/MOL
REMARK 923 INTER-LIGAND FREE ENERGY PREDICTED BY IDOCK:   -3.05 KCAL/MOL
REMARK 924 INTRA-LIGAND FREE ENERGY PREDICTED BY IDOCK:   -0.01 KCAL/MOL
REMARK 927      BINDING AFFINITY PREDICTED BY RF-SCORE:    0.00 PKD
ROOT
HETATM    1  C   UNL     1      -7.995   6.273  72.631  1.00  0.00    -0.106 C  
HETATM    2  C   UNL     1      -9.016   6.520  71.525  1.00  0.00    -0.140 C  
ENDROOT
BRANCH   2   3
HETATM    3  C   UNL     1     -10.484   6.611  71.973  1.00  0.00    -0.227 C  
HETATM    4  C   UNL     1     -10.809   5.413  72.887  1.00  0.00    -0.318 C  
HETATM    5  C   UNL     1     -10.867   7.918  72.687  1.00  0.00    -0.428 C  
HETATM    6  C   UNL     1     -12.262   8.186  72.194  1.00  0.00    -0.350 C  
HETATM    7  O   UNL     1     -13.037   9.001  72.662  1.00  0.00    -0.426 OA 
HETATM    8  N   UNL     1     -12.497   7.407  71.108  1.00  0.00    -0.330 NA 
HETATM    9  C   UNL     1     -11.464   6.574  70.816  1.00  0.00    -0.360 C  
HETATM   10  O   UNL     1     -11.391   5.869  69.824  1.00  0.00    -0.371 OA 
ENDBRANCH   2   3
TORSDOF 1
ENDMDL
MODEL       97
REMARK 921   NORMALIZED FREE ENERGY PREDICTED BY IDOCK:   -2.86 KCAL/MOL
REMARK 922        TOTAL FREE ENERGY PREDICTED BY IDOCK:   -3.07 KCAL/MOL
REMARK 923 INTER-LIGAND FREE ENERGY PREDICTED BY IDOCK:   -3.00 KCAL/MOL
REMARK 924 INTRA-LIGAND FREE ENERGY PREDICTED BY IDOCK:   -0.06 KCAL/MOL
REMARK 927      BINDING AFFINITY PREDICTED BY RF-SCORE:    0.00 PKD
ROOT
HETATM    1  C   UNL     1     -11.872  12.043  69.797  1.00  0.00    -0.401 C  
HETATM    2  C   UNL     1     -11.812  13.400  69.103  1.00  0.00    -0.383 C  
ENDROOT
BRANCH   2   3
HETATM    3  C   UNL     1     -10.845  13.505  67.912  1.00  0.00    -0.262 C  
HETATM    4  C   UNL     1     -10.933  14.921  67.311  1.00  0.00    -0.323 C  
HETATM    5  C   UNL     1      -9.378  13.175  68.234  1.00  0.00    -0.201 C  
HETATM    6  C   UNL     1      -8.905  12.457  67.000  1.00  0.00    -0.210 C  
HETATM    7  O   UNL     1      -7.745  12.204  66.726  1.00  0.00    -0.093 OA 
HETATM    8  N   UNL     1      -9.988  12.091  66.268  1.00  0.00    -0.221 NA 
HETATM    9  C   UNL     1     -11.161  12.523  66.799  1.00  0.00    -0.296 C  
HETATM   10  O   UNL     1     -12.269  12.220  66.391  1.00  0.00    -0.613 OA 
ENDBRANCH   2   3
TORSDOF 1
ENDMDL
MODEL       98
REMARK 921   NORMALIZED FREE ENERGY PREDICTED BY IDOCK:   -2.86 KCAL/MOL
REMARK 922        TOTAL FREE ENERGY PREDICTED BY IDOCK:   -3.07 KCAL/MOL
REMARK 923 INTER-LIGAND FREE ENERGY PREDICTED BY IDOCK:   -3.05 KCAL/MOL
REMARK 924 INTRA-LIGAND FREE ENERGY PREDICTED BY IDOCK:   -0.02 KCAL/MOL
REMARK 927      BINDING AFFINITY PREDICTED BY RF-SCORE:    0.00 PKD
ROOT
HETATM    1  C   UNL     1      -7.009  18.348  66.564  1.00  0.00    -0.247 C  
HETATM    2  C   UNL     1      -8.533  18.281  66.552  1.00  0.00    -0.287 C  
ENDROOT
BRANCH   2   3
HETATM    3  C   UNL     1      -9.153  16.979  67.087  1.00  0.00    -0.232 C  
HETATM    4  C   UNL     1      -8.097  15.858  67.037  1.00  0.00    -0.265 C  
HETATM    5  C   UNL     1      -9.736  17.071  68.507  1.00  0.00    -0.282 C  
HETATM    6  C   UNL     1     -10.962  16.203  68.435  1.00  0.00    -0.341 C  
HETATM    7  O   UNL     1     -11.612  15.813  69.389  1.00  0.00    -0.326 OA 
HETATM    8  N   UNL     1     -11.254  15.970  67.131  1.00  0.00    -0.093 NA 
HETATM    9  C   UNL     1     -10.346  16.510  66.276  1.00  0.00    -0.320 C  
HETATM   10  O   UNL     1     -10.457  16.538  65.062  1.00  0.00    -0.652 OA 
ENDBRANCH   2   3
TORSDOF 1
ENDMDL
MODEL       99
REMARK 921   NORMALIZED FREE ENERGY PREDICTED BY IDOCK:   -2.84 KCAL/MOL
REMARK 922        TOTAL FREE ENERGY PREDICTED BY IDOCK:   -3.04 KCAL/MOL
REMARK 923 INTER-LIGAND FREE ENERGY PREDICTED BY IDOCK:   -3.03 KCAL/MOL
REMARK 924 INTRA-LIGAND FREE ENERGY PREDICTED BY IDOCK:   -0.02 KCAL/MOL
REMARK 927      BINDING AFFINITY PREDICTED BY RF-SCORE:    0.00 PKD
ROOT
HETATM    1  C   UNL     1      -9.936   4.781  69.501  1.00  0.00    -0.287 C  
HETATM    2  C   UNL     1     -10.931   5.865  69.904  1.00  0.00    -0.444 C  
ENDROOT
BRANCH   2   3
HETATM    3  C   UNL     1     -10.697   6.514  71.279  1.00  0.00    -0.280 C  
HETATM    4  C   UNL     1     -11.161   5.543  72.382  1.00  0.00    -0.305 C  
HETATM    5  C   UNL     1      -9.249   6.950  71.556  1.00  0.00    -0.151 C  
HETATM    6  C   UNL     1      -9.413   8.231  72.326  1.00  0.00    -0.271 C  
HETATM    7  O   UNL     1      -8.533   8.810  72.938  1.00  0.00    -0.409 OA 
HETATM    8  N   UNL     1     -10.692   8.663  72.184  1.00  0.00    -0.348 NA 
HETATM    9  C   UNL     1     -11.467   7.808  71.466  1.00  0.00    -0.264 C  
HETATM   10  O   UNL     1     -12.609   8.033  71.104  1.00  0.00    -0.268 OA 
ENDBRANCH   2   3
TORSDOF 1
ENDMDL
MODEL      100
REMARK 921   NORMALIZED FREE ENERGY PREDICTED BY IDOCK:   -2.82 KCAL/MOL
REMARK 922        TOTAL FREE ENERGY PREDICTED BY IDOCK:   -3.02 KCAL/MOL
REMARK 923 INTER-LIGAND FREE ENERGY PREDICTED BY IDOCK:   -2.93 KCAL/MOL
REMARK 924 INTRA-LIGAND FREE ENERGY PREDICTED BY IDOCK:   -0.09 KCAL/MOL
REMARK 927      BINDING AFFINITY PREDICTED BY RF-SCORE:    0.00 PKD
ROOT
HETATM    1  C   UNL     1      -7.202  16.486  66.507  1.00  0.00    -0.187 C  
HETATM    2  C   UNL     1      -8.233  17.592  66.713  1.00  0.00    -0.273 C  
ENDROOT
BRANCH   2   3
HETATM    3  C   UNL     1      -9.698  17.135  66.815  1.00  0.00    -0.277 C  
HETATM    4  C   UNL     1     -10.615  18.374  66.817  1.00  0.00    -0.367 C  
HETATM    5  C   UNL     1     -10.154  16.162  65.715  1.00  0.00    -0.390 C  
HETATM    6  C   UNL     1     -11.075  15.223  66.443  1.00  0.00    -0.273 C  
HETATM    7  O   UNL     1     -11.832  14.424  65.922  1.00  0.00    -0.368 OA 
HETATM    8  N   UNL     1     -10.884  15.375  67.778  1.00  0.00    -0.294 NA 
HETATM    9  C   UNL     1      -9.993  16.354  68.081  1.00  0.00    -0.242 C  
HETATM   10  O   UNL     1      -9.569  16.595  69.199  1.00  0.00    -0.259 OA 
ENDBRANCH   2   3
TORSDOF 1
ENDMDL
MODEL      101
REMARK 921   NORMALIZED FREE ENERGY PREDICTED BY IDOCK:   -2.80 KCAL/MOL
REMARK 922        TOTAL FREE ENERGY PREDICTED BY IDOCK:   -3.00 KCAL/MOL
REMARK 923 INTER-LIGAND FREE ENERGY PREDICTED BY IDOCK:   -2.96 KCAL/MOL
REMARK 924 INTRA-LIGAND FREE ENERGY PREDICTED BY IDOCK:   -0.04 KCAL/MOL
REMARK 927      BINDING AFFINITY PREDICTED BY RF-SCORE:    0.00 PKD
ROOT
HETATM    1  C   UNL     1     -10.743  11.399  63.889  1.00  0.00    -0.462 C  
HETATM    2  C   UNL     1     -11.734  11.983  64.891  1.00  0.00    -0.321 C  
ENDROOT
BRANCH   2   3
HETATM    3  C   UNL     1     -11.124  12.584  66.168  1.00  0.00    -0.336 C  
HETATM    4  C   UNL     1     -11.708  11.860  67.397  1.00  0.00    -0.326 C  
HETATM    5  C   UNL     1      -9.588  12.549  66.235  1.00  0.00    -0.246 C  
HETATM    6  C   UNL     1      -9.240  13.848  66.908  1.00  0.00    -0.259 C  
HETATM    7  O   UNL     1      -8.148  14.144  67.360  1.00  0.00    -0.174 OA 
HETATM    8  N   UNL     1     -10.330  14.657  66.881  1.00  0.00    -0.262 NA 
HETATM    9  C   UNL     1     -11.422  14.062  66.334  1.00  0.00    -0.352 C  
HETATM   10  O   UNL     1     -12.478  14.622  66.091  1.00  0.00    -0.222 OA 
ENDBRANCH   2   3
TORSDOF 1
ENDMDL
MODEL      102
REMARK 921   NORMALIZED FREE ENERGY PREDICTED BY IDOCK:   -2.79 KCAL/MOL
REMARK 922        TOTAL FREE ENERGY PREDICTED BY IDOCK:   -2.99 KCAL/MOL
REMARK 923 INTER-LIGAND FREE ENERGY PREDICTED BY IDOCK:   -2.94 KCAL/MOL
REMARK 924 INTRA-LIGAND FREE ENERGY PREDICTED BY IDOCK:   -0.05 KCAL/MOL
REMARK 927      BINDING AFFINITY PREDICTED BY RF-SCORE:    0.00 PKD
ROOT
HETATM    1  C   UNL     1      -8.652  11.868  68.344  1.00  0.00    -0.152 C  
HETATM    2  C   UNL     1      -8.460  13.102  67.469  1.00  0.00    -0.198 C  
ENDROOT
BRANCH   2   3
HETATM    3  C   UNL     1      -9.738  13.697  66.854  1.00  0.00    -0.262 C  
HETATM    4  C   UNL     1      -9.377  14.978  66.077  1.00  0.00    -0.304 C  
HETATM    5  C   UNL     1     -10.522  12.744  65.936  1.00  0.00    -0.295 C  
HETATM    6  C   UNL     1     -11.957  13.081  66.232  1.00  0.00    -0.414 C  
HETATM    7  O   UNL     1     -12.921  12.724  65.577  1.00  0.00    -0.448 OA 
HETATM    8  N   UNL     1     -12.006  13.804  67.380  1.00  0.00    -0.392 NA 
HETATM    9  C   UNL     1     -10.777  14.077  67.891  1.00  0.00    -0.240 C  
HETATM   10  O   UNL     1     -10.569  14.605  68.970  1.00  0.00    -0.237 OA 
ENDBRANCH   2   3
TORSDOF 1
ENDMDL
MODEL      103
REMARK 921   NORMALIZED FREE ENERGY PREDICTED BY IDOCK:   -2.79 KCAL/MOL
REMARK 922        TOTAL FREE ENERGY PREDICTED BY IDOCK:   -2.99 KCAL/MOL
REMARK 923 INTER-LIGAND FREE ENERGY PREDICTED BY IDOCK:   -2.96 KCAL/MOL
REMARK 924 INTRA-LIGAND FREE ENERGY PREDICTED BY IDOCK:   -0.03 KCAL/MOL
REMARK 927      BINDING AFFINITY PREDICTED BY RF-SCORE:    0.00 PKD
ROOT
HETATM    1  C   UNL     1     -11.356  15.664  70.549  1.00  0.00    -0.386 C  
HETATM    2  C   UNL     1     -11.804  15.668  69.091  1.00  0.00    -0.378 C  
ENDROOT
BRANCH   2   3
HETATM    3  C   UNL     1     -10.682  15.590  68.042  1.00  0.00    -0.283 C  
HETATM    4  C   UNL     1     -10.498  16.976  67.394  1.00  0.00    -0.322 C  
HETATM    5  C   UNL     1      -9.328  15.090  68.573  1.00  0.00    -0.196 C  
HETATM    6  C   UNL     1      -8.796  14.259  67.438  1.00  0.00    -0.205 C  
HETATM    7  O   UNL     1      -7.655  13.846  67.334  1.00  0.00    -0.176 OA 
HETATM    8  N   UNL     1      -9.811  14.002  66.574  1.00  0.00    -0.281 NA 
HETATM    9  C   UNL     1     -10.976  14.607  66.926  1.00  0.00    -0.324 C  
HETATM   10  O   UNL     1     -12.051  14.430  66.377  1.00  0.00    -0.414 OA 
ENDBRANCH   2   3
TORSDOF 1
ENDMDL
MODEL      104
REMARK 921   NORMALIZED FREE ENERGY PREDICTED BY IDOCK:   -2.78 KCAL/MOL
REMARK 922        TOTAL FREE ENERGY PREDICTED BY IDOCK:   -2.98 KCAL/MOL
REMARK 923 INTER-LIGAND FREE ENERGY PREDICTED BY IDOCK:   -2.96 KCAL/MOL
REMARK 924 INTRA-LIGAND FREE ENERGY PREDICTED BY IDOCK:   -0.02 KCAL/MOL
REMARK 927      BINDING AFFINITY PREDICTED BY RF-SCORE:    0.00 PKD
ROOT
HETATM    1  C   UNL     1     -11.983  13.241  67.221  1.00  0.00    -0.393 C  
HETATM    2  C   UNL     1     -11.371  11.866  66.971  1.00  0.00    -0.392 C  
ENDROOT
BRANCH   2   3
HETATM    3  C   UNL     1     -10.665  11.216  68.172  1.00  0.00    -0.244 C  
HETATM    4  C   UNL     1      -9.219  11.742  68.255  1.00  0.00    -0.188 C  
HETATM    5  C   UNL     1     -11.363  11.421  69.527  1.00  0.00    -0.357 C  
HETATM    6  C   UNL     1     -11.146  10.110  70.231  1.00  0.00    -0.317 C  
HETATM    7  O   UNL     1     -11.342   9.899  71.415  1.00  0.00    -0.364 OA 
HETATM    8  N   UNL     1     -10.746   9.188  69.320  1.00  0.00    -0.213 NA 
HETATM    9  C   UNL     1     -10.589   9.704  68.073  1.00  0.00    -0.243 C  
HETATM   10  O   UNL     1     -10.355   9.053  67.069  1.00  0.00    -0.253 OA 
ENDBRANCH   2   3
TORSDOF 1
ENDMDL
MODEL      105
REMARK 921   NORMALIZED FREE ENERGY PREDICTED BY IDOCK:   -2.78 KCAL/MOL
REMARK 922        TOTAL FREE ENERGY PREDICTED BY IDOCK:   -2.98 KCAL/MOL
REMARK 923 INTER-LIGAND FREE ENERGY PREDICTED BY IDOCK:   -2.89 KCAL/MOL
REMARK 924 INTRA-LIGAND FREE ENERGY PREDICTED BY IDOCK:   -0.09 KCAL/MOL
REMARK 927      BINDING AFFINITY PREDICTED BY RF-SCORE:    0.00 PKD
ROOT
HETATM    1  C   UNL     1     -11.220  15.442  65.058  1.00  0.00    -0.393 C  
HETATM    2  C   UNL     1     -11.938  14.400  65.909  1.00  0.00    -0.367 C  
ENDROOT
BRANCH   2   3
HETATM    3  C   UNL     1     -11.138  13.828  67.091  1.00  0.00    -0.315 C  
HETATM    4  C   UNL     1     -11.887  12.611  67.668  1.00  0.00    -0.390 C  
HETATM    5  C   UNL     1      -9.689  13.430  66.764  1.00  0.00    -0.262 C  
HETATM    6  C   UNL     1      -8.935  13.816  68.006  1.00  0.00    -0.187 C  
HETATM    7  O   UNL     1      -7.794  13.484  68.276  1.00  0.00    -0.129 OA 
HETATM    8  N   UNL     1      -9.716  14.637  68.752  1.00  0.00    -0.218 NA 
HETATM    9  C   UNL     1     -10.953  14.822  68.222  1.00  0.00    -0.258 C  
HETATM   10  O   UNL     1     -11.787  15.606  68.644  1.00  0.00    -0.372 OA 
ENDBRANCH   2   3
TORSDOF 1
ENDMDL
MODEL      106
REMARK 921   NORMALIZED FREE ENERGY PREDICTED BY IDOCK:   -2.77 KCAL/MOL
REMARK 922        TOTAL FREE ENERGY PREDICTED BY IDOCK:   -2.96 KCAL/MOL
REMARK 923 INTER-LIGAND FREE ENERGY PREDICTED BY IDOCK:   -2.95 KCAL/MOL
REMARK 924 INTRA-LIGAND FREE ENERGY PREDICTED BY IDOCK:   -0.02 KCAL/MOL
REMARK 927      BINDING AFFINITY PREDICTED BY RF-SCORE:    0.00 PKD
ROOT
HETATM    1  C   UNL     1      -7.787  16.539  66.720  1.00  0.00    -0.296 C  
HETATM    2  C   UNL     1      -9.310  16.483  66.780  1.00  0.00    -0.262 C  
ENDROOT
BRANCH   2   3
HETATM    3  C   UNL     1      -9.913  15.185  67.343  1.00  0.00    -0.226 C  
HETATM    4  C   UNL     1      -8.932  14.022  67.096  1.00  0.00    -0.241 C  
HETATM    5  C   UNL     1     -10.285  15.233  68.834  1.00  0.00    -0.232 C  
HETATM    6  C   UNL     1     -11.550  14.424  68.902  1.00  0.00    -0.306 C  
HETATM    7  O   UNL     1     -12.079  14.016  69.922  1.00  0.00    -0.307 OA 
HETATM    8  N   UNL     1     -12.035  14.267  67.645  1.00  0.00    -0.385 NA 
HETATM    9  C   UNL     1     -11.231  14.808  66.692  1.00  0.00    -0.346 C  
HETATM   10  O   UNL     1     -11.509  14.899  65.509  1.00  0.00    -0.347 OA 
ENDBRANCH   2   3
TORSDOF 1
ENDMDL
MODEL      107
REMARK 921   NORMALIZED FREE ENERGY PREDICTED BY IDOCK:   -2.76 KCAL/MOL
REMARK 922        TOTAL FREE ENERGY PREDICTED BY IDOCK:   -2.95 KCAL/MOL
REMARK 923 INTER-LIGAND FREE ENERGY PREDICTED BY IDOCK:   -2.94 KCAL/MOL
REMARK 924 INTRA-LIGAND FREE ENERGY PREDICTED BY IDOCK:   -0.02 KCAL/MOL
REMARK 927      BINDING AFFINITY PREDICTED BY RF-SCORE:    0.00 PKD
ROOT
HETATM    1  C   UNL     1     -10.435  11.110  63.589  1.00  0.00    -0.438 C  
HETATM    2  C   UNL     1     -10.750  11.822  64.901  1.00  0.00    -0.347 C  
ENDROOT
BRANCH   2   3
HETATM    3  C   UNL     1     -10.151  11.190  66.169  1.00  0.00    -0.284 C  
HETATM    4  C   UNL     1     -10.133   9.657  66.010  1.00  0.00    -0.318 C  
HETATM    5  C   UNL     1      -8.743  11.683  66.540  1.00  0.00    -0.182 C  
HETATM    6  C   UNL     1      -8.778  11.734  68.042  1.00  0.00    -0.167 C  
HETATM    7  O   UNL     1      -7.810  11.864  68.771  1.00  0.00    -0.122 OA 
HETATM    8  N   UNL     1     -10.070  11.665  68.450  1.00  0.00    -0.201 NA 
HETATM    9  C   UNL     1     -10.945  11.503  67.423  1.00  0.00    -0.265 C  
HETATM   10  O   UNL     1     -12.160  11.534  67.525  1.00  0.00    -0.614 OA 
ENDBRANCH   2   3
TORSDOF 1
ENDMDL
MODEL      108
REMARK 921   NORMALIZED FREE ENERGY PREDICTED BY IDOCK:   -2.72 KCAL/MOL
REMARK 922        TOTAL FREE ENERGY PREDICTED BY IDOCK:   -2.92 KCAL/MOL
REMARK 923 INTER-LIGAND FREE ENERGY PREDICTED BY IDOCK:   -2.89 KCAL/MOL
REMARK 924 INTRA-LIGAND FREE ENERGY PREDICTED BY IDOCK:   -0.02 KCAL/MOL
REMARK 927      BINDING AFFINITY PREDICTED BY RF-SCORE:    0.00 PKD
ROOT
HETATM    1  C   UNL     1      -8.525  13.892  68.111  1.00  0.00    -0.171 C  
HETATM    2  C   UNL     1      -9.637  14.798  68.631  1.00  0.00    -0.218 C  
ENDROOT
BRANCH   2   3
HETATM    3  C   UNL     1     -11.000  14.125  68.861  1.00  0.00    -0.280 C  
HETATM    4  C   UNL     1     -11.893  14.356  67.626  1.00  0.00    -0.412 C  
HETATM    5  C   UNL     1     -10.940  12.621  69.175  1.00  0.00    -0.195 C  
HETATM    6  C   UNL     1     -12.035  12.434  70.188  1.00  0.00    -0.298 C  
HETATM    7  O   UNL     1     -12.488  11.364  70.555  1.00  0.00    -0.318 OA 
HETATM    8  N   UNL     1     -12.399  13.651  70.665  1.00  0.00    -0.361 NA 
HETATM    9  C   UNL     1     -11.744  14.678  70.062  1.00  0.00    -0.294 C  
HETATM   10  O   UNL     1     -11.811  15.848  70.400  1.00  0.00    -0.346 OA 
ENDBRANCH   2   3
TORSDOF 1
ENDMDL
MODEL      109
REMARK 921   NORMALIZED FREE ENERGY PREDICTED BY IDOCK:   -2.71 KCAL/MOL
REMARK 922        TOTAL FREE ENERGY PREDICTED BY IDOCK:   -2.91 KCAL/MOL
REMARK 923 INTER-LIGAND FREE ENERGY PREDICTED BY IDOCK:   -2.89 KCAL/MOL
REMARK 924 INTRA-LIGAND FREE ENERGY PREDICTED BY IDOCK:   -0.02 KCAL/MOL
REMARK 927      BINDING AFFINITY PREDICTED BY RF-SCORE:    0.00 PKD
ROOT
HETATM    1  C   UNL     1     -11.646  14.808  64.406  1.00  0.00    -0.304 C  
HETATM    2  C   UNL     1     -10.526  14.365  65.341  1.00  0.00    -0.391 C  
ENDROOT
BRANCH   2   3
HETATM    3  C   UNL     1     -10.639  14.842  66.799  1.00  0.00    -0.305 C  
HETATM    4  C   UNL     1     -10.320  16.349  66.864  1.00  0.00    -0.300 C  
HETATM    5  C   UNL     1     -11.999  14.578  67.467  1.00  0.00    -0.358 C  
HETATM    6  C   UNL     1     -11.627  14.227  68.881  1.00  0.00    -0.305 C  
HETATM    7  O   UNL     1     -12.399  14.153  69.821  1.00  0.00    -0.336 OA 
HETATM    8  N   UNL     1     -10.299  13.955  68.927  1.00  0.00    -0.199 NA 
HETATM    9  C   UNL     1      -9.675  14.137  67.734  1.00  0.00    -0.223 C  
HETATM   10  O   UNL     1      -8.516  13.844  67.497  1.00  0.00    -0.171 OA 
ENDBRANCH   2   3
TORSDOF 1
ENDMDL
MODEL      110
REMARK 921   NORMALIZED FREE ENERGY PREDICTED BY IDOCK:   -2.69 KCAL/MOL
REMARK 922        TOTAL FREE ENERGY PREDICTED BY IDOCK:   -2.88 KCAL/MOL
REMARK 923 INTER-LIGAND FREE ENERGY PREDICTED BY IDOCK:   -2.85 KCAL/MOL
REMARK 924 INTRA-LIGAND FREE ENERGY PREDICTED BY IDOCK:   -0.03 KCAL/MOL
REMARK 927      BINDING AFFINITY PREDICTED BY RF-SCORE:    0.00 PKD
ROOT
HETATM    1  C   UNL     1     -12.098  14.614  70.827  1.00  0.00    -0.387 C  
HETATM    2  C   UNL     1     -11.396  15.743  70.078  1.00  0.00    -0.354 C  
ENDROOT
BRANCH   2   3
HETATM    3  C   UNL     1     -10.699  15.348  68.766  1.00  0.00    -0.241 C  
HETATM    4  C   UNL     1     -10.841  13.827  68.555  1.00  0.00    -0.280 C  
HETATM    5  C   UNL     1     -11.199  16.088  67.514  1.00  0.00    -0.138 C  
HETATM    6  C   UNL     1      -9.946  16.291  66.708  1.00  0.00    -0.261 C  
HETATM    7  O   UNL     1      -9.900  16.644  65.543  1.00  0.00    -0.549 OA 
HETATM    8  N   UNL     1      -8.873  16.068  67.508  1.00  0.00    -0.187 NA 
HETATM    9  C   UNL     1      -9.215  15.666  68.760  1.00  0.00    -0.211 C  
HETATM   10  O   UNL     1      -8.437  15.521  69.688  1.00  0.00    -0.244 OA 
ENDBRANCH   2   3
TORSDOF 1
ENDMDL
MODEL      111
REMARK 921   NORMALIZED FREE ENERGY PREDICTED BY IDOCK:   -2.66 KCAL/MOL
REMARK 922        TOTAL FREE ENERGY PREDICTED BY IDOCK:   -2.85 KCAL/MOL
REMARK 923 INTER-LIGAND FREE ENERGY PREDICTED BY IDOCK:   -2.83 KCAL/MOL
REMARK 924 INTRA-LIGAND FREE ENERGY PREDICTED BY IDOCK:   -0.02 KCAL/MOL
REMARK 927      BINDING AFFINITY PREDICTED BY RF-SCORE:    0.00 PKD
ROOT
HETATM    1  C   UNL     1     -10.668  19.248  67.355  1.00  0.00    -0.594 C  
HETATM    2  C   UNL     1      -9.596  18.432  68.070  1.00  0.00    -0.316 C  
ENDROOT
BRANCH   2   3
HETATM    3  C   UNL     1      -9.874  16.926  68.204  1.00  0.00    -0.264 C  
HETATM    4  C   UNL     1     -10.665  16.671  69.503  1.00  0.00    -0.306 C  
HETATM    5  C   UNL     1     -10.621  16.294  67.018  1.00  0.00    -0.284 C  
HETATM    6  C   UNL     1      -9.987  14.936  66.893  1.00  0.00    -0.242 C  
HETATM    7  O   UNL     1     -10.414  14.012  66.224  1.00  0.00    -0.278 OA 
HETATM    8  N   UNL     1      -8.833  14.928  67.607  1.00  0.00    -0.175 NA 
HETATM    9  C   UNL     1      -8.611  16.090  68.275  1.00  0.00    -0.179 C  
HETATM   10  O   UNL     1      -7.590  16.365  68.883  1.00  0.00    -0.196 OA 
ENDBRANCH   2   3
TORSDOF 1
ENDMDL
MODEL      112
REMARK 921   NORMALIZED FREE ENERGY PREDICTED BY IDOCK:   -2.65 KCAL/MOL
REMARK 922        TOTAL FREE ENERGY PREDICTED BY IDOCK:   -2.84 KCAL/MOL
REMARK 923 INTER-LIGAND FREE ENERGY PREDICTED BY IDOCK:   -2.78 KCAL/MOL
REMARK 924 INTRA-LIGAND FREE ENERGY PREDICTED BY IDOCK:   -0.06 KCAL/MOL
REMARK 927      BINDING AFFINITY PREDICTED BY RF-SCORE:    0.00 PKD
ROOT
HETATM    1  C   UNL     1     -13.150   7.215  71.095  1.00  0.00    -0.294 C  
HETATM    2  C   UNL     1     -12.207   8.224  71.743  1.00  0.00    -0.367 C  
ENDROOT
BRANCH   2   3
HETATM    3  C   UNL     1     -11.062   8.740  70.857  1.00  0.00    -0.320 C  
HETATM    4  C   UNL     1      -9.787   8.887  71.711  1.00  0.00    -0.386 C  
HETATM    5  C   UNL     1     -10.755   7.877  69.622  1.00  0.00    -0.218 C  
HETATM    6  C   UNL     1     -10.412   8.891  68.566  1.00  0.00    -0.182 C  
HETATM    7  O   UNL     1      -9.896   8.649  67.489  1.00  0.00    -0.160 OA 
HETATM    8  N   UNL     1     -10.822  10.114  68.988  1.00  0.00    -0.215 NA 
HETATM    9  C   UNL     1     -11.348  10.097  70.241  1.00  0.00    -0.315 C  
HETATM   10  O   UNL     1     -11.891  11.043  70.787  1.00  0.00    -0.329 OA 
ENDBRANCH   2   3
TORSDOF 1
ENDMDL
MODEL      113
REMARK 921   NORMALIZED FREE ENERGY PREDICTED BY IDOCK:   -2.64 KCAL/MOL
REMARK 922        TOTAL FREE ENERGY PREDICTED BY IDOCK:   -2.83 KCAL/MOL
REMARK 923 INTER-LIGAND FREE ENERGY PREDICTED BY IDOCK:   -2.82 KCAL/MOL
REMARK 924 INTRA-LIGAND FREE ENERGY PREDICTED BY IDOCK:   -0.01 KCAL/MOL
REMARK 927      BINDING AFFINITY PREDICTED BY RF-SCORE:    0.00 PKD
ROOT
HETATM    1  C   UNL     1     -10.345   9.865  69.966  1.00  0.00    -0.320 C  
HETATM    2  C   UNL     1      -9.669  10.882  69.052  1.00  0.00    -0.181 C  
ENDROOT
BRANCH   2   3
HETATM    3  C   UNL     1     -10.276  11.033  67.648  1.00  0.00    -0.211 C  
HETATM    4  C   UNL     1     -10.524   9.634  67.051  1.00  0.00    -0.302 C  
HETATM    5  C   UNL     1     -11.574  11.855  67.585  1.00  0.00    -0.382 C  
HETATM    6  C   UNL     1     -11.443  12.610  66.291  1.00  0.00    -0.364 C  
HETATM    7  O   UNL     1     -12.338  13.220  65.731  1.00  0.00    -0.438 OA 
HETATM    8  N   UNL     1     -10.153  12.545  65.877  1.00  0.00    -0.252 NA 
HETATM    9  C   UNL     1      -9.373  11.779  66.684  1.00  0.00    -0.198 C  
HETATM   10  O   UNL     1      -8.162  11.667  66.588  1.00  0.00    -0.170 OA 
ENDBRANCH   2   3
TORSDOF 1
ENDMDL
MODEL      114
REMARK 921   NORMALIZED FREE ENERGY PREDICTED BY IDOCK:   -2.63 KCAL/MOL
REMARK 922        TOTAL FREE ENERGY PREDICTED BY IDOCK:   -2.82 KCAL/MOL
REMARK 923 INTER-LIGAND FREE ENERGY PREDICTED BY IDOCK:   -2.73 KCAL/MOL
REMARK 924 INTRA-LIGAND FREE ENERGY PREDICTED BY IDOCK:   -0.09 KCAL/MOL
REMARK 927      BINDING AFFINITY PREDICTED BY RF-SCORE:    0.00 PKD
ROOT
HETATM    1  C   UNL     1      -9.759  18.859  67.075  1.00  0.00    -0.349 C  
HETATM    2  C   UNL     1      -8.390  18.799  66.407  1.00  0.00    -0.294 C  
ENDROOT
BRANCH   2   3
HETATM    3  C   UNL     1      -7.180  19.011  67.332  1.00  0.00    -0.228 C  
HETATM    4  C   UNL     1      -5.907  19.157  66.475  1.00  0.00    -0.174 C  
HETATM    5  C   UNL     1      -7.293  20.210  68.288  1.00  0.00    -0.254 C  
HETATM    6  C   UNL     1      -6.638  19.712  69.547  1.00  0.00    -0.348 C  
HETATM    7  O   UNL     1      -6.310  20.401  70.497  1.00  0.00    -0.482 OA 
HETATM    8  N   UNL     1      -6.521  18.363  69.472  1.00  0.00    -0.241 NA 
HETATM    9  C   UNL     1      -6.950  17.855  68.287  1.00  0.00    -0.222 C  
HETATM   10  O   UNL     1      -7.055  16.668  68.030  1.00  0.00    -0.142 OA 
ENDBRANCH   2   3
TORSDOF 1
ENDMDL
MODEL      115
REMARK 921   NORMALIZED FREE ENERGY PREDICTED BY IDOCK:   -2.63 KCAL/MOL
REMARK 922        TOTAL FREE ENERGY PREDICTED BY IDOCK:   -2.82 KCAL/MOL
REMARK 923 INTER-LIGAND FREE ENERGY PREDICTED BY IDOCK:   -2.80 KCAL/MOL
REMARK 924 INTRA-LIGAND FREE ENERGY PREDICTED BY IDOCK:   -0.02 KCAL/MOL
REMARK 927      BINDING AFFINITY PREDICTED BY RF-SCORE:    0.00 PKD
ROOT
HETATM    1  C   UNL     1     -10.671   6.317  67.446  1.00  0.00    -0.409 C  
HETATM    2  C   UNL     1     -11.179   6.252  68.883  1.00  0.00    -0.387 C  
ENDROOT
BRANCH   2   3
HETATM    3  C   UNL     1     -10.751   7.409  69.800  1.00  0.00    -0.252 C  
HETATM    4  C   UNL     1      -9.368   7.093  70.402  1.00  0.00    -0.159 C  
HETATM    5  C   UNL     1     -10.714   8.793  69.130  1.00  0.00    -0.150 C  
HETATM    6  C   UNL     1     -11.203   9.715  70.212  1.00  0.00    -0.271 C  
HETATM    7  O   UNL     1     -11.132  10.932  70.194  1.00  0.00    -0.261 OA 
HETATM    8  N   UNL     1     -11.784   8.973  71.187  1.00  0.00    -0.288 NA 
HETATM    9  C   UNL     1     -11.704   7.636  70.959  1.00  0.00    -0.286 C  
HETATM   10  O   UNL     1     -12.254   6.776  71.627  1.00  0.00    -0.336 OA 
ENDBRANCH   2   3
TORSDOF 1
ENDMDL
MODEL      116
REMARK 921   NORMALIZED FREE ENERGY PREDICTED BY IDOCK:   -2.62 KCAL/MOL
REMARK 922        TOTAL FREE ENERGY PREDICTED BY IDOCK:   -2.80 KCAL/MOL
REMARK 923 INTER-LIGAND FREE ENERGY PREDICTED BY IDOCK:   -2.77 KCAL/MOL
REMARK 924 INTRA-LIGAND FREE ENERGY PREDICTED BY IDOCK:   -0.04 KCAL/MOL
REMARK 927      BINDING AFFINITY PREDICTED BY RF-SCORE:    0.00 PKD
ROOT
HETATM    1  C   UNL     1      -6.481  15.660  69.457  1.00  0.00    -0.173 C  
HETATM    2  C   UNL     1      -6.812  16.792  68.488  1.00  0.00    -0.164 C  
ENDROOT
BRANCH   2   3
HETATM    3  C   UNL     1      -8.291  16.924  68.089  1.00  0.00    -0.212 C  
HETATM    4  C   UNL     1      -8.409  16.855  66.554  1.00  0.00    -0.315 C  
HETATM    5  C   UNL     1      -9.232  15.885  68.722  1.00  0.00    -0.218 C  
HETATM    6  C   UNL     1     -10.486  16.671  68.990  1.00  0.00    -0.328 C  
HETATM    7  O   UNL     1     -11.569  16.200  69.287  1.00  0.00    -0.329 OA 
HETATM    8  N   UNL     1     -10.199  17.994  68.897  1.00  0.00    -0.370 NA 
HETATM    9  C   UNL     1      -8.913  18.236  68.530  1.00  0.00    -0.312 C  
HETATM   10  O   UNL     1      -8.389  19.336  68.497  1.00  0.00    -0.344 OA 
ENDBRANCH   2   3
TORSDOF 1
ENDMDL
MODEL      117
REMARK 921   NORMALIZED FREE ENERGY PREDICTED BY IDOCK:   -2.62 KCAL/MOL
REMARK 922        TOTAL FREE ENERGY PREDICTED BY IDOCK:   -2.80 KCAL/MOL
REMARK 923 INTER-LIGAND FREE ENERGY PREDICTED BY IDOCK:   -2.79 KCAL/MOL
REMARK 924 INTRA-LIGAND FREE ENERGY PREDICTED BY IDOCK:   -0.01 KCAL/MOL
REMARK 927      BINDING AFFINITY PREDICTED BY RF-SCORE:    0.00 PKD
ROOT
HETATM    1  C   UNL     1      -6.434  16.053  69.818  1.00  0.00    -0.164 C  
HETATM    2  C   UNL     1      -7.706  16.612  69.189  1.00  0.00    -0.186 C  
ENDROOT
BRANCH   2   3
HETATM    3  C   UNL     1      -7.564  17.968  68.477  1.00  0.00    -0.296 C  
HETATM    4  C   UNL     1      -6.767  18.931  69.378  1.00  0.00    -0.275 C  
HETATM    5  C   UNL     1      -6.912  17.908  67.086  1.00  0.00    -0.202 C  
HETATM    6  C   UNL     1      -7.672  18.942  66.302  1.00  0.00    -0.276 C  
HETATM    7  O   UNL     1      -7.351  19.386  65.214  1.00  0.00    -0.414 OA 
HETATM    8  N   UNL     1      -8.802  19.260  66.982  1.00  0.00    -0.284 NA 
HETATM    9  C   UNL     1      -8.898  18.628  68.182  1.00  0.00    -0.311 C  
HETATM   10  O   UNL     1      -9.872  18.660  68.915  1.00  0.00    -0.382 OA 
ENDBRANCH   2   3
TORSDOF 1
ENDMDL
MODEL      118
REMARK 921   NORMALIZED FREE ENERGY PREDICTED BY IDOCK:   -2.61 KCAL/MOL
REMARK 922        TOTAL FREE ENERGY PREDICTED BY IDOCK:   -2.79 KCAL/MOL
REMARK 923 INTER-LIGAND FREE ENERGY PREDICTED BY IDOCK:   -2.77 KCAL/MOL
REMARK 924 INTRA-LIGAND FREE ENERGY PREDICTED BY IDOCK:   -0.03 KCAL/MOL
REMARK 927      BINDING AFFINITY PREDICTED BY RF-SCORE:    0.00 PKD
ROOT
HETATM    1  C   UNL     1     -12.162   6.602  71.645  1.00  0.00    -0.401 C  
HETATM    2  C   UNL     1     -11.170   7.633  71.116  1.00  0.00    -0.280 C  
ENDROOT
BRANCH   2   3
HETATM    3  C   UNL     1     -10.438   7.257  69.817  1.00  0.00    -0.236 C  
HETATM    4  C   UNL     1      -8.979   6.887  70.147  1.00  0.00    -0.149 C  
HETATM    5  C   UNL     1     -11.086   6.119  69.011  1.00  0.00    -0.437 C  
HETATM    6  C   UNL     1     -10.874   6.542  67.583  1.00  0.00    -0.337 C  
HETATM    7  O   UNL     1     -11.034   5.837  66.602  1.00  0.00    -0.277 OA 
HETATM    8  N   UNL     1     -10.525   7.853  67.565  1.00  0.00    -0.259 NA 
HETATM    9  C   UNL     1     -10.398   8.388  68.807  1.00  0.00    -0.206 C  
HETATM   10  O   UNL     1     -10.211   9.570  69.045  1.00  0.00    -0.185 OA 
ENDBRANCH   2   3
TORSDOF 1
ENDMDL
MODEL      119
REMARK 921   NORMALIZED FREE ENERGY PREDICTED BY IDOCK:   -2.60 KCAL/MOL
REMARK 922        TOTAL FREE ENERGY PREDICTED BY IDOCK:   -2.78 KCAL/MOL
REMARK 923 INTER-LIGAND FREE ENERGY PREDICTED BY IDOCK:   -2.77 KCAL/MOL
REMARK 924 INTRA-LIGAND FREE ENERGY PREDICTED BY IDOCK:   -0.01 KCAL/MOL
REMARK 927      BINDING AFFINITY PREDICTED BY RF-SCORE:    0.00 PKD
ROOT
HETATM    1  C   UNL     1     -10.650  19.500  67.855  1.00  0.00    -0.503 C  
HETATM    2  C   UNL     1      -9.585  18.488  68.261  1.00  0.00    -0.370 C  
ENDROOT
BRANCH   2   3
HETATM    3  C   UNL     1      -8.759  17.883  67.114  1.00  0.00    -0.248 C  
HETATM    4  C   UNL     1      -9.670  16.987  66.253  1.00  0.00    -0.302 C  
HETATM    5  C   UNL     1      -8.048  18.907  66.213  1.00  0.00    -0.286 C  
HETATM    6  C   UNL     1      -6.740  18.238  65.893  1.00  0.00    -0.280 C  
HETATM    7  O   UNL     1      -5.952  18.593  65.034  1.00  0.00    -0.251 OA 
HETATM    8  N   UNL     1      -6.557  17.206  66.754  1.00  0.00    -0.201 NA 
HETATM    9  C   UNL     1      -7.607  17.022  67.597  1.00  0.00    -0.165 C  
HETATM   10  O   UNL     1      -7.627  16.240  68.533  1.00  0.00    -0.161 OA 
ENDBRANCH   2   3
TORSDOF 1
ENDMDL
MODEL      120
REMARK 921   NORMALIZED FREE ENERGY PREDICTED BY IDOCK:   -2.58 KCAL/MOL
REMARK 922        TOTAL FREE ENERGY PREDICTED BY IDOCK:   -2.76 KCAL/MOL
REMARK 923 INTER-LIGAND FREE ENERGY PREDICTED BY IDOCK:   -2.75 KCAL/MOL
REMARK 924 INTRA-LIGAND FREE ENERGY PREDICTED BY IDOCK:   -0.01 KCAL/MOL
REMARK 927      BINDING AFFINITY PREDICTED BY RF-SCORE:    0.00 PKD
ROOT
HETATM    1  C   UNL     1      -8.101  10.462  67.739  1.00  0.00    -0.103 C  
HETATM    2  C   UNL     1      -8.838  11.009  66.520  1.00  0.00    -0.173 C  
ENDROOT
BRANCH   2   3
HETATM    3  C   UNL     1     -10.219  11.629  66.792  1.00  0.00    -0.248 C  
HETATM    4  C   UNL     1     -11.037  10.672  67.682  1.00  0.00    -0.385 C  
HETATM    5  C   UNL     1     -10.191  13.026  67.432  1.00  0.00    -0.231 C  
HETATM    6  C   UNL     1     -11.344  13.732  66.774  1.00  0.00    -0.330 C  
HETATM    7  O   UNL     1     -11.828  14.791  67.135  1.00  0.00    -0.374 OA 
HETATM    8  N   UNL     1     -11.724  13.022  65.682  1.00  0.00    -0.354 NA 
HETATM    9  C   UNL     1     -11.025  11.867  65.529  1.00  0.00    -0.297 C  
HETATM   10  O   UNL     1     -11.100  11.124  64.564  1.00  0.00    -0.253 OA 
ENDBRANCH   2   3
TORSDOF 1
ENDMDL
MODEL      121
REMARK 921   NORMALIZED FREE ENERGY PREDICTED BY IDOCK:   -2.56 KCAL/MOL
REMARK 922        TOTAL FREE ENERGY PREDICTED BY IDOCK:   -2.74 KCAL/MOL
REMARK 923 INTER-LIGAND FREE ENERGY PREDICTED BY IDOCK:   -2.70 KCAL/MOL
REMARK 924 INTRA-LIGAND FREE ENERGY PREDICTED BY IDOCK:   -0.05 KCAL/MOL
REMARK 927      BINDING AFFINITY PREDICTED BY RF-SCORE:    0.00 PKD
ROOT
HETATM    1  C   UNL     1     -11.038   5.813  72.375  1.00  0.00    -0.332 C  
HETATM    2  C   UNL     1     -10.067   6.545  71.454  1.00  0.00    -0.213 C  
ENDROOT
BRANCH   2   3
HETATM    3  C   UNL     1     -10.630   7.777  70.726  1.00  0.00    -0.220 C  
HETATM    4  C   UNL     1     -10.275   7.687  69.229  1.00  0.00    -0.210 C  
HETATM    5  C   UNL     1     -12.146   7.989  70.881  1.00  0.00    -0.164 C  
HETATM    6  C   UNL     1     -12.279   9.484  70.971  1.00  0.00    -0.304 C  
HETATM    7  O   UNL     1     -13.321  10.110  70.884  1.00  0.00    -0.388 OA 
HETATM    8  N   UNL     1     -11.056  10.016  71.217  1.00  0.00    -0.237 NA 
HETATM    9  C   UNL     1     -10.065   9.086  71.244  1.00  0.00    -0.314 C  
HETATM   10  O   UNL     1      -8.909   9.303  71.564  1.00  0.00    -0.317 OA 
ENDBRANCH   2   3
TORSDOF 1
ENDMDL
MODEL      122
REMARK 921   NORMALIZED FREE ENERGY PREDICTED BY IDOCK:   -2.56 KCAL/MOL
REMARK 922        TOTAL FREE ENERGY PREDICTED BY IDOCK:   -2.74 KCAL/MOL
REMARK 923 INTER-LIGAND FREE ENERGY PREDICTED BY IDOCK:   -2.72 KCAL/MOL
REMARK 924 INTRA-LIGAND FREE ENERGY PREDICTED BY IDOCK:   -0.02 KCAL/MOL
REMARK 927      BINDING AFFINITY PREDICTED BY RF-SCORE:    0.00 PKD
ROOT
HETATM    1  C   UNL     1     -10.347   9.853  66.690  1.00  0.00    -0.275 C  
HETATM    2  C   UNL     1     -10.496   8.456  67.282  1.00  0.00    -0.373 C  
ENDROOT
BRANCH   2   3
HETATM    3  C   UNL     1     -10.252   8.337  68.796  1.00  0.00    -0.226 C  
HETATM    4  C   UNL     1      -8.752   8.092  69.050  1.00  0.00    -0.144 C  
HETATM    5  C   UNL     1     -10.722   9.542  69.627  1.00  0.00    -0.257 C  
HETATM    6  C   UNL     1     -11.250   8.910  70.886  1.00  0.00    -0.279 C  
HETATM    7  O   UNL     1     -11.525   9.500  71.916  1.00  0.00    -0.355 OA 
HETATM    8  N   UNL     1     -11.418   7.581  70.668  1.00  0.00    -0.284 NA 
HETATM    9  C   UNL     1     -11.010   7.188  69.434  1.00  0.00    -0.164 C  
HETATM   10  O   UNL     1     -11.170   6.073  68.964  1.00  0.00    -0.367 OA 
ENDBRANCH   2   3
TORSDOF 1
ENDMDL
MODEL      123
REMARK 921   NORMALIZED FREE ENERGY PREDICTED BY IDOCK:   -2.55 KCAL/MOL
REMARK 922        TOTAL FREE ENERGY PREDICTED BY IDOCK:   -2.73 KCAL/MOL
REMARK 923 INTER-LIGAND FREE ENERGY PREDICTED BY IDOCK:   -2.71 KCAL/MOL
REMARK 924 INTRA-LIGAND FREE ENERGY PREDICTED BY IDOCK:   -0.02 KCAL/MOL
REMARK 927      BINDING AFFINITY PREDICTED BY RF-SCORE:    0.00 PKD
ROOT
HETATM    1  C   UNL     1     -11.380  11.267  69.874  1.00  0.00    -0.329 C  
HETATM    2  C   UNL     1     -11.277   9.841  69.340  1.00  0.00    -0.154 C  
ENDROOT
BRANCH   2   3
HETATM    3  C   UNL     1     -10.618   8.818  70.279  1.00  0.00    -0.239 C  
HETATM    4  C   UNL     1     -10.773   7.407  69.678  1.00  0.00    -0.245 C  
HETATM    5  C   UNL     1      -9.135   9.081  70.590  1.00  0.00    -0.280 C  
HETATM    6  C   UNL     1      -9.007   8.678  72.033  1.00  0.00    -0.216 C  
HETATM    7  O   UNL     1      -7.961   8.516  72.636  1.00  0.00    -0.298 OA 
HETATM    8  N   UNL     1     -10.250   8.575  72.568  1.00  0.00    -0.298 NA 
HETATM    9  C   UNL     1     -11.240   8.789  71.662  1.00  0.00    -0.324 C  
HETATM   10  O   UNL     1     -12.428   8.869  71.926  1.00  0.00    -0.328 OA 
ENDBRANCH   2   3
TORSDOF 1
ENDMDL
MODEL      124
REMARK 921   NORMALIZED FREE ENERGY PREDICTED BY IDOCK:   -2.53 KCAL/MOL
REMARK 922        TOTAL FREE ENERGY PREDICTED BY IDOCK:   -2.72 KCAL/MOL
REMARK 923 INTER-LIGAND FREE ENERGY PREDICTED BY IDOCK:   -2.68 KCAL/MOL
REMARK 924 INTRA-LIGAND FREE ENERGY PREDICTED BY IDOCK:   -0.04 KCAL/MOL
REMARK 927      BINDING AFFINITY PREDICTED BY RF-SCORE:    0.00 PKD
ROOT
HETATM    1  C   UNL     1     -12.225  11.110  70.597  1.00  0.00    -0.492 C  
HETATM    2  C   UNL     1     -11.999  11.189  69.091  1.00  0.00    -0.413 C  
ENDROOT
BRANCH   2   3
HETATM    3  C   UNL     1     -10.663  10.624  68.580  1.00  0.00    -0.239 C  
HETATM    4  C   UNL     1      -9.875  10.038  69.768  1.00  0.00    -0.270 C  
HETATM    5  C   UNL     1     -10.786   9.563  67.474  1.00  0.00    -0.311 C  
HETATM    6  C   UNL     1      -9.616   9.861  66.577  1.00  0.00    -0.190 C  
HETATM    7  O   UNL     1      -9.196   9.137  65.692  1.00  0.00    -0.210 OA 
HETATM    8  N   UNL     1      -9.137  11.094  66.882  1.00  0.00    -0.156 NA 
HETATM    9  C   UNL     1      -9.782  11.672  67.929  1.00  0.00    -0.179 C  
HETATM   10  O   UNL     1      -9.613  12.819  68.309  1.00  0.00    -0.218 OA 
ENDBRANCH   2   3
TORSDOF 1
ENDMDL
MODEL      125
REMARK 921   NORMALIZED FREE ENERGY PREDICTED BY IDOCK:   -2.53 KCAL/MOL
REMARK 922        TOTAL FREE ENERGY PREDICTED BY IDOCK:   -2.71 KCAL/MOL
REMARK 923 INTER-LIGAND FREE ENERGY PREDICTED BY IDOCK:   -2.68 KCAL/MOL
REMARK 924 INTRA-LIGAND FREE ENERGY PREDICTED BY IDOCK:   -0.03 KCAL/MOL
REMARK 927      BINDING AFFINITY PREDICTED BY RF-SCORE:    0.00 PKD
ROOT
HETATM    1  C   UNL     1     -11.033   7.427  73.157  1.00  0.00    -0.408 C  
HETATM    2  C   UNL     1     -11.301   8.744  72.435  1.00  0.00    -0.272 C  
ENDROOT
BRANCH   2   3
HETATM    3  C   UNL     1     -10.873   8.801  70.959  1.00  0.00    -0.321 C  
HETATM    4  C   UNL     1     -10.931   7.382  70.360  1.00  0.00    -0.269 C  
HETATM    5  C   UNL     1     -11.691   9.762  70.080  1.00  0.00    -0.190 C  
HETATM    6  C   UNL     1     -10.662  10.338  69.146  1.00  0.00    -0.228 C  
HETATM    7  O   UNL     1     -10.899  10.981  68.139  1.00  0.00    -0.193 OA 
HETATM    8  N   UNL     1      -9.427  10.067  69.638  1.00  0.00    -0.225 NA 
HETATM    9  C   UNL     1      -9.457   9.312  70.768  1.00  0.00    -0.271 C  
HETATM   10  O   UNL     1      -8.488   9.043  71.457  1.00  0.00    -0.308 OA 
ENDBRANCH   2   3
TORSDOF 1
ENDMDL
MODEL      126
REMARK 921   NORMALIZED FREE ENERGY PREDICTED BY IDOCK:   -2.52 KCAL/MOL
REMARK 922        TOTAL FREE ENERGY PREDICTED BY IDOCK:   -2.71 KCAL/MOL
REMARK 923 INTER-LIGAND FREE ENERGY PREDICTED BY IDOCK:   -2.67 KCAL/MOL
REMARK 924 INTRA-LIGAND FREE ENERGY PREDICTED BY IDOCK:   -0.03 KCAL/MOL
REMARK 927      BINDING AFFINITY PREDICTED BY RF-SCORE:    0.00 PKD
ROOT
HETATM    1  C   UNL     1      -9.270   4.334  68.505  1.00  0.00    -0.194 C  
HETATM    2  C   UNL     1      -9.985   4.842  69.753  1.00  0.00    -0.314 C  
ENDROOT
BRANCH   2   3
HETATM    3  C   UNL     1     -10.582   6.256  69.657  1.00  0.00    -0.323 C  
HETATM    4  C   UNL     1     -10.911   6.568  68.184  1.00  0.00    -0.365 C  
HETATM    5  C   UNL     1     -11.829   6.496  70.523  1.00  0.00    -0.393 C  
HETATM    6  C   UNL     1     -11.654   7.912  70.999  1.00  0.00    -0.282 C  
HETATM    7  O   UNL     1     -12.510   8.592  71.536  1.00  0.00    -0.306 OA 
HETATM    8  N   UNL     1     -10.369   8.289  70.780  1.00  0.00    -0.192 NA 
HETATM    9  C   UNL     1      -9.635   7.337  70.145  1.00  0.00    -0.168 C  
HETATM   10  O   UNL     1      -8.433   7.394  69.947  1.00  0.00    -0.135 OA 
ENDBRANCH   2   3
TORSDOF 1
ENDMDL
MODEL      127
REMARK 921   NORMALIZED FREE ENERGY PREDICTED BY IDOCK:   -2.48 KCAL/MOL
REMARK 922        TOTAL FREE ENERGY PREDICTED BY IDOCK:   -2.66 KCAL/MOL
REMARK 923 INTER-LIGAND FREE ENERGY PREDICTED BY IDOCK:   -2.62 KCAL/MOL
REMARK 924 INTRA-LIGAND FREE ENERGY PREDICTED BY IDOCK:   -0.04 KCAL/MOL
REMARK 927      BINDING AFFINITY PREDICTED BY RF-SCORE:    0.00 PKD
ROOT
HETATM    1  C   UNL     1      -8.311   5.220  69.165  1.00  0.00    -0.091 C  
HETATM    2  C   UNL     1      -9.788   5.062  69.512  1.00  0.00    -0.281 C  
ENDROOT
BRANCH   2   3
HETATM    3  C   UNL     1     -10.353   6.070  70.526  1.00  0.00    -0.279 C  
HETATM    4  C   UNL     1      -9.321   7.192  70.752  1.00  0.00    -0.160 C  
HETATM    5  C   UNL     1     -11.707   6.689  70.144  1.00  0.00    -0.412 C  
HETATM    6  C   UNL     1     -12.423   6.799  71.462  1.00  0.00    -0.341 C  
HETATM    7  O   UNL     1     -13.443   7.432  71.666  1.00  0.00    -0.368 OA 
HETATM    8  N   UNL     1     -11.773   6.033  72.375  1.00  0.00    -0.305 NA 
HETATM    9  C   UNL     1     -10.649   5.452  71.879  1.00  0.00    -0.226 C  
HETATM   10  O   UNL     1      -9.967   4.630  72.468  1.00  0.00    -0.156 OA 
ENDBRANCH   2   3
TORSDOF 1
ENDMDL
MODEL      128
REMARK 921   NORMALIZED FREE ENERGY PREDICTED BY IDOCK:   -2.47 KCAL/MOL
REMARK 922        TOTAL FREE ENERGY PREDICTED BY IDOCK:   -2.65 KCAL/MOL
REMARK 923 INTER-LIGAND FREE ENERGY PREDICTED BY IDOCK:   -2.62 KCAL/MOL
REMARK 924 INTRA-LIGAND FREE ENERGY PREDICTED BY IDOCK:   -0.03 KCAL/MOL
REMARK 927      BINDING AFFINITY PREDICTED BY RF-SCORE:    0.00 PKD
ROOT
HETATM    1  C   UNL     1     -11.009   6.581  68.228  1.00  0.00    -0.362 C  
HETATM    2  C   UNL     1     -10.997   5.848  69.565  1.00  0.00    -0.438 C  
ENDROOT
BRANCH   2   3
HETATM    3  C   UNL     1     -10.682   6.708  70.801  1.00  0.00    -0.282 C  
HETATM    4  C   UNL     1     -11.108   8.163  70.526  1.00  0.00    -0.257 C  
HETATM    5  C   UNL     1     -11.325   6.225  72.111  1.00  0.00    -0.343 C  
HETATM    6  C   UNL     1     -10.267   6.511  73.142  1.00  0.00    -0.213 C  
HETATM    7  O   UNL     1     -10.428   6.488  74.349  1.00  0.00    -0.313 OA 
HETATM    8  N   UNL     1      -9.092   6.747  72.505  1.00  0.00    -0.134 NA 
HETATM    9  C   UNL     1      -9.206   6.730  71.152  1.00  0.00    -0.159 C  
HETATM   10  O   UNL     1      -8.273   6.795  70.369  1.00  0.00    -0.121 OA 
ENDBRANCH   2   3
TORSDOF 1
ENDMDL
MODEL      129
REMARK 921   NORMALIZED FREE ENERGY PREDICTED BY IDOCK:   -2.47 KCAL/MOL
REMARK 922        TOTAL FREE ENERGY PREDICTED BY IDOCK:   -2.65 KCAL/MOL
REMARK 923 INTER-LIGAND FREE ENERGY PREDICTED BY IDOCK:   -2.63 KCAL/MOL
REMARK 924 INTRA-LIGAND FREE ENERGY PREDICTED BY IDOCK:   -0.01 KCAL/MOL
REMARK 927      BINDING AFFINITY PREDICTED BY RF-SCORE:    0.00 PKD
ROOT
HETATM    1  C   UNL     1      -8.042   8.570  72.194  1.00  0.00    -0.162 C  
HETATM    2  C   UNL     1      -9.157   7.528  72.183  1.00  0.00    -0.165 C  
ENDROOT
BRANCH   2   3
HETATM    3  C   UNL     1     -10.225   7.697  71.090  1.00  0.00    -0.207 C  
HETATM    4  C   UNL     1     -10.828   9.112  71.186  1.00  0.00    -0.381 C  
HETATM    5  C   UNL     1      -9.732   7.447  69.655  1.00  0.00    -0.163 C  
HETATM    6  C   UNL     1     -10.903   6.768  69.000  1.00  0.00    -0.249 C  
HETATM    7  O   UNL     1     -11.039   6.582  67.803  1.00  0.00    -0.313 OA 
HETATM    8  N   UNL     1     -11.759   6.349  69.966  1.00  0.00    -0.389 NA 
HETATM    9  C   UNL     1     -11.370   6.710  71.217  1.00  0.00    -0.299 C  
HETATM   10  O   UNL     1     -11.907   6.349  72.250  1.00  0.00    -0.305 OA 
ENDBRANCH   2   3
TORSDOF 1
ENDMDL
MODEL      130
REMARK 921   NORMALIZED FREE ENERGY PREDICTED BY IDOCK:   -2.46 KCAL/MOL
REMARK 922        TOTAL FREE ENERGY PREDICTED BY IDOCK:   -2.64 KCAL/MOL
REMARK 923 INTER-LIGAND FREE ENERGY PREDICTED BY IDOCK:   -2.56 KCAL/MOL
REMARK 924 INTRA-LIGAND FREE ENERGY PREDICTED BY IDOCK:   -0.08 KCAL/MOL
REMARK 927      BINDING AFFINITY PREDICTED BY RF-SCORE:    0.00 PKD
ROOT
HETATM    1  C   UNL     1      -7.883   7.011  69.533  1.00  0.00    -0.119 C  
HETATM    2  C   UNL     1      -8.497   8.402  69.408  1.00  0.00    -0.125 C  
ENDROOT
BRANCH   2   3
HETATM    3  C   UNL     1      -9.785   8.643  70.212  1.00  0.00    -0.191 C  
HETATM    4  C   UNL     1     -10.305  10.064  69.920  1.00  0.00    -0.315 C  
HETATM    5  C   UNL     1     -10.909   7.625  69.962  1.00  0.00    -0.250 C  
HETATM    6  C   UNL     1     -11.531   7.454  71.321  1.00  0.00    -0.272 C  
HETATM    7  O   UNL     1     -12.593   6.904  71.552  1.00  0.00    -0.365 OA 
HETATM    8  N   UNL     1     -10.688   7.966  72.252  1.00  0.00    -0.260 NA 
HETATM    9  C   UNL     1      -9.580   8.539  71.712  1.00  0.00    -0.267 C  
HETATM   10  O   UNL     1      -8.627   8.957  72.346  1.00  0.00    -0.399 OA 
ENDBRANCH   2   3
TORSDOF 1
ENDMDL
MODEL      131
REMARK 921   NORMALIZED FREE ENERGY PREDICTED BY IDOCK:   -2.46 KCAL/MOL
REMARK 922        TOTAL FREE ENERGY PREDICTED BY IDOCK:   -2.64 KCAL/MOL
REMARK 923 INTER-LIGAND FREE ENERGY PREDICTED BY IDOCK:   -2.62 KCAL/MOL
REMARK 924 INTRA-LIGAND FREE ENERGY PREDICTED BY IDOCK:   -0.01 KCAL/MOL
REMARK 927      BINDING AFFINITY PREDICTED BY RF-SCORE:    0.00 PKD
ROOT
HETATM    1  C   UNL     1     -11.412  11.324  69.870  1.00  0.00    -0.373 C  
HETATM    2  C   UNL     1     -11.216   9.902  69.355  1.00  0.00    -0.196 C  
ENDROOT
BRANCH   2   3
HETATM    3  C   UNL     1     -10.456   8.947  70.291  1.00  0.00    -0.239 C  
HETATM    4  C   UNL     1      -8.989   9.406  70.401  1.00  0.00    -0.294 C  
HETATM    5  C   UNL     1     -11.055   8.803  71.700  1.00  0.00    -0.398 C  
HETATM    6  C   UNL     1     -10.840   7.349  72.021  1.00  0.00    -0.227 C  
HETATM    7  O   UNL     1     -10.964   6.838  73.120  1.00  0.00    -0.275 OA 
HETATM    8  N   UNL     1     -10.536   6.691  70.874  1.00  0.00    -0.212 NA 
HETATM    9  C   UNL     1     -10.443   7.513  69.796  1.00  0.00    -0.230 C  
HETATM   10  O   UNL     1     -10.300   7.143  68.643  1.00  0.00    -0.177 OA 
ENDBRANCH   2   3
TORSDOF 1
ENDMDL
MODEL      132
REMARK 921   NORMALIZED FREE ENERGY PREDICTED BY IDOCK:   -2.45 KCAL/MOL
REMARK 922        TOTAL FREE ENERGY PREDICTED BY IDOCK:   -2.63 KCAL/MOL
REMARK 923 INTER-LIGAND FREE ENERGY PREDICTED BY IDOCK:   -2.58 KCAL/MOL
REMARK 924 INTRA-LIGAND FREE ENERGY PREDICTED BY IDOCK:   -0.05 KCAL/MOL
REMARK 927      BINDING AFFINITY PREDICTED BY RF-SCORE:    0.00 PKD
ROOT
HETATM    1  C   UNL     1     -10.337   5.409  69.813  1.00  0.00    -0.375 C  
HETATM    2  C   UNL     1     -11.010   6.425  68.896  1.00  0.00    -0.412 C  
ENDROOT
BRANCH   2   3
HETATM    3  C   UNL     1     -10.092   7.508  68.303  1.00  0.00    -0.209 C  
HETATM    4  C   UNL     1      -8.627   7.040  68.405  1.00  0.00    -0.126 C  
HETATM    5  C   UNL     1     -10.404   7.903  66.850  1.00  0.00    -0.400 C  
HETATM    6  C   UNL     1     -10.147   9.384  66.831  1.00  0.00    -0.248 C  
HETATM    7  O   UNL     1     -10.059  10.077  65.832  1.00  0.00    -0.264 OA 
HETATM    8  N   UNL     1     -10.081   9.831  68.110  1.00  0.00    -0.158 NA 
HETATM    9  C   UNL     1     -10.191   8.836  69.029  1.00  0.00    -0.207 C  
HETATM   10  O   UNL     1     -10.281   9.002  70.234  1.00  0.00    -0.182 OA 
ENDBRANCH   2   3
TORSDOF 1
ENDMDL
MODEL      133
REMARK 921   NORMALIZED FREE ENERGY PREDICTED BY IDOCK:   -2.44 KCAL/MOL
REMARK 922        TOTAL FREE ENERGY PREDICTED BY IDOCK:   -2.62 KCAL/MOL
REMARK 923 INTER-LIGAND FREE ENERGY PREDICTED BY IDOCK:   -2.61 KCAL/MOL
REMARK 924 INTRA-LIGAND FREE ENERGY PREDICTED BY IDOCK:   -0.01 KCAL/MOL
REMARK 927      BINDING AFFINITY PREDICTED BY RF-SCORE:    0.00 PKD
ROOT
HETATM    1  C   UNL     1      -9.634  15.398  69.217  1.00  0.00    -0.268 C  
HETATM    2  C   UNL     1      -9.591  16.908  69.425  1.00  0.00     0.029 C  
ENDROOT
BRANCH   2   3
HETATM    3  C   UNL     1      -9.368  17.755  68.161  1.00  0.00    -0.281 C  
HETATM    4  C   UNL     1      -7.968  17.453  67.590  1.00  0.00    -0.199 C  
HETATM    5  C   UNL     1     -10.422  17.567  67.057  1.00  0.00    -0.293 C  
HETATM    6  C   UNL     1     -10.581  18.951  66.491  1.00  0.00    -0.389 C  
HETATM    7  O   UNL     1     -11.155  19.233  65.454  1.00  0.00    -0.384 OA 
HETATM    8  N   UNL     1     -10.025  19.840  67.353  1.00  0.00    -0.373 NA 
HETATM    9  C   UNL     1      -9.434  19.247  68.422  1.00  0.00    -0.376 C  
HETATM   10  O   UNL     1      -8.976  19.837  69.386  1.00  0.00    -0.073 OA 
ENDBRANCH   2   3
TORSDOF 1
ENDMDL
MODEL      134
REMARK 921   NORMALIZED FREE ENERGY PREDICTED BY IDOCK:   -2.44 KCAL/MOL
REMARK 922        TOTAL FREE ENERGY PREDICTED BY IDOCK:   -2.61 KCAL/MOL
REMARK 923 INTER-LIGAND FREE ENERGY PREDICTED BY IDOCK:   -2.59 KCAL/MOL
REMARK 924 INTRA-LIGAND FREE ENERGY PREDICTED BY IDOCK:   -0.02 KCAL/MOL
REMARK 927      BINDING AFFINITY PREDICTED BY RF-SCORE:    0.00 PKD
ROOT
HETATM    1  C   UNL     1     -10.928  19.352  67.678  1.00  0.00    -0.366 C  
HETATM    2  C   UNL     1      -9.984  18.583  66.759  1.00  0.00    -0.381 C  
ENDROOT
BRANCH   2   3
HETATM    3  C   UNL     1      -8.642  18.158  67.377  1.00  0.00    -0.244 C  
HETATM    4  C   UNL     1      -8.829  17.939  68.891  1.00  0.00    -0.127 C  
HETATM    5  C   UNL     1      -8.005  16.906  66.753  1.00  0.00    -0.271 C  
HETATM    6  C   UNL     1      -6.535  17.219  66.771  1.00  0.00    -0.209 C  
HETATM    7  O   UNL     1      -5.636  16.421  66.571  1.00  0.00    -0.278 OA 
HETATM    8  N   UNL     1      -6.376  18.548  66.995  1.00  0.00    -0.177 NA 
HETATM    9  C   UNL     1      -7.550  19.197  67.205  1.00  0.00    -0.232 C  
HETATM   10  O   UNL     1      -7.675  20.406  67.308  1.00  0.00    -0.306 OA 
ENDBRANCH   2   3
TORSDOF 1
ENDMDL
MODEL      135
REMARK 921   NORMALIZED FREE ENERGY PREDICTED BY IDOCK:   -2.39 KCAL/MOL
REMARK 922        TOTAL FREE ENERGY PREDICTED BY IDOCK:   -2.56 KCAL/MOL
REMARK 923 INTER-LIGAND FREE ENERGY PREDICTED BY IDOCK:   -2.48 KCAL/MOL
REMARK 924 INTRA-LIGAND FREE ENERGY PREDICTED BY IDOCK:   -0.08 KCAL/MOL
REMARK 927      BINDING AFFINITY PREDICTED BY RF-SCORE:    0.00 PKD
ROOT
HETATM    1  C   UNL     1      -7.783   7.598  70.443  1.00  0.00    -0.090 C  
HETATM    2  C   UNL     1      -8.873   7.333  69.410  1.00  0.00    -0.137 C  
ENDROOT
BRANCH   2   3
HETATM    3  C   UNL     1     -10.207   6.803  69.961  1.00  0.00    -0.211 C  
HETATM    4  C   UNL     1     -11.024   6.191  68.806  1.00  0.00    -0.421 C  
HETATM    5  C   UNL     1     -10.079   5.776  71.098  1.00  0.00    -0.257 C  
HETATM    6  C   UNL     1     -11.229   6.118  72.005  1.00  0.00    -0.286 C  
HETATM    7  O   UNL     1     -11.642   5.427  72.920  1.00  0.00    -0.312 OA 
HETATM    8  N   UNL     1     -11.696   7.347  71.670  1.00  0.00    -0.268 NA 
HETATM    9  C   UNL     1     -11.063   7.883  70.594  1.00  0.00    -0.259 C  
HETATM   10  O   UNL     1     -11.223   9.019  70.181  1.00  0.00    -0.239 OA 
ENDBRANCH   2   3
TORSDOF 1
ENDMDL
MODEL      136
REMARK 921   NORMALIZED FREE ENERGY PREDICTED BY IDOCK:   -2.38 KCAL/MOL
REMARK 922        TOTAL FREE ENERGY PREDICTED BY IDOCK:   -2.56 KCAL/MOL
REMARK 923 INTER-LIGAND FREE ENERGY PREDICTED BY IDOCK:   -2.53 KCAL/MOL
REMARK 924 INTRA-LIGAND FREE ENERGY PREDICTED BY IDOCK:   -0.02 KCAL/MOL
REMARK 927      BINDING AFFINITY PREDICTED BY RF-SCORE:    0.00 PKD
ROOT
HETATM    1  C   UNL     1     -10.514  10.224  68.415  1.00  0.00    -0.228 C  
HETATM    2  C   UNL     1     -10.263   8.774  68.013  1.00  0.00    -0.264 C  
ENDROOT
BRANCH   2   3
HETATM    3  C   UNL     1     -10.172   7.762  69.167  1.00  0.00    -0.210 C  
HETATM    4  C   UNL     1      -8.692   7.563  69.550  1.00  0.00    -0.137 C  
HETATM    5  C   UNL     1     -10.980   8.132  70.422  1.00  0.00    -0.248 C  
HETATM    6  C   UNL     1     -11.498   6.804  70.904  1.00  0.00    -0.334 C  
HETATM    7  O   UNL     1     -12.008   6.593  71.991  1.00  0.00    -0.311 OA 
HETATM    8  N   UNL     1     -11.351   5.893  69.910  1.00  0.00    -0.285 NA 
HETATM    9  C   UNL     1     -10.732   6.398  68.811  1.00  0.00    -0.287 C  
HETATM   10  O   UNL     1     -10.595   5.811  67.751  1.00  0.00    -0.231 OA 
ENDBRANCH   2   3
TORSDOF 1
ENDMDL
MODEL      137
REMARK 921   NORMALIZED FREE ENERGY PREDICTED BY IDOCK:   -2.37 KCAL/MOL
REMARK 922        TOTAL FREE ENERGY PREDICTED BY IDOCK:   -2.54 KCAL/MOL
REMARK 923 INTER-LIGAND FREE ENERGY PREDICTED BY IDOCK:   -2.46 KCAL/MOL
REMARK 924 INTRA-LIGAND FREE ENERGY PREDICTED BY IDOCK:   -0.08 KCAL/MOL
REMARK 927      BINDING AFFINITY PREDICTED BY RF-SCORE:    0.00 PKD
ROOT
HETATM    1  C   UNL     1      -8.209   8.736  66.922  1.00  0.00    -0.108 C  
HETATM    2  C   UNL     1      -8.737   9.600  65.781  1.00  0.00    -0.168 C  
ENDROOT
BRANCH   2   3
HETATM    3  C   UNL     1      -9.892  10.551  66.136  1.00  0.00    -0.271 C  
HETATM    4  C   UNL     1     -10.588  11.008  64.839  1.00  0.00    -0.328 C  
HETATM    5  C   UNL     1     -10.938   9.972  67.102  1.00  0.00    -0.177 C  
HETATM    6  C   UNL     1     -11.307  11.150  67.961  1.00  0.00    -0.312 C  
HETATM    7  O   UNL     1     -12.258  11.206  68.720  1.00  0.00    -0.555 OA 
HETATM    8  N   UNL     1     -10.375  12.122  67.789  1.00  0.00    -0.202 NA 
HETATM    9  C   UNL     1      -9.433  11.800  66.865  1.00  0.00    -0.193 C  
HETATM   10  O   UNL     1      -8.433  12.455  66.626  1.00  0.00    -0.143 OA 
ENDBRANCH   2   3
TORSDOF 1
ENDMDL
MODEL      138
REMARK 921   NORMALIZED FREE ENERGY PREDICTED BY IDOCK:   -2.35 KCAL/MOL
REMARK 922        TOTAL FREE ENERGY PREDICTED BY IDOCK:   -2.52 KCAL/MOL
REMARK 923 INTER-LIGAND FREE ENERGY PREDICTED BY IDOCK:   -2.45 KCAL/MOL
REMARK 924 INTRA-LIGAND FREE ENERGY PREDICTED BY IDOCK:   -0.07 KCAL/MOL
REMARK 927      BINDING AFFINITY PREDICTED BY RF-SCORE:    0.00 PKD
ROOT
HETATM    1  C   UNL     1      -9.011  17.138  66.895  1.00  0.00    -0.253 C  
HETATM    2  C   UNL     1     -10.438  16.652  67.122  1.00  0.00    -0.300 C  
ENDROOT
BRANCH   2   3
HETATM    3  C   UNL     1     -10.640  15.128  67.101  1.00  0.00    -0.295 C  
HETATM    4  C   UNL     1     -12.087  14.815  66.670  1.00  0.00    -0.117 C  
HETATM    5  C   UNL     1      -9.660  14.353  66.205  1.00  0.00    -0.321 C  
HETATM    6  C   UNL     1      -9.400  13.093  66.984  1.00  0.00    -0.238 C  
HETATM    7  O   UNL     1      -8.851  12.093  66.555  1.00  0.00    -0.204 OA 
HETATM    8  N   UNL     1      -9.831  13.273  68.258  1.00  0.00    -0.230 NA 
HETATM    9  C   UNL     1     -10.425  14.479  68.455  1.00  0.00    -0.250 C  
HETATM   10  O   UNL     1     -10.781  14.916  69.536  1.00  0.00    -0.245 OA 
ENDBRANCH   2   3
TORSDOF 1
ENDMDL
MODEL      139
REMARK 921   NORMALIZED FREE ENERGY PREDICTED BY IDOCK:   -2.33 KCAL/MOL
REMARK 922        TOTAL FREE ENERGY PREDICTED BY IDOCK:   -2.50 KCAL/MOL
REMARK 923 INTER-LIGAND FREE ENERGY PREDICTED BY IDOCK:   -2.43 KCAL/MOL
REMARK 924 INTRA-LIGAND FREE ENERGY PREDICTED BY IDOCK:   -0.07 KCAL/MOL
REMARK 927      BINDING AFFINITY PREDICTED BY RF-SCORE:    0.00 PKD
ROOT
HETATM    1  C   UNL     1      -9.650   7.417  66.662  1.00  0.00    -0.251 C  
HETATM    2  C   UNL     1      -8.753   8.199  67.616  1.00  0.00    -0.130 C  
ENDROOT
BRANCH   2   3
HETATM    3  C   UNL     1      -9.340   9.506  68.174  1.00  0.00    -0.141 C  
HETATM    4  C   UNL     1      -8.190  10.474  68.512  1.00  0.00    -0.123 C  
HETATM    5  C   UNL     1     -10.350  10.211  67.253  1.00  0.00    -0.291 C  
HETATM    6  C   UNL     1     -11.370  10.759  68.213  1.00  0.00    -0.309 C  
HETATM    7  O   UNL     1     -12.234  11.574  67.941  1.00  0.00    -0.586 OA 
HETATM    8  N   UNL     1     -11.202  10.158  69.417  1.00  0.00    -0.230 NA 
HETATM    9  C   UNL     1     -10.146   9.303  69.444  1.00  0.00    -0.197 C  
HETATM   10  O   UNL     1      -9.868   8.560  70.370  1.00  0.00    -0.174 OA 
ENDBRANCH   2   3
TORSDOF 1
ENDMDL
MODEL      140
REMARK 921   NORMALIZED FREE ENERGY PREDICTED BY IDOCK:   -2.32 KCAL/MOL
REMARK 922        TOTAL FREE ENERGY PREDICTED BY IDOCK:   -2.49 KCAL/MOL
REMARK 923 INTER-LIGAND FREE ENERGY PREDICTED BY IDOCK:   -2.47 KCAL/MOL
REMARK 924 INTRA-LIGAND FREE ENERGY PREDICTED BY IDOCK:   -0.02 KCAL/MOL
REMARK 927      BINDING AFFINITY PREDICTED BY RF-SCORE:    0.00 PKD
ROOT
HETATM    1  C   UNL     1      -9.217  10.124  68.772  1.00  0.00    -0.164 C  
HETATM    2  C   UNL     1      -8.757  10.633  67.410  1.00  0.00    -0.125 C  
ENDROOT
BRANCH   2   3
HETATM    3  C   UNL     1      -9.640  10.243  66.213  1.00  0.00    -0.238 C  
HETATM    4  C   UNL     1     -10.397   8.942  66.545  1.00  0.00    -0.267 C  
HETATM    5  C   UNL     1     -10.643  11.319  65.765  1.00  0.00    -0.306 C  
HETATM    6  C   UNL     1     -10.650  11.184  64.267  1.00  0.00    -0.357 C  
HETATM    7  O   UNL     1     -11.461  11.691  63.512  1.00  0.00    -0.422 OA 
HETATM    8  N   UNL     1      -9.574  10.448  63.891  1.00  0.00    -0.298 NA 
HETATM    9  C   UNL     1      -8.847   9.990  64.944  1.00  0.00    -0.192 C  
HETATM   10  O   UNL     1      -7.777   9.412  64.859  1.00  0.00    -0.105 OA 
ENDBRANCH   2   3
TORSDOF 1
ENDMDL
MODEL      141
REMARK 921   NORMALIZED FREE ENERGY PREDICTED BY IDOCK:   -2.32 KCAL/MOL
REMARK 922        TOTAL FREE ENERGY PREDICTED BY IDOCK:   -2.49 KCAL/MOL
REMARK 923 INTER-LIGAND FREE ENERGY PREDICTED BY IDOCK:   -2.45 KCAL/MOL
REMARK 924 INTRA-LIGAND FREE ENERGY PREDICTED BY IDOCK:   -0.04 KCAL/MOL
REMARK 927      BINDING AFFINITY PREDICTED BY RF-SCORE:    0.00 PKD
ROOT
HETATM    1  C   UNL     1     -10.262   5.405  66.872  1.00  0.00    -0.279 C  
HETATM    2  C   UNL     1     -11.009   6.300  67.856  1.00  0.00    -0.421 C  
ENDROOT
BRANCH   2   3
HETATM    3  C   UNL     1     -10.192   6.809  69.055  1.00  0.00    -0.191 C  
HETATM    4  C   UNL     1      -8.696   6.814  68.683  1.00  0.00    -0.125 C  
HETATM    5  C   UNL     1     -10.595   8.200  69.574  1.00  0.00    -0.215 C  
HETATM    6  C   UNL     1     -10.436   8.073  71.064  1.00  0.00    -0.203 C  
HETATM    7  O   UNL     1     -10.439   8.995  71.859  1.00  0.00    -0.343 OA 
HETATM    8  N   UNL     1     -10.341   6.757  71.381  1.00  0.00    -0.202 NA 
HETATM    9  C   UNL     1     -10.345   5.944  70.292  1.00  0.00    -0.235 C  
HETATM   10  O   UNL     1     -10.391   4.726  70.326  1.00  0.00    -0.234 OA 
ENDBRANCH   2   3
TORSDOF 1
ENDMDL
MODEL      142
REMARK 921   NORMALIZED FREE ENERGY PREDICTED BY IDOCK:   -2.29 KCAL/MOL
REMARK 922        TOTAL FREE ENERGY PREDICTED BY IDOCK:   -2.46 KCAL/MOL
REMARK 923 INTER-LIGAND FREE ENERGY PREDICTED BY IDOCK:   -2.44 KCAL/MOL
REMARK 924 INTRA-LIGAND FREE ENERGY PREDICTED BY IDOCK:   -0.01 KCAL/MOL
REMARK 927      BINDING AFFINITY PREDICTED BY RF-SCORE:    0.00 PKD
ROOT
HETATM    1  C   UNL     1      -8.102   6.580  71.057  1.00  0.00    -0.120 C  
HETATM    2  C   UNL     1      -8.603   7.576  70.016  1.00  0.00    -0.139 C  
ENDROOT
BRANCH   2   3
HETATM    3  C   UNL     1     -10.091   7.952  70.106  1.00  0.00    -0.194 C  
HETATM    4  C   UNL     1     -10.947   6.707  69.800  1.00  0.00    -0.367 C  
HETATM    5  C   UNL     1     -10.529   8.557  71.450  1.00  0.00    -0.305 C  
HETATM    6  C   UNL     1     -11.534   9.601  71.049  1.00  0.00    -0.371 C  
HETATM    7  O   UNL     1     -12.298  10.179  71.802  1.00  0.00    -0.388 OA 
HETATM    8  N   UNL     1     -11.414   9.832  69.717  1.00  0.00    -0.156 NA 
HETATM    9  C   UNL     1     -10.495   9.029  69.118  1.00  0.00    -0.225 C  
HETATM   10  O   UNL     1     -10.126   9.129  67.960  1.00  0.00    -0.176 OA 
ENDBRANCH   2   3
TORSDOF 1
ENDMDL
MODEL      143
REMARK 921   NORMALIZED FREE ENERGY PREDICTED BY IDOCK:   -2.29 KCAL/MOL
REMARK 922        TOTAL FREE ENERGY PREDICTED BY IDOCK:   -2.46 KCAL/MOL
REMARK 923 INTER-LIGAND FREE ENERGY PREDICTED BY IDOCK:   -2.39 KCAL/MOL
REMARK 924 INTRA-LIGAND FREE ENERGY PREDICTED BY IDOCK:   -0.07 KCAL/MOL
REMARK 927      BINDING AFFINITY PREDICTED BY RF-SCORE:    0.00 PKD
ROOT
HETATM    1  C   UNL     1     -10.183  11.530  64.314  1.00  0.00    -0.361 C  
HETATM    2  C   UNL     1     -11.015  12.154  65.429  1.00  0.00    -0.346 C  
ENDROOT
BRANCH   2   3
HETATM    3  C   UNL     1     -10.516  11.903  66.862  1.00  0.00    -0.253 C  
HETATM    4  C   UNL     1     -11.459  12.606  67.858  1.00  0.00    -0.360 C  
HETATM    5  C   UNL     1     -10.372  10.422  67.251  1.00  0.00    -0.278 C  
HETATM    6  C   UNL     1      -9.139  10.408  68.111  1.00  0.00    -0.142 C  
HETATM    7  O   UNL     1      -8.774   9.482  68.814  1.00  0.00    -0.124 OA 
HETATM    8  N   UNL     1      -8.472  11.576  67.935  1.00  0.00    -0.136 NA 
HETATM    9  C   UNL     1      -9.119  12.440  67.110  1.00  0.00    -0.199 C  
HETATM   10  O   UNL     1      -8.664  13.497  66.706  1.00  0.00    -0.188 OA 
ENDBRANCH   2   3
TORSDOF 1
ENDMDL
MODEL      144
REMARK 921   NORMALIZED FREE ENERGY PREDICTED BY IDOCK:   -2.27 KCAL/MOL
REMARK 922        TOTAL FREE ENERGY PREDICTED BY IDOCK:   -2.44 KCAL/MOL
REMARK 923 INTER-LIGAND FREE ENERGY PREDICTED BY IDOCK:   -2.41 KCAL/MOL
REMARK 924 INTRA-LIGAND FREE ENERGY PREDICTED BY IDOCK:   -0.03 KCAL/MOL
REMARK 927      BINDING AFFINITY PREDICTED BY RF-SCORE:    0.00 PKD
ROOT
HETATM    1  C   UNL     1     -10.600   7.161  68.626  1.00  0.00    -0.217 C  
HETATM    2  C   UNL     1     -11.099   6.074  69.573  1.00  0.00    -0.468 C  
ENDROOT
BRANCH   2   3
HETATM    3  C   UNL     1     -10.272   5.864  70.852  1.00  0.00    -0.269 C  
HETATM    4  C   UNL     1      -8.954   6.656  70.738  1.00  0.00    -0.151 C  
HETATM    5  C   UNL     1     -10.986   6.245  72.160  1.00  0.00    -0.298 C  
HETATM    6  C   UNL     1     -10.513   5.198  73.130  1.00  0.00    -0.211 C  
HETATM    7  O   UNL     1     -10.655   5.235  74.340  1.00  0.00    -0.272 OA 
HETATM    8  N   UNL     1      -9.949   4.180  72.432  1.00  0.00    -0.160 NA 
HETATM    9  C   UNL     1      -9.905   4.413  71.094  1.00  0.00    -0.188 C  
HETATM   10  O   UNL     1      -9.556   3.601  70.253  1.00  0.00    -0.177 OA 
ENDBRANCH   2   3
TORSDOF 1
ENDMDL
MODEL      145
REMARK 921   NORMALIZED FREE ENERGY PREDICTED BY IDOCK:   -2.24 KCAL/MOL
REMARK 922        TOTAL FREE ENERGY PREDICTED BY IDOCK:   -2.40 KCAL/MOL
REMARK 923 INTER-LIGAND FREE ENERGY PREDICTED BY IDOCK:   -2.38 KCAL/MOL
REMARK 924 INTRA-LIGAND FREE ENERGY PREDICTED BY IDOCK:   -0.02 KCAL/MOL
REMARK 927      BINDING AFFINITY PREDICTED BY RF-SCORE:    0.00 PKD
ROOT
HETATM    1  C   UNL     1      -9.556  12.019  66.115  1.00  0.00    -0.252 C  
HETATM    2  C   UNL     1      -9.198  12.531  67.506  1.00  0.00    -0.188 C  
ENDROOT
BRANCH   2   3
HETATM    3  C   UNL     1      -9.478  14.020  67.767  1.00  0.00    -0.209 C  
HETATM    4  C   UNL     1      -9.469  14.780  66.426  1.00  0.00    -0.328 C  
HETATM    5  C   UNL     1     -10.790  14.315  68.513  1.00  0.00    -0.264 C  
HETATM    6  C   UNL     1     -10.430  15.470  69.406  1.00  0.00    -0.253 C  
HETATM    7  O   UNL     1     -11.219  16.169  70.017  1.00  0.00    -0.334 OA 
HETATM    8  N   UNL     1      -9.078  15.572  69.461  1.00  0.00    -0.281 NA 
HETATM    9  C   UNL     1      -8.443  14.675  68.662  1.00  0.00    -0.164 C  
HETATM   10  O   UNL     1      -7.237  14.493  68.632  1.00  0.00    -0.110 OA 
ENDBRANCH   2   3
TORSDOF 1
ENDMDL
MODEL      146
REMARK 921   NORMALIZED FREE ENERGY PREDICTED BY IDOCK:   -2.23 KCAL/MOL
REMARK 922        TOTAL FREE ENERGY PREDICTED BY IDOCK:   -2.40 KCAL/MOL
REMARK 923 INTER-LIGAND FREE ENERGY PREDICTED BY IDOCK:   -2.31 KCAL/MOL
REMARK 924 INTRA-LIGAND FREE ENERGY PREDICTED BY IDOCK:   -0.09 KCAL/MOL
REMARK 927      BINDING AFFINITY PREDICTED BY RF-SCORE:    0.00 PKD
ROOT
HETATM    1  C   UNL     1     -10.101   9.640  65.756  1.00  0.00    -0.274 C  
HETATM    2  C   UNL     1      -9.848   9.632  67.260  1.00  0.00    -0.225 C  
ENDROOT
BRANCH   2   3
HETATM    3  C   UNL     1      -9.922  10.999  67.962  1.00  0.00    -0.188 C  
HETATM    4  C   UNL     1      -9.493  10.836  69.433  1.00  0.00    -0.037 C  
HETATM    5  C   UNL     1      -9.089  12.113  67.306  1.00  0.00    -0.181 C  
HETATM    6  C   UNL     1      -9.949  13.335  67.476  1.00  0.00    -0.223 C  
HETATM    7  O   UNL     1      -9.591  14.485  67.298  1.00  0.00    -0.217 OA 
HETATM    8  N   UNL     1     -11.204  12.940  67.810  1.00  0.00    -0.265 NA 
HETATM    9  C   UNL     1     -11.317  11.595  67.963  1.00  0.00    -0.296 C  
HETATM   10  O   UNL     1     -12.363  10.995  68.143  1.00  0.00    -0.402 OA 
ENDBRANCH   2   3
TORSDOF 1
ENDMDL
MODEL      147
REMARK 921   NORMALIZED FREE ENERGY PREDICTED BY IDOCK:   -2.22 KCAL/MOL
REMARK 922        TOTAL FREE ENERGY PREDICTED BY IDOCK:   -2.39 KCAL/MOL
REMARK 923 INTER-LIGAND FREE ENERGY PREDICTED BY IDOCK:   -2.30 KCAL/MOL
REMARK 924 INTRA-LIGAND FREE ENERGY PREDICTED BY IDOCK:   -0.09 KCAL/MOL
REMARK 927      BINDING AFFINITY PREDICTED BY RF-SCORE:    0.00 PKD
ROOT
HETATM    1  C   UNL     1      -7.948   8.826  71.257  1.00  0.00    -0.176 C  
HETATM    2  C   UNL     1      -7.989   8.150  72.623  1.00  0.00    -0.199 C  
ENDROOT
BRANCH   2   3
HETATM    3  C   UNL     1      -9.281   7.386  72.957  1.00  0.00    -0.211 C  
HETATM    4  C   UNL     1      -9.251   6.966  74.440  1.00  0.00    -0.244 C  
HETATM    5  C   UNL     1     -10.583   8.152  72.668  1.00  0.00    -0.414 C  
HETATM    6  C   UNL     1     -11.512   7.080  72.169  1.00  0.00    -0.274 C  
HETATM    7  O   UNL     1     -12.716   7.194  72.025  1.00  0.00    -0.279 OA 
HETATM    8  N   UNL     1     -10.779   5.982  71.854  1.00  0.00    -0.225 NA 
HETATM    9  C   UNL     1      -9.458   6.124  72.135  1.00  0.00    -0.151 C  
HETATM   10  O   UNL     1      -8.586   5.326  71.832  1.00  0.00    -0.127 OA 
ENDBRANCH   2   3
TORSDOF 1
ENDMDL
MODEL      148
REMARK 921   NORMALIZED FREE ENERGY PREDICTED BY IDOCK:   -2.21 KCAL/MOL
REMARK 922        TOTAL FREE ENERGY PREDICTED BY IDOCK:   -2.37 KCAL/MOL
REMARK 923 INTER-LIGAND FREE ENERGY PREDICTED BY IDOCK:   -2.54 KCAL/MOL
REMARK 924 INTRA-LIGAND FREE ENERGY PREDICTED BY IDOCK:    0.17 KCAL/MOL
REMARK 927      BINDING AFFINITY PREDICTED BY RF-SCORE:    0.00 PKD
ROOT
HETATM    1  C   UNL     1     -10.421  10.349  67.176  1.00  0.00    -0.311 C  
HETATM    2  C   UNL     1     -10.746   9.281  68.216  1.00  0.00    -0.195 C  
ENDROOT
BRANCH   2   3
HETATM    3  C   UNL     1     -10.499   9.674  69.682  1.00  0.00    -0.246 C  
HETATM    4  C   UNL     1     -11.163  11.037  69.960  1.00  0.00    -0.303 C  
HETATM    5  C   UNL     1     -10.981   8.648  70.721  1.00  0.00    -0.286 C  
HETATM    6  C   UNL     1      -9.924   8.712  71.788  1.00  0.00    -0.301 C  
HETATM    7  O   UNL     1     -10.008   8.226  72.902  1.00  0.00    -0.284 OA 
HETATM    8  N   UNL     1      -8.839   9.356  71.288  1.00  0.00    -0.258 NA 
HETATM    9  C   UNL     1      -9.027   9.813  70.022  1.00  0.00    -0.222 C  
HETATM   10  O   UNL     1      -8.163  10.313  69.322  1.00  0.00    -0.138 OA 
ENDBRANCH   2   3
TORSDOF 1
ENDMDL
MODEL      149
REMARK 921   NORMALIZED FREE ENERGY PREDICTED BY IDOCK:   -2.20 KCAL/MOL
REMARK 922        TOTAL FREE ENERGY PREDICTED BY IDOCK:   -2.37 KCAL/MOL
REMARK 923 INTER-LIGAND FREE ENERGY PREDICTED BY IDOCK:   -2.33 KCAL/MOL
REMARK 924 INTRA-LIGAND FREE ENERGY PREDICTED BY IDOCK:   -0.04 KCAL/MOL
REMARK 927      BINDING AFFINITY PREDICTED BY RF-SCORE:    0.00 PKD
ROOT
HETATM    1  C   UNL     1      -7.128  13.495  68.707  1.00  0.00    -0.103 C  
HETATM    2  C   UNL     1      -7.973  13.666  67.449  1.00  0.00    -0.177 C  
ENDROOT
BRANCH   2   3
HETATM    3  C   UNL     1      -9.219  12.770  67.350  1.00  0.00    -0.193 C  
HETATM    4  C   UNL     1      -9.408  12.016  68.681  1.00  0.00    -0.056 C  
HETATM    5  C   UNL     1     -10.521  13.504  66.987  1.00  0.00    -0.265 C  
HETATM    6  C   UNL     1     -11.233  12.526  66.094  1.00  0.00    -0.321 C  
HETATM    7  O   UNL     1     -12.399  12.599  65.747  1.00  0.00    -0.594 OA 
HETATM    8  N   UNL     1     -10.349  11.577  65.695  1.00  0.00    -0.251 NA 
HETATM    9  C   UNL     1      -9.119  11.727  66.253  1.00  0.00    -0.206 C  
HETATM   10  O   UNL     1      -8.131  11.075  65.958  1.00  0.00    -0.159 OA 
ENDBRANCH   2   3
TORSDOF 1
ENDMDL
MODEL      150
REMARK 921   NORMALIZED FREE ENERGY PREDICTED BY IDOCK:   -2.20 KCAL/MOL
REMARK 922        TOTAL FREE ENERGY PREDICTED BY IDOCK:   -2.37 KCAL/MOL
REMARK 923 INTER-LIGAND FREE ENERGY PREDICTED BY IDOCK:   -2.35 KCAL/MOL
REMARK 924 INTRA-LIGAND FREE ENERGY PREDICTED BY IDOCK:   -0.01 KCAL/MOL
REMARK 927      BINDING AFFINITY PREDICTED BY RF-SCORE:    0.00 PKD
ROOT
HETATM    1  C   UNL     1     -10.894   5.821  69.269  1.00  0.00    -0.374 C  
HETATM    2  C   UNL     1     -10.735   7.158  68.553  1.00  0.00    -0.191 C  
ENDROOT
BRANCH   2   3
HETATM    3  C   UNL     1     -10.348   8.354  69.438  1.00  0.00    -0.217 C  
HETATM    4  C   UNL     1     -11.365   8.481  70.589  1.00  0.00    -0.265 C  
HETATM    5  C   UNL     1      -8.924   8.302  70.016  1.00  0.00    -0.142 C  
HETATM    6  C   UNL     1      -8.481   9.739  69.974  1.00  0.00    -0.206 C  
HETATM    7  O   UNL     1      -7.500  10.196  70.533  1.00  0.00    -0.281 OA 
HETATM    8  N   UNL     1      -9.324  10.431  69.167  1.00  0.00    -0.196 NA 
HETATM    9  C   UNL     1     -10.347   9.674  68.691  1.00  0.00    -0.203 C  
HETATM   10  O   UNL     1     -11.160  10.038  67.857  1.00  0.00    -0.275 OA 
ENDBRANCH   2   3
TORSDOF 1
ENDMDL
MODEL      151
REMARK 921   NORMALIZED FREE ENERGY PREDICTED BY IDOCK:   -2.19 KCAL/MOL
REMARK 922        TOTAL FREE ENERGY PREDICTED BY IDOCK:   -2.36 KCAL/MOL
REMARK 923 INTER-LIGAND FREE ENERGY PREDICTED BY IDOCK:   -2.33 KCAL/MOL
REMARK 924 INTRA-LIGAND FREE ENERGY PREDICTED BY IDOCK:   -0.03 KCAL/MOL
REMARK 927      BINDING AFFINITY PREDICTED BY RF-SCORE:    0.00 PKD
ROOT
HETATM    1  C   UNL     1     -10.401   5.204  66.124  1.00  0.00    -0.280 C  
HETATM    2  C   UNL     1     -11.076   6.266  66.985  1.00  0.00    -0.379 C  
ENDROOT
BRANCH   2   3
HETATM    3  C   UNL     1     -10.136   7.260  67.687  1.00  0.00    -0.232 C  
HETATM    4  C   UNL     1      -8.682   6.768  67.544  1.00  0.00    -0.119 C  
HETATM    5  C   UNL     1     -10.236   8.712  67.192  1.00  0.00    -0.353 C  
HETATM    6  C   UNL     1     -10.058   9.520  68.448  1.00  0.00    -0.175 C  
HETATM    7  O   UNL     1      -9.851  10.719  68.498  1.00  0.00    -0.163 OA 
HETATM    8  N   UNL     1     -10.218   8.701  69.518  1.00  0.00    -0.204 NA 
HETATM    9  C   UNL     1     -10.418   7.403  69.171  1.00  0.00    -0.213 C  
HETATM   10  O   UNL     1     -10.705   6.506  69.946  1.00  0.00    -0.215 OA 
ENDBRANCH   2   3
TORSDOF 1
ENDMDL
MODEL      152
REMARK 921   NORMALIZED FREE ENERGY PREDICTED BY IDOCK:   -2.19 KCAL/MOL
REMARK 922        TOTAL FREE ENERGY PREDICTED BY IDOCK:   -2.35 KCAL/MOL
REMARK 923 INTER-LIGAND FREE ENERGY PREDICTED BY IDOCK:   -2.35 KCAL/MOL
REMARK 924 INTRA-LIGAND FREE ENERGY PREDICTED BY IDOCK:   -0.00 KCAL/MOL
REMARK 927      BINDING AFFINITY PREDICTED BY RF-SCORE:    0.00 PKD
ROOT
HETATM    1  C   UNL     1     -11.885   6.378  71.614  1.00  0.00    -0.361 C  
HETATM    2  C   UNL     1     -11.872   7.649  70.772  1.00  0.00    -0.227 C  
ENDROOT
BRANCH   2   3
HETATM    3  C   UNL     1     -10.492   8.282  70.530  1.00  0.00    -0.225 C  
HETATM    4  C   UNL     1     -10.624   9.393  69.470  1.00  0.00    -0.237 C  
HETATM    5  C   UNL     1      -9.807   8.848  71.784  1.00  0.00    -0.386 C  
HETATM    6  C   UNL     1      -8.355   8.524  71.562  1.00  0.00    -0.162 C  
HETATM    7  O   UNL     1      -7.421   8.976  72.200  1.00  0.00    -0.339 OA 
HETATM    8  N   UNL     1      -8.262   7.604  70.569  1.00  0.00    -0.119 NA 
HETATM    9  C   UNL     1      -9.463   7.292  70.017  1.00  0.00    -0.161 C  
HETATM   10  O   UNL     1      -9.650   6.409  69.196  1.00  0.00    -0.137 OA 
ENDBRANCH   2   3
TORSDOF 1
ENDMDL
MODEL      153
REMARK 921   NORMALIZED FREE ENERGY PREDICTED BY IDOCK:   -2.18 KCAL/MOL
REMARK 922        TOTAL FREE ENERGY PREDICTED BY IDOCK:   -2.34 KCAL/MOL
REMARK 923 INTER-LIGAND FREE ENERGY PREDICTED BY IDOCK:   -2.33 KCAL/MOL
REMARK 924 INTRA-LIGAND FREE ENERGY PREDICTED BY IDOCK:   -0.01 KCAL/MOL
REMARK 927      BINDING AFFINITY PREDICTED BY RF-SCORE:    0.00 PKD
ROOT
HETATM    1  C   UNL     1     -10.294   7.695  70.225  1.00  0.00    -0.214 C  
HETATM    2  C   UNL     1      -9.417   8.395  69.192  1.00  0.00    -0.155 C  
ENDROOT
BRANCH   2   3
HETATM    3  C   UNL     1     -10.148   8.964  67.964  1.00  0.00    -0.239 C  
HETATM    4  C   UNL     1     -10.804   7.808  67.185  1.00  0.00    -0.227 C  
HETATM    5  C   UNL     1     -11.205  10.037  68.276  1.00  0.00    -0.195 C  
HETATM    6  C   UNL     1     -11.065  11.003  67.132  1.00  0.00    -0.267 C  
HETATM    7  O   UNL     1     -11.850  11.893  66.854  1.00  0.00    -0.590 OA 
HETATM    8  N   UNL     1      -9.894  10.755  66.493  1.00  0.00    -0.196 NA 
HETATM    9  C   UNL     1      -9.225   9.689  67.003  1.00  0.00    -0.142 C  
HETATM   10  O   UNL     1      -8.100   9.346  66.677  1.00  0.00    -0.107 OA 
ENDBRANCH   2   3
TORSDOF 1
ENDMDL
MODEL      154
REMARK 921   NORMALIZED FREE ENERGY PREDICTED BY IDOCK:   -2.18 KCAL/MOL
REMARK 922        TOTAL FREE ENERGY PREDICTED BY IDOCK:   -2.34 KCAL/MOL
REMARK 923 INTER-LIGAND FREE ENERGY PREDICTED BY IDOCK:   -2.26 KCAL/MOL
REMARK 924 INTRA-LIGAND FREE ENERGY PREDICTED BY IDOCK:   -0.09 KCAL/MOL
REMARK 927      BINDING AFFINITY PREDICTED BY RF-SCORE:    0.00 PKD
ROOT
HETATM    1  C   UNL     1     -11.042   5.978  71.014  1.00  0.00    -0.348 C  
HETATM    2  C   UNL     1     -11.156   6.103  69.498  1.00  0.00    -0.490 C  
ENDROOT
BRANCH   2   3
HETATM    3  C   UNL     1     -10.278   7.184  68.845  1.00  0.00    -0.188 C  
HETATM    4  C   UNL     1     -10.724   7.382  67.383  1.00  0.00    -0.348 C  
HETATM    5  C   UNL     1     -10.272   8.542  69.567  1.00  0.00    -0.206 C  
HETATM    6  C   UNL     1      -8.850   9.009  69.414  1.00  0.00    -0.144 C  
HETATM    7  O   UNL     1      -8.444  10.134  69.645  1.00  0.00    -0.172 OA 
HETATM    8  N   UNL     1      -8.086   7.957  69.027  1.00  0.00    -0.122 NA 
HETATM    9  C   UNL     1      -8.805   6.822  68.821  1.00  0.00    -0.131 C  
HETATM   10  O   UNL     1      -8.330   5.724  68.587  1.00  0.00    -0.106 OA 
ENDBRANCH   2   3
TORSDOF 1
ENDMDL
MODEL      155
REMARK 921   NORMALIZED FREE ENERGY PREDICTED BY IDOCK:   -2.17 KCAL/MOL
REMARK 922        TOTAL FREE ENERGY PREDICTED BY IDOCK:   -2.34 KCAL/MOL
REMARK 923 INTER-LIGAND FREE ENERGY PREDICTED BY IDOCK:   -2.25 KCAL/MOL
REMARK 924 INTRA-LIGAND FREE ENERGY PREDICTED BY IDOCK:   -0.08 KCAL/MOL
REMARK 927      BINDING AFFINITY PREDICTED BY RF-SCORE:    0.00 PKD
ROOT
HETATM    1  C   UNL     1      -9.910   5.337  67.102  1.00  0.00    -0.184 C  
HETATM    2  C   UNL     1     -10.934   6.072  67.961  1.00  0.00    -0.340 C  
ENDROOT
BRANCH   2   3
HETATM    3  C   UNL     1     -10.556   6.265  69.439  1.00  0.00    -0.330 C  
HETATM    4  C   UNL     1     -11.825   6.607  70.245  1.00  0.00    -0.378 C  
HETATM    5  C   UNL     1      -9.842   5.069  70.090  1.00  0.00    -0.303 C  
HETATM    6  C   UNL     1      -8.838   5.719  71.002  1.00  0.00    -0.138 C  
HETATM    7  O   UNL     1      -8.202   5.156  71.875  1.00  0.00    -0.113 OA 
HETATM    8  N   UNL     1      -8.719   7.026  70.657  1.00  0.00    -0.148 NA 
HETATM    9  C   UNL     1      -9.566   7.393  69.659  1.00  0.00    -0.156 C  
HETATM   10  O   UNL     1      -9.561   8.477  69.099  1.00  0.00    -0.164 OA 
ENDBRANCH   2   3
TORSDOF 1
ENDMDL
MODEL      156
REMARK 921   NORMALIZED FREE ENERGY PREDICTED BY IDOCK:   -2.16 KCAL/MOL
REMARK 922        TOTAL FREE ENERGY PREDICTED BY IDOCK:   -2.32 KCAL/MOL
REMARK 923 INTER-LIGAND FREE ENERGY PREDICTED BY IDOCK:   -2.27 KCAL/MOL
REMARK 924 INTRA-LIGAND FREE ENERGY PREDICTED BY IDOCK:   -0.05 KCAL/MOL
REMARK 927      BINDING AFFINITY PREDICTED BY RF-SCORE:    0.00 PKD
ROOT
HETATM    1  C   UNL     1      -9.681   9.968  64.978  1.00  0.00    -0.386 C  
HETATM    2  C   UNL     1      -9.532   8.858  66.014  1.00  0.00    -0.320 C  
ENDROOT
BRANCH   2   3
HETATM    3  C   UNL     1     -10.062   9.177  67.422  1.00  0.00    -0.289 C  
HETATM    4  C   UNL     1     -11.033  10.371  67.339  1.00  0.00    -0.335 C  
HETATM    5  C   UNL     1     -10.752   8.005  68.139  1.00  0.00    -0.093 C  
HETATM    6  C   UNL     1     -10.332   8.180  69.572  1.00  0.00    -0.222 C  
HETATM    7  O   UNL     1     -10.818   7.604  70.530  1.00  0.00    -0.232 OA 
HETATM    8  N   UNL     1      -9.289   9.046  69.618  1.00  0.00    -0.161 NA 
HETATM    9  C   UNL     1      -8.966   9.556  68.400  1.00  0.00    -0.127 C  
HETATM   10  O   UNL     1      -7.995  10.257  68.169  1.00  0.00    -0.106 OA 
ENDBRANCH   2   3
TORSDOF 1
ENDMDL
MODEL      157
REMARK 921   NORMALIZED FREE ENERGY PREDICTED BY IDOCK:   -2.14 KCAL/MOL
REMARK 922        TOTAL FREE ENERGY PREDICTED BY IDOCK:   -2.30 KCAL/MOL
REMARK 923 INTER-LIGAND FREE ENERGY PREDICTED BY IDOCK:   -2.28 KCAL/MOL
REMARK 924 INTRA-LIGAND FREE ENERGY PREDICTED BY IDOCK:   -0.01 KCAL/MOL
REMARK 927      BINDING AFFINITY PREDICTED BY RF-SCORE:    0.00 PKD
ROOT
HETATM    1  C   UNL     1      -8.277   7.788  66.031  1.00  0.00    -0.123 C  
HETATM    2  C   UNL     1      -8.905   9.052  66.607  1.00  0.00    -0.152 C  
ENDROOT
BRANCH   2   3
HETATM    3  C   UNL     1      -9.891   8.844  67.769  1.00  0.00    -0.208 C  
HETATM    4  C   UNL     1     -10.733   7.582  67.499  1.00  0.00    -0.296 C  
HETATM    5  C   UNL     1      -9.244   8.740  69.161  1.00  0.00    -0.149 C  
HETATM    6  C   UNL     1     -10.223   9.453  70.052  1.00  0.00    -0.229 C  
HETATM    7  O   UNL     1     -10.224   9.427  71.270  1.00  0.00    -0.315 OA 
HETATM    8  N   UNL     1     -11.073  10.173  69.277  1.00  0.00    -0.231 NA 
HETATM    9  C   UNL     1     -10.857  10.000  67.947  1.00  0.00    -0.271 C  
HETATM   10  O   UNL     1     -11.410  10.628  67.059  1.00  0.00    -0.308 OA 
ENDBRANCH   2   3
TORSDOF 1
ENDMDL
MODEL      158
REMARK 921   NORMALIZED FREE ENERGY PREDICTED BY IDOCK:   -2.12 KCAL/MOL
REMARK 922        TOTAL FREE ENERGY PREDICTED BY IDOCK:   -2.28 KCAL/MOL
REMARK 923 INTER-LIGAND FREE ENERGY PREDICTED BY IDOCK:   -2.25 KCAL/MOL
REMARK 924 INTRA-LIGAND FREE ENERGY PREDICTED BY IDOCK:   -0.03 KCAL/MOL
REMARK 927      BINDING AFFINITY PREDICTED BY RF-SCORE:    0.00 PKD
ROOT
HETATM    1  C   UNL     1      -9.499   4.494  69.153  1.00  0.00    -0.233 C  
HETATM    2  C   UNL     1      -9.074   5.911  68.781  1.00  0.00    -0.116 C  
ENDROOT
BRANCH   2   3
HETATM    3  C   UNL     1     -10.123   7.011  69.016  1.00  0.00    -0.182 C  
HETATM    4  C   UNL     1     -11.432   6.365  69.511  1.00  0.00    -0.412 C  
HETATM    5  C   UNL     1      -9.696   8.119  69.993  1.00  0.00    -0.172 C  
HETATM    6  C   UNL     1     -10.294   9.361  69.392  1.00  0.00    -0.212 C  
HETATM    7  O   UNL     1     -10.392  10.442  69.945  1.00  0.00    -0.244 OA 
HETATM    8  N   UNL     1     -10.659   9.092  68.113  1.00  0.00    -0.209 NA 
HETATM    9  C   UNL     1     -10.455   7.796  67.761  1.00  0.00    -0.211 C  
HETATM   10  O   UNL     1     -10.592   7.344  66.636  1.00  0.00    -0.257 OA 
ENDBRANCH   2   3
TORSDOF 1
ENDMDL
MODEL      159
REMARK 921   NORMALIZED FREE ENERGY PREDICTED BY IDOCK:   -2.11 KCAL/MOL
REMARK 922        TOTAL FREE ENERGY PREDICTED BY IDOCK:   -2.27 KCAL/MOL
REMARK 923 INTER-LIGAND FREE ENERGY PREDICTED BY IDOCK:   -2.22 KCAL/MOL
REMARK 924 INTRA-LIGAND FREE ENERGY PREDICTED BY IDOCK:   -0.05 KCAL/MOL
REMARK 927      BINDING AFFINITY PREDICTED BY RF-SCORE:    0.00 PKD
ROOT
HETATM    1  C   UNL     1     -10.556   6.427  67.147  1.00  0.00    -0.389 C  
HETATM    2  C   UNL     1     -11.028   6.108  68.562  1.00  0.00    -0.404 C  
ENDROOT
BRANCH   2   3
HETATM    3  C   UNL     1     -10.132   6.621  69.702  1.00  0.00    -0.202 C  
HETATM    4  C   UNL     1      -9.979   5.512  70.762  1.00  0.00    -0.263 C  
HETATM    5  C   UNL     1      -8.740   7.108  69.266  1.00  0.00    -0.136 C  
HETATM    6  C   UNL     1      -8.490   8.288  70.164  1.00  0.00    -0.126 C  
HETATM    7  O   UNL     1      -7.419   8.850  70.317  1.00  0.00    -0.059 OA 
HETATM    8  N   UNL     1      -9.664   8.657  70.735  1.00  0.00    -0.182 NA 
HETATM    9  C   UNL     1     -10.698   7.840  70.404  1.00  0.00    -0.236 C  
HETATM   10  O   UNL     1     -11.866   8.035  70.695  1.00  0.00    -0.223 OA 
ENDBRANCH   2   3
TORSDOF 1
ENDMDL
MODEL      160
REMARK 921   NORMALIZED FREE ENERGY PREDICTED BY IDOCK:   -2.11 KCAL/MOL
REMARK 922        TOTAL FREE ENERGY PREDICTED BY IDOCK:   -2.27 KCAL/MOL
REMARK 923 INTER-LIGAND FREE ENERGY PREDICTED BY IDOCK:   -2.26 KCAL/MOL
REMARK 924 INTRA-LIGAND FREE ENERGY PREDICTED BY IDOCK:   -0.01 KCAL/MOL
REMARK 927      BINDING AFFINITY PREDICTED BY RF-SCORE:    0.00 PKD
ROOT
HETATM    1  C   UNL     1     -10.959  14.483  69.129  1.00  0.00    -0.286 C  
HETATM    2  C   UNL     1     -10.383  14.228  67.740  1.00  0.00    -0.238 C  
ENDROOT
BRANCH   2   3
HETATM    3  C   UNL     1     -10.032  12.766  67.416  1.00  0.00    -0.212 C  
HETATM    4  C   UNL     1      -9.666  12.652  65.923  1.00  0.00    -0.212 C  
HETATM    5  C   UNL     1      -8.903  12.162  68.268  1.00  0.00    -0.182 C  
HETATM    6  C   UNL     1      -9.349  10.742  68.478  1.00  0.00    -0.174 C  
HETATM    7  O   UNL     1      -8.659   9.838  68.915  1.00  0.00    -0.123 OA 
HETATM    8  N   UNL     1     -10.663  10.645  68.152  1.00  0.00    -0.207 NA 
HETATM    9  C   UNL     1     -11.179  11.807  67.671  1.00  0.00    -0.281 C  
HETATM   10  O   UNL     1     -12.358  12.001  67.425  1.00  0.00    -0.340 OA 
ENDBRANCH   2   3
TORSDOF 1
ENDMDL
MODEL      161
REMARK 921   NORMALIZED FREE ENERGY PREDICTED BY IDOCK:   -2.11 KCAL/MOL
REMARK 922        TOTAL FREE ENERGY PREDICTED BY IDOCK:   -2.27 KCAL/MOL
REMARK 923 INTER-LIGAND FREE ENERGY PREDICTED BY IDOCK:   -2.18 KCAL/MOL
REMARK 924 INTRA-LIGAND FREE ENERGY PREDICTED BY IDOCK:   -0.09 KCAL/MOL
REMARK 927      BINDING AFFINITY PREDICTED BY RF-SCORE:    0.00 PKD
ROOT
HETATM    1  C   UNL     1     -11.391  11.072  68.573  1.00  0.00    -0.355 C  
HETATM    2  C   UNL     1     -11.277  11.027  67.053  1.00  0.00    -0.255 C  
ENDROOT
BRANCH   2   3
HETATM    3  C   UNL     1      -9.958  10.467  66.494  1.00  0.00    -0.266 C  
HETATM    4  C   UNL     1      -9.947  10.632  64.961  1.00  0.00    -0.369 C  
HETATM    5  C   UNL     1      -8.683  11.092  67.085  1.00  0.00    -0.141 C  
HETATM    6  C   UNL     1      -7.735   9.928  67.173  1.00  0.00    -0.092 C  
HETATM    7  O   UNL     1      -6.537  10.002  67.383  1.00  0.00    -0.067 OA 
HETATM    8  N   UNL     1      -8.443   8.779  67.033  1.00  0.00    -0.109 NA 
HETATM    9  C   UNL     1      -9.763   8.992  66.789  1.00  0.00    -0.216 C  
HETATM   10  O   UNL     1     -10.617   8.123  66.746  1.00  0.00    -0.313 OA 
ENDBRANCH   2   3
TORSDOF 1
ENDMDL
MODEL      162
REMARK 921   NORMALIZED FREE ENERGY PREDICTED BY IDOCK:   -2.11 KCAL/MOL
REMARK 922        TOTAL FREE ENERGY PREDICTED BY IDOCK:   -2.27 KCAL/MOL
REMARK 923 INTER-LIGAND FREE ENERGY PREDICTED BY IDOCK:   -2.18 KCAL/MOL
REMARK 924 INTRA-LIGAND FREE ENERGY PREDICTED BY IDOCK:   -0.08 KCAL/MOL
REMARK 927      BINDING AFFINITY PREDICTED BY RF-SCORE:    0.00 PKD
ROOT
HETATM    1  C   UNL     1     -10.615  13.876  66.928  1.00  0.00    -0.280 C  
HETATM    2  C   UNL     1      -9.195  13.336  66.793  1.00  0.00    -0.237 C  
ENDROOT
BRANCH   2   3
HETATM    3  C   UNL     1      -9.057  11.805  66.769  1.00  0.00    -0.194 C  
HETATM    4  C   UNL     1      -7.562  11.432  66.734  1.00  0.00    -0.143 C  
HETATM    5  C   UNL     1      -9.740  11.071  67.935  1.00  0.00    -0.183 C  
HETATM    6  C   UNL     1     -10.279   9.823  67.291  1.00  0.00    -0.232 C  
HETATM    7  O   UNL     1     -10.706   8.847  67.881  1.00  0.00    -0.210 OA 
HETATM    8  N   UNL     1     -10.258   9.986  65.944  1.00  0.00    -0.241 NA 
HETATM    9  C   UNL     1      -9.708  11.166  65.557  1.00  0.00    -0.228 C  
HETATM   10  O   UNL     1      -9.688  11.589  64.413  1.00  0.00    -0.234 OA 
ENDBRANCH   2   3
TORSDOF 1
ENDMDL
MODEL      163
REMARK 921   NORMALIZED FREE ENERGY PREDICTED BY IDOCK:   -2.11 KCAL/MOL
REMARK 922        TOTAL FREE ENERGY PREDICTED BY IDOCK:   -2.26 KCAL/MOL
REMARK 923 INTER-LIGAND FREE ENERGY PREDICTED BY IDOCK:   -2.23 KCAL/MOL
REMARK 924 INTRA-LIGAND FREE ENERGY PREDICTED BY IDOCK:   -0.03 KCAL/MOL
REMARK 927      BINDING AFFINITY PREDICTED BY RF-SCORE:    0.00 PKD
ROOT
HETATM    1  C   UNL     1     -11.370  11.059  69.289  1.00  0.00    -0.350 C  
HETATM    2  C   UNL     1     -11.277   9.951  68.245  1.00  0.00    -0.137 C  
ENDROOT
BRANCH   2   3
HETATM    3  C   UNL     1     -10.107  10.059  67.253  1.00  0.00    -0.259 C  
HETATM    4  C   UNL     1      -8.950  10.830  67.916  1.00  0.00    -0.139 C  
HETATM    5  C   UNL     1      -9.585   8.716  66.714  1.00  0.00    -0.269 C  
HETATM    6  C   UNL     1      -9.245   9.027  65.282  1.00  0.00    -0.140 C  
HETATM    7  O   UNL     1      -8.598   8.314  64.535  1.00  0.00    -0.083 OA 
HETATM    8  N   UNL     1      -9.823  10.207  64.943  1.00  0.00    -0.324 NA 
HETATM    9  C   UNL     1     -10.471  10.800  65.980  1.00  0.00    -0.208 C  
HETATM   10  O   UNL     1     -11.163  11.800  65.894  1.00  0.00    -0.324 OA 
ENDBRANCH   2   3
TORSDOF 1
ENDMDL
MODEL      164
REMARK 921   NORMALIZED FREE ENERGY PREDICTED BY IDOCK:   -2.10 KCAL/MOL
REMARK 922        TOTAL FREE ENERGY PREDICTED BY IDOCK:   -2.26 KCAL/MOL
REMARK 923 INTER-LIGAND FREE ENERGY PREDICTED BY IDOCK:   -2.24 KCAL/MOL
REMARK 924 INTRA-LIGAND FREE ENERGY PREDICTED BY IDOCK:   -0.02 KCAL/MOL
REMARK 927      BINDING AFFINITY PREDICTED BY RF-SCORE:    0.00 PKD
ROOT
HETATM    1  C   UNL     1      -9.762   6.672  66.655  1.00  0.00    -0.210 C  
HETATM    2  C   UNL     1     -10.533   7.896  67.139  1.00  0.00    -0.414 C  
ENDROOT
BRANCH   2   3
HETATM    3  C   UNL     1      -9.739   9.211  67.197  1.00  0.00    -0.236 C  
HETATM    4  C   UNL     1      -8.234   8.899  67.086  1.00  0.00    -0.103 C  
HETATM    5  C   UNL     1     -10.126  10.252  66.134  1.00  0.00    -0.307 C  
HETATM    6  C   UNL     1     -10.012  11.559  66.870  1.00  0.00    -0.205 C  
HETATM    7  O   UNL     1     -10.017  12.665  66.359  1.00  0.00    -0.243 OA 
HETATM    8  N   UNL     1      -9.955  11.304  68.202  1.00  0.00    -0.176 NA 
HETATM    9  C   UNL     1      -9.946   9.976  68.491  1.00  0.00    -0.162 C  
HETATM   10  O   UNL     1     -10.019   9.502  69.612  1.00  0.00    -0.181 OA 
ENDBRANCH   2   3
TORSDOF 1
ENDMDL
MODEL      165
REMARK 921   NORMALIZED FREE ENERGY PREDICTED BY IDOCK:   -2.09 KCAL/MOL
REMARK 922        TOTAL FREE ENERGY PREDICTED BY IDOCK:   -2.25 KCAL/MOL
REMARK 923 INTER-LIGAND FREE ENERGY PREDICTED BY IDOCK:   -2.23 KCAL/MOL
REMARK 924 INTRA-LIGAND FREE ENERGY PREDICTED BY IDOCK:   -0.01 KCAL/MOL
REMARK 927      BINDING AFFINITY PREDICTED BY RF-SCORE:    0.00 PKD
ROOT
HETATM    1  C   UNL     1      -8.438   8.970  66.819  1.00  0.00    -0.121 C  
HETATM    2  C   UNL     1      -8.890  10.093  65.892  1.00  0.00    -0.167 C  
ENDROOT
BRANCH   2   3
HETATM    3  C   UNL     1      -9.639  11.257  66.562  1.00  0.00    -0.215 C  
HETATM    4  C   UNL     1     -10.983  10.743  67.113  1.00  0.00    -0.324 C  
HETATM    5  C   UNL     1      -8.865  11.971  67.682  1.00  0.00    -0.172 C  
HETATM    6  C   UNL     1      -9.252  13.413  67.507  1.00  0.00    -0.219 C  
HETATM    7  O   UNL     1      -9.045  14.307  68.309  1.00  0.00    -0.177 OA 
HETATM    8  N   UNL     1      -9.824  13.565  66.286  1.00  0.00    -0.295 NA 
HETATM    9  C   UNL     1      -9.950  12.395  65.607  1.00  0.00    -0.244 C  
HETATM   10  O   UNL     1     -10.321  12.292  64.450  1.00  0.00    -0.299 OA 
ENDBRANCH   2   3
TORSDOF 1
ENDMDL
MODEL      166
REMARK 921   NORMALIZED FREE ENERGY PREDICTED BY IDOCK:   -2.08 KCAL/MOL
REMARK 922        TOTAL FREE ENERGY PREDICTED BY IDOCK:   -2.24 KCAL/MOL
REMARK 923 INTER-LIGAND FREE ENERGY PREDICTED BY IDOCK:   -2.22 KCAL/MOL
REMARK 924 INTRA-LIGAND FREE ENERGY PREDICTED BY IDOCK:   -0.03 KCAL/MOL
REMARK 927      BINDING AFFINITY PREDICTED BY RF-SCORE:    0.00 PKD
ROOT
HETATM    1  C   UNL     1     -10.535   6.963  67.127  1.00  0.00    -0.373 C  
HETATM    2  C   UNL     1     -10.487   8.482  67.253  1.00  0.00    -0.366 C  
ENDROOT
BRANCH   2   3
HETATM    3  C   UNL     1      -9.293   9.175  66.575  1.00  0.00    -0.244 C  
HETATM    4  C   UNL     1      -8.269   9.587  67.651  1.00  0.00    -0.121 C  
HETATM    5  C   UNL     1      -8.589   8.345  65.489  1.00  0.00    -0.201 C  
HETATM    6  C   UNL     1      -8.221   9.370  64.452  1.00  0.00    -0.147 C  
HETATM    7  O   UNL     1      -7.459   9.195  63.518  1.00  0.00    -0.099 OA 
HETATM    8  N   UNL     1      -8.920  10.507  64.698  1.00  0.00    -0.197 NA 
HETATM    9  C   UNL     1      -9.682  10.432  65.821  1.00  0.00    -0.228 C  
HETATM   10  O   UNL     1     -10.485  11.277  66.181  1.00  0.00    -0.241 OA 
ENDBRANCH   2   3
TORSDOF 1
ENDMDL
MODEL      167
REMARK 921   NORMALIZED FREE ENERGY PREDICTED BY IDOCK:   -2.08 KCAL/MOL
REMARK 922        TOTAL FREE ENERGY PREDICTED BY IDOCK:   -2.24 KCAL/MOL
REMARK 923 INTER-LIGAND FREE ENERGY PREDICTED BY IDOCK:   -2.38 KCAL/MOL
REMARK 924 INTRA-LIGAND FREE ENERGY PREDICTED BY IDOCK:    0.15 KCAL/MOL
REMARK 927      BINDING AFFINITY PREDICTED BY RF-SCORE:    0.00 PKD
ROOT
HETATM    1  C   UNL     1      -6.636  14.905  69.916  1.00  0.00    -0.175 C  
HETATM    2  C   UNL     1      -6.814  15.795  68.690  1.00  0.00    -0.122 C  
ENDROOT
BRANCH   2   3
HETATM    3  C   UNL     1      -8.246  15.903  68.140  1.00  0.00    -0.149 C  
HETATM    4  C   UNL     1      -9.216  16.185  69.304  1.00  0.00    -0.223 C  
HETATM    5  C   UNL     1      -8.443  16.961  67.041  1.00  0.00    -0.228 C  
HETATM    6  C   UNL     1      -9.427  16.312  66.107  1.00  0.00    -0.339 C  
HETATM    7  O   UNL     1     -10.033  16.873  65.212  1.00  0.00    -0.526 OA 
HETATM    8  N   UNL     1      -9.488  14.987  66.392  1.00  0.00    -0.279 NA 
HETATM    9  C   UNL     1      -8.720  14.634  67.456  1.00  0.00    -0.186 C  
HETATM   10  O   UNL     1      -8.518  13.490  67.827  1.00  0.00    -0.157 OA 
ENDBRANCH   2   3
TORSDOF 1
ENDMDL
MODEL      168
REMARK 921   NORMALIZED FREE ENERGY PREDICTED BY IDOCK:   -2.07 KCAL/MOL
REMARK 922        TOTAL FREE ENERGY PREDICTED BY IDOCK:   -2.23 KCAL/MOL
REMARK 923 INTER-LIGAND FREE ENERGY PREDICTED BY IDOCK:   -2.18 KCAL/MOL
REMARK 924 INTRA-LIGAND FREE ENERGY PREDICTED BY IDOCK:   -0.04 KCAL/MOL
REMARK 927      BINDING AFFINITY PREDICTED BY RF-SCORE:    0.00 PKD
ROOT
HETATM    1  C   UNL     1     -10.780  10.528  68.331  1.00  0.00    -0.262 C  
HETATM    2  C   UNL     1     -10.359   9.068  68.199  1.00  0.00    -0.262 C  
ENDROOT
BRANCH   2   3
HETATM    3  C   UNL     1     -10.392   8.239  69.494  1.00  0.00    -0.219 C  
HETATM    4  C   UNL     1     -11.169   9.018  70.574  1.00  0.00    -0.301 C  
HETATM    5  C   UNL     1     -10.990   6.830  69.349  1.00  0.00    -0.321 C  
HETATM    6  C   UNL     1     -10.139   5.997  70.268  1.00  0.00    -0.194 C  
HETATM    7  O   UNL     1     -10.389   4.861  70.633  1.00  0.00    -0.228 OA 
HETATM    8  N   UNL     1      -9.021   6.699  70.582  1.00  0.00    -0.151 NA 
HETATM    9  C   UNL     1      -9.012   7.951  70.053  1.00  0.00    -0.145 C  
HETATM   10  O   UNL     1      -8.068   8.722  70.095  1.00  0.00    -0.100 OA 
ENDBRANCH   2   3
TORSDOF 1
ENDMDL
MODEL      169
REMARK 921   NORMALIZED FREE ENERGY PREDICTED BY IDOCK:   -2.05 KCAL/MOL
REMARK 922        TOTAL FREE ENERGY PREDICTED BY IDOCK:   -2.21 KCAL/MOL
REMARK 923 INTER-LIGAND FREE ENERGY PREDICTED BY IDOCK:   -2.19 KCAL/MOL
REMARK 924 INTRA-LIGAND FREE ENERGY PREDICTED BY IDOCK:   -0.02 KCAL/MOL
REMARK 927      BINDING AFFINITY PREDICTED BY RF-SCORE:    0.00 PKD
ROOT
HETATM    1  C   UNL     1     -10.733   6.537  69.212  1.00  0.00    -0.329 C  
HETATM    2  C   UNL     1     -10.699   5.618  70.428  1.00  0.00    -0.352 C  
ENDROOT
BRANCH   2   3
HETATM    3  C   UNL     1      -9.644   5.954  71.496  1.00  0.00    -0.175 C  
HETATM    4  C   UNL     1      -8.344   5.188  71.181  1.00  0.00    -0.121 C  
HETATM    5  C   UNL     1      -9.331   7.451  71.653  1.00  0.00    -0.162 C  
HETATM    6  C   UNL     1      -9.124   7.608  73.135  1.00  0.00    -0.200 C  
HETATM    7  O   UNL     1      -8.644   8.583  73.686  1.00  0.00    -0.325 OA 
HETATM    8  N   UNL     1      -9.608   6.505  73.761  1.00  0.00    -0.170 NA 
HETATM    9  C   UNL     1     -10.068   5.561  72.898  1.00  0.00    -0.176 C  
HETATM   10  O   UNL     1     -10.656   4.543  73.222  1.00  0.00    -0.179 OA 
ENDBRANCH   2   3
TORSDOF 1
ENDMDL
MODEL      170
REMARK 921   NORMALIZED FREE ENERGY PREDICTED BY IDOCK:   -2.03 KCAL/MOL
REMARK 922        TOTAL FREE ENERGY PREDICTED BY IDOCK:   -2.18 KCAL/MOL
REMARK 923 INTER-LIGAND FREE ENERGY PREDICTED BY IDOCK:   -2.93 KCAL/MOL
REMARK 924 INTRA-LIGAND FREE ENERGY PREDICTED BY IDOCK:    0.75 KCAL/MOL
REMARK 927      BINDING AFFINITY PREDICTED BY RF-SCORE:    0.00 PKD
ROOT
HETATM    1  C   UNL     1      -7.776  16.578  66.658  1.00  0.00    -0.318 C  
HETATM    2  C   UNL     1      -9.283  16.781  66.542  1.00  0.00    -0.294 C  
ENDROOT
BRANCH   2   3
HETATM    3  C   UNL     1     -10.134  15.501  66.511  1.00  0.00    -0.290 C  
HETATM    4  C   UNL     1     -10.936  15.394  67.824  1.00  0.00    -0.311 C  
HETATM    5  C   UNL     1     -11.093  15.385  65.315  1.00  0.00    -0.367 C  
HETATM    6  C   UNL     1     -11.053  13.919  64.979  1.00  0.00    -0.353 C  
HETATM    7  O   UNL     1     -11.824  13.339  64.235  1.00  0.00    -0.377 OA 
HETATM    8  N   UNL     1      -9.983  13.360  65.600  1.00  0.00    -0.268 NA 
HETATM    9  C   UNL     1      -9.306  14.236  66.387  1.00  0.00    -0.245 C  
HETATM   10  O   UNL     1      -8.248  14.002  66.947  1.00  0.00    -0.110 OA 
ENDBRANCH   2   3
TORSDOF 1
ENDMDL
MODEL      171
REMARK 921   NORMALIZED FREE ENERGY PREDICTED BY IDOCK:   -2.02 KCAL/MOL
REMARK 922        TOTAL FREE ENERGY PREDICTED BY IDOCK:   -2.17 KCAL/MOL
REMARK 923 INTER-LIGAND FREE ENERGY PREDICTED BY IDOCK:   -2.12 KCAL/MOL
REMARK 924 INTRA-LIGAND FREE ENERGY PREDICTED BY IDOCK:   -0.05 KCAL/MOL
REMARK 927      BINDING AFFINITY PREDICTED BY RF-SCORE:    0.00 PKD
ROOT
HETATM    1  C   UNL     1     -10.313   6.562  69.850  1.00  0.00    -0.231 C  
HETATM    2  C   UNL     1      -9.841   5.679  68.699  1.00  0.00    -0.190 C  
ENDROOT
BRANCH   2   3
HETATM    3  C   UNL     1      -9.829   6.337  67.309  1.00  0.00    -0.165 C  
HETATM    4  C   UNL     1     -10.483   5.382  66.291  1.00  0.00    -0.277 C  
HETATM    5  C   UNL     1     -10.513   7.712  67.233  1.00  0.00    -0.396 C  
HETATM    6  C   UNL     1      -9.647   8.477  66.271  1.00  0.00    -0.236 C  
HETATM    7  O   UNL     1      -9.933   9.540  65.748  1.00  0.00    -0.300 OA 
HETATM    8  N   UNL     1      -8.472   7.815  66.121  1.00  0.00    -0.131 NA 
HETATM    9  C   UNL     1      -8.430   6.642  66.806  1.00  0.00    -0.117 C  
HETATM   10  O   UNL     1      -7.445   5.933  66.923  1.00  0.00    -0.082 OA 
ENDBRANCH   2   3
TORSDOF 1
ENDMDL
MODEL      172
REMARK 921   NORMALIZED FREE ENERGY PREDICTED BY IDOCK:   -1.99 KCAL/MOL
REMARK 922        TOTAL FREE ENERGY PREDICTED BY IDOCK:   -2.14 KCAL/MOL
REMARK 923 INTER-LIGAND FREE ENERGY PREDICTED BY IDOCK:   -2.09 KCAL/MOL
REMARK 924 INTRA-LIGAND FREE ENERGY PREDICTED BY IDOCK:   -0.05 KCAL/MOL
REMARK 927      BINDING AFFINITY PREDICTED BY RF-SCORE:    0.00 PKD
ROOT
HETATM    1  C   UNL     1     -10.076   7.222  70.303  1.00  0.00    -0.196 C  
HETATM    2  C   UNL     1     -10.993   6.370  71.175  1.00  0.00    -0.327 C  
ENDROOT
BRANCH   2   3
HETATM    3  C   UNL     1     -10.313   5.622  72.334  1.00  0.00    -0.245 C  
HETATM    4  C   UNL     1     -11.387   4.886  73.159  1.00  0.00    -0.395 C  
HETATM    5  C   UNL     1      -9.219   4.626  71.914  1.00  0.00    -0.175 C  
HETATM    6  C   UNL     1      -8.187   4.769  72.998  1.00  0.00    -0.101 C  
HETATM    7  O   UNL     1      -7.248   4.015  73.189  1.00  0.00    -0.063 OA 
HETATM    8  N   UNL     1      -8.443   5.903  73.697  1.00  0.00    -0.119 NA 
HETATM    9  C   UNL     1      -9.569   6.542  73.282  1.00  0.00    -0.154 C  
HETATM   10  O   UNL     1      -9.938   7.637  73.673  1.00  0.00    -0.312 OA 
ENDBRANCH   2   3
TORSDOF 1
ENDMDL
MODEL      173
REMARK 921   NORMALIZED FREE ENERGY PREDICTED BY IDOCK:   -1.97 KCAL/MOL
REMARK 922        TOTAL FREE ENERGY PREDICTED BY IDOCK:   -2.12 KCAL/MOL
REMARK 923 INTER-LIGAND FREE ENERGY PREDICTED BY IDOCK:   -2.10 KCAL/MOL
REMARK 924 INTRA-LIGAND FREE ENERGY PREDICTED BY IDOCK:   -0.02 KCAL/MOL
REMARK 927      BINDING AFFINITY PREDICTED BY RF-SCORE:    0.00 PKD
ROOT
HETATM    1  C   UNL     1      -7.540   5.323  64.969  1.00  0.00    -0.082 C  
HETATM    2  C   UNL     1      -8.814   5.508  65.787  1.00  0.00    -0.154 C  
ENDROOT
BRANCH   2   3
HETATM    3  C   UNL     1      -8.953   6.852  66.520  1.00  0.00    -0.166 C  
HETATM    4  C   UNL     1      -7.961   6.891  67.700  1.00  0.00    -0.113 C  
HETATM    5  C   UNL     1      -8.750   8.097  65.640  1.00  0.00    -0.176 C  
HETATM    6  C   UNL     1      -9.756   9.074  66.185  1.00  0.00    -0.283 C  
HETATM    7  O   UNL     1      -9.799  10.265  65.931  1.00  0.00    -0.208 OA 
HETATM    8  N   UNL     1     -10.639   8.400  66.964  1.00  0.00    -0.300 NA 
HETATM    9  C   UNL     1     -10.340   7.081  67.090  1.00  0.00    -0.281 C  
HETATM   10  O   UNL     1     -11.046   6.250  67.637  1.00  0.00    -0.341 OA 
ENDBRANCH   2   3
TORSDOF 1
ENDMDL
MODEL      174
REMARK 921   NORMALIZED FREE ENERGY PREDICTED BY IDOCK:   -1.96 KCAL/MOL
REMARK 922        TOTAL FREE ENERGY PREDICTED BY IDOCK:   -2.11 KCAL/MOL
REMARK 923 INTER-LIGAND FREE ENERGY PREDICTED BY IDOCK:   -2.09 KCAL/MOL
REMARK 924 INTRA-LIGAND FREE ENERGY PREDICTED BY IDOCK:   -0.03 KCAL/MOL
REMARK 927      BINDING AFFINITY PREDICTED BY RF-SCORE:    0.00 PKD
ROOT
HETATM    1  C   UNL     1     -14.314  14.749  71.007  1.00  0.00    -0.101 C  
HETATM    2  C   UNL     1     -13.163  15.697  70.685  1.00  0.00    -0.162 C  
ENDROOT
BRANCH   2   3
HETATM    3  C   UNL     1     -11.790  15.039  70.467  1.00  0.00    -0.347 C  
HETATM    4  C   UNL     1     -10.926  15.242  71.728  1.00  0.00    -0.066 C  
HETATM    5  C   UNL     1     -11.834  13.543  70.113  1.00  0.00    -0.348 C  
HETATM    6  C   UNL     1     -10.716  13.390  69.119  1.00  0.00    -0.060 C  
HETATM    7  O   UNL     1     -10.248  12.333  68.734  1.00  0.00    -0.195 OA 
HETATM    8  N   UNL     1     -10.350  14.622  68.683  1.00  0.00    -0.239 NA 
HETATM    9  C   UNL     1     -11.025  15.628  69.297  1.00  0.00    -0.267 C  
HETATM   10  O   UNL     1     -10.958  16.806  68.992  1.00  0.00    -0.304 OA 
ENDBRANCH   2   3
TORSDOF 1
ENDMDL
MODEL      175
REMARK 921   NORMALIZED FREE ENERGY PREDICTED BY IDOCK:   -1.95 KCAL/MOL
REMARK 922        TOTAL FREE ENERGY PREDICTED BY IDOCK:   -2.10 KCAL/MOL
REMARK 923 INTER-LIGAND FREE ENERGY PREDICTED BY IDOCK:   -2.03 KCAL/MOL
REMARK 924 INTRA-LIGAND FREE ENERGY PREDICTED BY IDOCK:   -0.07 KCAL/MOL
REMARK 927      BINDING AFFINITY PREDICTED BY RF-SCORE:    0.00 PKD
ROOT
HETATM    1  C   UNL     1      -8.660  10.906  68.801  1.00  0.00    -0.159 C  
HETATM    2  C   UNL     1      -9.626   9.742  68.604  1.00  0.00    -0.155 C  
ENDROOT
BRANCH   2   3
HETATM    3  C   UNL     1      -9.723   9.183  67.175  1.00  0.00    -0.236 C  
HETATM    4  C   UNL     1     -10.734   8.019  67.155  1.00  0.00    -0.285 C  
HETATM    5  C   UNL     1     -10.105  10.212  66.098  1.00  0.00    -0.314 C  
HETATM    6  C   UNL     1      -9.283   9.791  64.911  1.00  0.00    -0.257 C  
HETATM    7  O   UNL     1      -9.428  10.191  63.769  1.00  0.00    -0.281 OA 
HETATM    8  N   UNL     1      -8.320   8.932  65.331  1.00  0.00    -0.139 NA 
HETATM    9  C   UNL     1      -8.405   8.643  66.655  1.00  0.00    -0.108 C  
HETATM   10  O   UNL     1      -7.585   7.995  67.285  1.00  0.00    -0.094 OA 
ENDBRANCH   2   3
TORSDOF 1
ENDMDL
MODEL      176
REMARK 921   NORMALIZED FREE ENERGY PREDICTED BY IDOCK:   -1.94 KCAL/MOL
REMARK 922        TOTAL FREE ENERGY PREDICTED BY IDOCK:   -2.09 KCAL/MOL
REMARK 923 INTER-LIGAND FREE ENERGY PREDICTED BY IDOCK:   -2.05 KCAL/MOL
REMARK 924 INTRA-LIGAND FREE ENERGY PREDICTED BY IDOCK:   -0.05 KCAL/MOL
REMARK 927      BINDING AFFINITY PREDICTED BY RF-SCORE:    0.00 PKD
ROOT
HETATM    1  C   UNL     1     -10.333   4.606  71.415  1.00  0.00    -0.160 C  
HETATM    2  C   UNL     1      -9.713   5.969  71.120  1.00  0.00    -0.206 C  
ENDROOT
BRANCH   2   3
HETATM    3  C   UNL     1      -8.760   6.519  72.193  1.00  0.00    -0.131 C  
HETATM    4  C   UNL     1      -8.251   5.354  73.064  1.00  0.00    -0.112 C  
HETATM    5  C   UNL     1      -7.561   7.316  71.651  1.00  0.00    -0.086 C  
HETATM    6  C   UNL     1      -7.391   8.417  72.661  1.00  0.00    -0.073 C  
HETATM    7  O   UNL     1      -6.428   9.158  72.750  1.00  0.00    -0.313 OA 
HETATM    8  N   UNL     1      -8.511   8.483  73.424  1.00  0.00    -0.377 NA 
HETATM    9  C   UNL     1      -9.421   7.520  73.122  1.00  0.00    -0.219 C  
HETATM   10  O   UNL     1     -10.547   7.449  73.584  1.00  0.00    -0.370 OA 
ENDBRANCH   2   3
TORSDOF 1
ENDMDL
MODEL      177
REMARK 921   NORMALIZED FREE ENERGY PREDICTED BY IDOCK:   -1.94 KCAL/MOL
REMARK 922        TOTAL FREE ENERGY PREDICTED BY IDOCK:   -2.09 KCAL/MOL
REMARK 923 INTER-LIGAND FREE ENERGY PREDICTED BY IDOCK:   -2.05 KCAL/MOL
REMARK 924 INTRA-LIGAND FREE ENERGY PREDICTED BY IDOCK:   -0.04 KCAL/MOL
REMARK 927      BINDING AFFINITY PREDICTED BY RF-SCORE:    0.00 PKD
ROOT
HETATM    1  C   UNL     1      -8.095   8.448  70.123  1.00  0.00    -0.108 C  
HETATM    2  C   UNL     1      -8.937   7.387  70.824  1.00  0.00    -0.151 C  
ENDROOT
BRANCH   2   3
HETATM    3  C   UNL     1     -10.110   6.814  70.010  1.00  0.00    -0.200 C  
HETATM    4  C   UNL     1     -11.419   7.016  70.798  1.00  0.00    -0.360 C  
HETATM    5  C   UNL     1     -10.268   7.398  68.596  1.00  0.00    -0.203 C  
HETATM    6  C   UNL     1     -10.701   6.212  67.779  1.00  0.00    -0.303 C  
HETATM    7  O   UNL     1     -11.149   6.256  66.646  1.00  0.00    -0.292 OA 
HETATM    8  N   UNL     1     -10.460   5.082  68.490  1.00  0.00    -0.027 NA 
HETATM    9  C   UNL     1      -9.975   5.329  69.735  1.00  0.00    -0.236 C  
HETATM   10  O   UNL     1      -9.572   4.479  70.511  1.00  0.00    -0.168 OA 
ENDBRANCH   2   3
TORSDOF 1
ENDMDL
MODEL      178
REMARK 921   NORMALIZED FREE ENERGY PREDICTED BY IDOCK:   -1.93 KCAL/MOL
REMARK 922        TOTAL FREE ENERGY PREDICTED BY IDOCK:   -2.08 KCAL/MOL
REMARK 923 INTER-LIGAND FREE ENERGY PREDICTED BY IDOCK:   -2.04 KCAL/MOL
REMARK 924 INTRA-LIGAND FREE ENERGY PREDICTED BY IDOCK:   -0.03 KCAL/MOL
REMARK 927      BINDING AFFINITY PREDICTED BY RF-SCORE:    0.00 PKD
ROOT
HETATM    1  C   UNL     1     -11.198   8.173  70.472  1.00  0.00    -0.249 C  
HETATM    2  C   UNL     1     -10.427   7.789  71.731  1.00  0.00    -0.259 C  
ENDROOT
BRANCH   2   3
HETATM    3  C   UNL     1     -10.174   6.286  71.932  1.00  0.00    -0.227 C  
HETATM    4  C   UNL     1     -10.851   5.829  73.239  1.00  0.00    -0.306 C  
HETATM    5  C   UNL     1     -10.636   5.387  70.773  1.00  0.00    -0.293 C  
HETATM    6  C   UNL     1      -9.571   4.326  70.712  1.00  0.00    -0.186 C  
HETATM    7  O   UNL     1      -9.642   3.285  70.084  1.00  0.00    -0.176 OA 
HETATM    8  N   UNL     1      -8.498   4.745  71.429  1.00  0.00    -0.107 NA 
HETATM    9  C   UNL     1      -8.701   5.939  72.044  1.00  0.00    -0.137 C  
HETATM   10  O   UNL     1      -7.848   6.574  72.642  1.00  0.00    -0.102 OA 
ENDBRANCH   2   3
TORSDOF 1
ENDMDL
MODEL      179
REMARK 921   NORMALIZED FREE ENERGY PREDICTED BY IDOCK:   -1.88 KCAL/MOL
REMARK 922        TOTAL FREE ENERGY PREDICTED BY IDOCK:   -2.02 KCAL/MOL
REMARK 923 INTER-LIGAND FREE ENERGY PREDICTED BY IDOCK:   -1.93 KCAL/MOL
REMARK 924 INTRA-LIGAND FREE ENERGY PREDICTED BY IDOCK:   -0.09 KCAL/MOL
REMARK 927      BINDING AFFINITY PREDICTED BY RF-SCORE:    0.00 PKD
ROOT
HETATM    1  C   UNL     1     -11.696  11.199  68.426  1.00  0.00    -0.349 C  
HETATM    2  C   UNL     1     -10.347  11.578  67.825  1.00  0.00    -0.204 C  
ENDROOT
BRANCH   2   3
HETATM    3  C   UNL     1      -9.376  10.415  67.564  1.00  0.00    -0.163 C  
HETATM    4  C   UNL     1      -7.983  10.984  67.227  1.00  0.00    -0.126 C  
HETATM    5  C   UNL     1      -9.250   9.402  68.715  1.00  0.00    -0.132 C  
HETATM    6  C   UNL     1      -9.112   8.085  68.002  1.00  0.00    -0.129 C  
HETATM    7  O   UNL     1      -8.771   7.033  68.514  1.00  0.00    -0.123 OA 
HETATM    8  N   UNL     1      -9.481   8.250  66.707  1.00  0.00    -0.182 NA 
HETATM    9  C   UNL     1      -9.796   9.536  66.402  1.00  0.00    -0.253 C  
HETATM   10  O   UNL     1     -10.269   9.909  65.342  1.00  0.00    -0.273 OA 
ENDBRANCH   2   3
TORSDOF 1
ENDMDL
MODEL      180
REMARK 921   NORMALIZED FREE ENERGY PREDICTED BY IDOCK:   -1.82 KCAL/MOL
REMARK 922        TOTAL FREE ENERGY PREDICTED BY IDOCK:   -1.96 KCAL/MOL
REMARK 923 INTER-LIGAND FREE ENERGY PREDICTED BY IDOCK:   -1.93 KCAL/MOL
REMARK 924 INTRA-LIGAND FREE ENERGY PREDICTED BY IDOCK:   -0.03 KCAL/MOL
REMARK 927      BINDING AFFINITY PREDICTED BY RF-SCORE:    0.00 PKD
ROOT
HETATM    1  C   UNL     1      -9.984  10.811  63.911  1.00  0.00    -0.404 C  
HETATM    2  C   UNL     1     -10.272  10.365  65.342  1.00  0.00    -0.329 C  
ENDROOT
BRANCH   2   3
HETATM    3  C   UNL     1      -9.041  10.078  66.217  1.00  0.00    -0.180 C  
HETATM    4  C   UNL     1      -7.775  10.118  65.338  1.00  0.00    -0.143 C  
HETATM    5  C   UNL     1      -8.861  11.022  67.417  1.00  0.00    -0.138 C  
HETATM    6  C   UNL     1      -8.335  10.115  68.495  1.00  0.00    -0.116 C  
HETATM    7  O   UNL     1      -7.847  10.475  69.552  1.00  0.00    -0.155 OA 
HETATM    8  N   UNL     1      -8.541   8.827  68.120  1.00  0.00    -0.133 NA 
HETATM    9  C   UNL     1      -9.085   8.714  66.880  1.00  0.00    -0.144 C  
HETATM   10  O   UNL     1      -9.471   7.673  66.376  1.00  0.00    -0.190 OA 
ENDBRANCH   2   3
TORSDOF 1
ENDMDL
MODEL      181
REMARK 921   NORMALIZED FREE ENERGY PREDICTED BY IDOCK:   -1.81 KCAL/MOL
REMARK 922        TOTAL FREE ENERGY PREDICTED BY IDOCK:   -1.95 KCAL/MOL
REMARK 923 INTER-LIGAND FREE ENERGY PREDICTED BY IDOCK:   -1.94 KCAL/MOL
REMARK 924 INTRA-LIGAND FREE ENERGY PREDICTED BY IDOCK:   -0.01 KCAL/MOL
REMARK 927      BINDING AFFINITY PREDICTED BY RF-SCORE:    0.00 PKD
ROOT
HETATM    1  C   UNL     1      -9.411   4.006  68.222  1.00  0.00    -0.216 C  
HETATM    2  C   UNL     1      -8.850   5.356  67.786  1.00  0.00    -0.105 C  
ENDROOT
BRANCH   2   3
HETATM    3  C   UNL     1      -9.785   6.563  67.968  1.00  0.00    -0.119 C  
HETATM    4  C   UNL     1     -11.002   6.406  67.035  1.00  0.00    -0.463 C  
HETATM    5  C   UNL     1     -10.270   6.799  69.408  1.00  0.00    -0.204 C  
HETATM    6  C   UNL     1     -10.293   8.299  69.524  1.00  0.00    -0.219 C  
HETATM    7  O   UNL     1     -10.819   8.934  70.421  1.00  0.00    -0.224 OA 
HETATM    8  N   UNL     1      -9.585   8.826  68.493  1.00  0.00    -0.148 NA 
HETATM    9  C   UNL     1      -9.125   7.886  67.627  1.00  0.00    -0.133 C  
HETATM   10  O   UNL     1      -8.367   8.102  66.696  1.00  0.00    -0.107 OA 
ENDBRANCH   2   3
TORSDOF 1
ENDMDL
MODEL      182
REMARK 921   NORMALIZED FREE ENERGY PREDICTED BY IDOCK:   -1.79 KCAL/MOL
REMARK 922        TOTAL FREE ENERGY PREDICTED BY IDOCK:   -1.93 KCAL/MOL
REMARK 923 INTER-LIGAND FREE ENERGY PREDICTED BY IDOCK:   -1.92 KCAL/MOL
REMARK 924 INTRA-LIGAND FREE ENERGY PREDICTED BY IDOCK:   -0.01 KCAL/MOL
REMARK 927      BINDING AFFINITY PREDICTED BY RF-SCORE:    0.00 PKD
ROOT
HETATM    1  C   UNL     1      -6.791   4.579  68.351  1.00  0.00    -0.051 C  
HETATM    2  C   UNL     1      -7.999   5.199  67.657  1.00  0.00    -0.099 C  
ENDROOT
BRANCH   2   3
HETATM    3  C   UNL     1      -9.299   5.239  68.476  1.00  0.00    -0.152 C  
HETATM    4  C   UNL     1      -9.529   3.860  69.127  1.00  0.00    -0.246 C  
HETATM    5  C   UNL     1      -9.355   6.331  69.557  1.00  0.00    -0.147 C  
HETATM    6  C   UNL     1     -10.789   6.783  69.520  1.00  0.00    -0.273 C  
HETATM    7  O   UNL     1     -11.335   7.483  70.355  1.00  0.00    -0.275 OA 
HETATM    8  N   UNL     1     -11.359   6.326  68.377  1.00  0.00    -0.185 NA 
HETATM    9  C   UNL     1     -10.524   5.550  67.638  1.00  0.00    -0.191 C  
HETATM   10  O   UNL     1     -10.767   5.126  66.520  1.00  0.00    -0.300 OA 
ENDBRANCH   2   3
TORSDOF 1
ENDMDL
MODEL      183
REMARK 921   NORMALIZED FREE ENERGY PREDICTED BY IDOCK:   -1.79 KCAL/MOL
REMARK 922        TOTAL FREE ENERGY PREDICTED BY IDOCK:   -1.93 KCAL/MOL
REMARK 923 INTER-LIGAND FREE ENERGY PREDICTED BY IDOCK:   -1.89 KCAL/MOL
REMARK 924 INTRA-LIGAND FREE ENERGY PREDICTED BY IDOCK:   -0.04 KCAL/MOL
REMARK 927      BINDING AFFINITY PREDICTED BY RF-SCORE:    0.00 PKD
ROOT
HETATM    1  C   UNL     1      -9.196   5.024  65.212  1.00  0.00    -0.125 C  
HETATM    2  C   UNL     1     -10.142   4.818  66.390  1.00  0.00    -0.291 C  
ENDROOT
BRANCH   2   3
HETATM    3  C   UNL     1      -9.760   5.539  67.693  1.00  0.00    -0.145 C  
HETATM    4  C   UNL     1      -8.844   6.733  67.361  1.00  0.00    -0.117 C  
HETATM    5  C   UNL     1     -10.948   6.025  68.540  1.00  0.00    -0.350 C  
HETATM    6  C   UNL     1     -10.484   5.796  69.952  1.00  0.00    -0.290 C  
HETATM    7  O   UNL     1     -11.016   6.236  70.956  1.00  0.00    -0.256 OA 
HETATM    8  N   UNL     1      -9.404   4.974  69.927  1.00  0.00    -0.130 NA 
HETATM    9  C   UNL     1      -9.008   4.652  68.668  1.00  0.00    -0.109 C  
HETATM   10  O   UNL     1      -8.143   3.838  68.391  1.00  0.00    -0.074 OA 
ENDBRANCH   2   3
TORSDOF 1
ENDMDL
MODEL      184
REMARK 921   NORMALIZED FREE ENERGY PREDICTED BY IDOCK:   -1.78 KCAL/MOL
REMARK 922        TOTAL FREE ENERGY PREDICTED BY IDOCK:   -1.92 KCAL/MOL
REMARK 923 INTER-LIGAND FREE ENERGY PREDICTED BY IDOCK:   -1.87 KCAL/MOL
REMARK 924 INTRA-LIGAND FREE ENERGY PREDICTED BY IDOCK:   -0.05 KCAL/MOL
REMARK 927      BINDING AFFINITY PREDICTED BY RF-SCORE:    0.00 PKD
ROOT
HETATM    1  C   UNL     1      -9.352   8.598  72.074  1.00  0.00    -0.362 C  
HETATM    2  C   UNL     1      -9.141   7.091  71.966  1.00  0.00    -0.140 C  
ENDROOT
BRANCH   2   3
HETATM    3  C   UNL     1      -9.139   6.513  70.541  1.00  0.00    -0.152 C  
HETATM    4  C   UNL     1      -8.854   7.646  69.535  1.00  0.00    -0.139 C  
HETATM    5  C   UNL     1      -8.150   5.360  70.307  1.00  0.00    -0.097 C  
HETATM    6  C   UNL     1      -8.898   4.444  69.379  1.00  0.00    -0.090 C  
HETATM    7  O   UNL     1      -8.416   3.511  68.760  1.00  0.00    -0.074 OA 
HETATM    8  N   UNL     1     -10.209   4.794  69.385  1.00  0.00    -0.175 NA 
HETATM    9  C   UNL     1     -10.465   5.888  70.150  1.00  0.00    -0.262 C  
HETATM   10  O   UNL     1     -11.576   6.319  70.407  1.00  0.00    -0.381 OA 
ENDBRANCH   2   3
TORSDOF 1
ENDMDL
MODEL      185
REMARK 921   NORMALIZED FREE ENERGY PREDICTED BY IDOCK:   -1.75 KCAL/MOL
REMARK 922        TOTAL FREE ENERGY PREDICTED BY IDOCK:   -1.89 KCAL/MOL
REMARK 923 INTER-LIGAND FREE ENERGY PREDICTED BY IDOCK:   -1.86 KCAL/MOL
REMARK 924 INTRA-LIGAND FREE ENERGY PREDICTED BY IDOCK:   -0.03 KCAL/MOL
REMARK 927      BINDING AFFINITY PREDICTED BY RF-SCORE:    0.00 PKD
ROOT
HETATM    1  C   UNL     1      -6.948   7.808  69.245  1.00  0.00    -0.060 C  
HETATM    2  C   UNL     1      -7.187   7.403  70.696  1.00  0.00    -0.068 C  
ENDROOT
BRANCH   2   3
HETATM    3  C   UNL     1      -8.656   7.341  71.143  1.00  0.00    -0.130 C  
HETATM    4  C   UNL     1      -8.926   8.474  72.153  1.00  0.00    -0.300 C  
HETATM    5  C   UNL     1      -9.687   7.415  70.004  1.00  0.00    -0.175 C  
HETATM    6  C   UNL     1     -10.770   6.474  70.456  1.00  0.00    -0.254 C  
HETATM    7  O   UNL     1     -11.883   6.384  69.967  1.00  0.00    -0.404 OA 
HETATM    8  N   UNL     1     -10.286   5.706  71.465  1.00  0.00    -0.214 NA 
HETATM    9  C   UNL     1      -9.018   6.035  71.825  1.00  0.00    -0.138 C  
HETATM   10  O   UNL     1      -8.331   5.415  72.618  1.00  0.00    -0.113 OA 
ENDBRANCH   2   3
TORSDOF 1
ENDMDL
MODEL      186
REMARK 921   NORMALIZED FREE ENERGY PREDICTED BY IDOCK:   -1.73 KCAL/MOL
REMARK 922        TOTAL FREE ENERGY PREDICTED BY IDOCK:   -1.86 KCAL/MOL
REMARK 923 INTER-LIGAND FREE ENERGY PREDICTED BY IDOCK:   -1.83 KCAL/MOL
REMARK 924 INTRA-LIGAND FREE ENERGY PREDICTED BY IDOCK:   -0.04 KCAL/MOL
REMARK 927      BINDING AFFINITY PREDICTED BY RF-SCORE:    0.00 PKD
ROOT
HETATM    1  C   UNL     1     -10.760   5.851  67.369  1.00  0.00    -0.370 C  
HETATM    2  C   UNL     1     -10.351   7.299  67.617  1.00  0.00    -0.290 C  
ENDROOT
BRANCH   2   3
HETATM    3  C   UNL     1      -9.050   7.757  66.936  1.00  0.00    -0.171 C  
HETATM    4  C   UNL     1      -8.481   6.595  66.099  1.00  0.00    -0.135 C  
HETATM    5  C   UNL     1      -9.183   9.008  66.052  1.00  0.00    -0.284 C  
HETATM    6  C   UNL     1      -7.892   9.740  66.292  1.00  0.00    -0.106 C  
HETATM    7  O   UNL     1      -7.473  10.675  65.632  1.00  0.00    -0.148 OA 
HETATM    8  N   UNL     1      -7.296   9.222  67.395  1.00  0.00    -0.086 NA 
HETATM    9  C   UNL     1      -7.974   8.170  67.923  1.00  0.00    -0.127 C  
HETATM   10  O   UNL     1      -7.703   7.618  68.976  1.00  0.00    -0.111 OA 
ENDBRANCH   2   3
TORSDOF 1
ENDMDL
MODEL      187
REMARK 921   NORMALIZED FREE ENERGY PREDICTED BY IDOCK:   -1.72 KCAL/MOL
REMARK 922        TOTAL FREE ENERGY PREDICTED BY IDOCK:   -1.86 KCAL/MOL
REMARK 923 INTER-LIGAND FREE ENERGY PREDICTED BY IDOCK:   -2.21 KCAL/MOL
REMARK 924 INTRA-LIGAND FREE ENERGY PREDICTED BY IDOCK:    0.35 KCAL/MOL
REMARK 927      BINDING AFFINITY PREDICTED BY RF-SCORE:    0.00 PKD
ROOT
HETATM    1  C   UNL     1      -9.835  12.397  65.965  1.00  0.00    -0.268 C  
HETATM    2  C   UNL     1      -9.799  12.766  67.444  1.00  0.00    -0.210 C  
ENDROOT
BRANCH   2   3
HETATM    3  C   UNL     1      -9.590  14.256  67.761  1.00  0.00    -0.221 C  
HETATM    4  C   UNL     1     -10.417  14.630  69.007  1.00  0.00    -0.248 C  
HETATM    5  C   UNL     1      -8.126  14.677  67.972  1.00  0.00    -0.135 C  
HETATM    6  C   UNL     1      -8.066  16.044  67.348  1.00  0.00    -0.164 C  
HETATM    7  O   UNL     1      -7.155  16.844  67.474  1.00  0.00    -0.136 OA 
HETATM    8  N   UNL     1      -9.169  16.220  66.577  1.00  0.00    -0.246 NA 
HETATM    9  C   UNL     1     -10.033  15.173  66.636  1.00  0.00    -0.251 C  
HETATM   10  O   UNL     1     -11.029  15.045  65.944  1.00  0.00    -0.331 OA 
ENDBRANCH   2   3
TORSDOF 1
ENDMDL
MODEL      188
REMARK 921   NORMALIZED FREE ENERGY PREDICTED BY IDOCK:   -1.71 KCAL/MOL
REMARK 922        TOTAL FREE ENERGY PREDICTED BY IDOCK:   -1.84 KCAL/MOL
REMARK 923 INTER-LIGAND FREE ENERGY PREDICTED BY IDOCK:   -1.80 KCAL/MOL
REMARK 924 INTRA-LIGAND FREE ENERGY PREDICTED BY IDOCK:   -0.04 KCAL/MOL
REMARK 927      BINDING AFFINITY PREDICTED BY RF-SCORE:    0.00 PKD
ROOT
HETATM    1  C   UNL     1     -11.492  10.941  68.634  1.00  0.00    -0.380 C  
HETATM    2  C   UNL     1     -10.038  10.765  69.060  1.00  0.00    -0.225 C  
ENDROOT
BRANCH   2   3
HETATM    3  C   UNL     1      -9.544   9.314  69.182  1.00  0.00    -0.161 C  
HETATM    4  C   UNL     1     -10.623   8.364  68.628  1.00  0.00    -0.149 C  
HETATM    5  C   UNL     1      -8.201   9.024  68.492  1.00  0.00    -0.112 C  
HETATM    6  C   UNL     1      -7.533   8.054  69.427  1.00  0.00    -0.096 C  
HETATM    7  O   UNL     1      -6.543   7.390  69.174  1.00  0.00    -0.038 OA 
HETATM    8  N   UNL     1      -8.184   8.079  70.618  1.00  0.00    -0.111 NA 
HETATM    9  C   UNL     1      -9.269   8.897  70.615  1.00  0.00    -0.213 C  
HETATM   10  O   UNL     1      -9.939   9.177  71.595  1.00  0.00    -0.316 OA 
ENDBRANCH   2   3
TORSDOF 1
ENDMDL
MODEL      189
REMARK 921   NORMALIZED FREE ENERGY PREDICTED BY IDOCK:   -1.70 KCAL/MOL
REMARK 922        TOTAL FREE ENERGY PREDICTED BY IDOCK:   -1.84 KCAL/MOL
REMARK 923 INTER-LIGAND FREE ENERGY PREDICTED BY IDOCK:   -1.81 KCAL/MOL
REMARK 924 INTRA-LIGAND FREE ENERGY PREDICTED BY IDOCK:   -0.02 KCAL/MOL
REMARK 927      BINDING AFFINITY PREDICTED BY RF-SCORE:    0.00 PKD
ROOT
HETATM    1  C   UNL     1      -9.145   9.433  68.476  1.00  0.00    -0.131 C  
HETATM    2  C   UNL     1     -10.213   9.042  69.493  1.00  0.00    -0.205 C  
ENDROOT
BRANCH   2   3
HETATM    3  C   UNL     1     -10.168   7.587  69.989  1.00  0.00    -0.215 C  
HETATM    4  C   UNL     1     -11.248   6.769  69.256  1.00  0.00    -0.261 C  
HETATM    5  C   UNL     1      -8.806   6.889  69.838  1.00  0.00    -0.142 C  
HETATM    6  C   UNL     1      -8.712   6.042  71.077  1.00  0.00    -0.132 C  
HETATM    7  O   UNL     1      -7.898   5.156  71.271  1.00  0.00    -0.100 OA 
HETATM    8  N   UNL     1      -9.648   6.462  71.964  1.00  0.00    -0.152 NA 
HETATM    9  C   UNL     1     -10.436   7.456  71.476  1.00  0.00    -0.201 C  
HETATM   10  O   UNL     1     -11.264   8.075  72.123  1.00  0.00    -0.274 OA 
ENDBRANCH   2   3
TORSDOF 1
ENDMDL
MODEL      190
REMARK 921   NORMALIZED FREE ENERGY PREDICTED BY IDOCK:   -1.66 KCAL/MOL
REMARK 922        TOTAL FREE ENERGY PREDICTED BY IDOCK:   -1.79 KCAL/MOL
REMARK 923 INTER-LIGAND FREE ENERGY PREDICTED BY IDOCK:   -1.77 KCAL/MOL
REMARK 924 INTRA-LIGAND FREE ENERGY PREDICTED BY IDOCK:   -0.02 KCAL/MOL
REMARK 927      BINDING AFFINITY PREDICTED BY RF-SCORE:    0.00 PKD
ROOT
HETATM    1  C   UNL     1      -9.730   6.525  71.017  1.00  0.00    -0.189 C  
HETATM    2  C   UNL     1     -10.077   7.814  70.280  1.00  0.00    -0.195 C  
ENDROOT
BRANCH   2   3
HETATM    3  C   UNL     1      -9.335   8.051  68.954  1.00  0.00    -0.150 C  
HETATM    4  C   UNL     1      -8.080   8.904  69.221  1.00  0.00    -0.109 C  
HETATM    5  C   UNL     1      -8.935   6.774  68.195  1.00  0.00    -0.118 C  
HETATM    6  C   UNL     1      -9.137   7.151  66.753  1.00  0.00    -0.147 C  
HETATM    7  O   UNL     1      -8.738   6.518  65.791  1.00  0.00    -0.151 OA 
HETATM    8  N   UNL     1      -9.882   8.284  66.699  1.00  0.00    -0.249 NA 
HETATM    9  C   UNL     1     -10.172   8.790  67.926  1.00  0.00    -0.219 C  
HETATM   10  O   UNL     1     -10.923   9.727  68.139  1.00  0.00    -0.239 OA 
ENDBRANCH   2   3
TORSDOF 1
ENDMDL
MODEL      191
REMARK 921   NORMALIZED FREE ENERGY PREDICTED BY IDOCK:   -1.64 KCAL/MOL
REMARK 922        TOTAL FREE ENERGY PREDICTED BY IDOCK:   -1.77 KCAL/MOL
REMARK 923 INTER-LIGAND FREE ENERGY PREDICTED BY IDOCK:   -1.74 KCAL/MOL
REMARK 924 INTRA-LIGAND FREE ENERGY PREDICTED BY IDOCK:   -0.04 KCAL/MOL
REMARK 927      BINDING AFFINITY PREDICTED BY RF-SCORE:    0.00 PKD
ROOT
HETATM    1  C   UNL     1      -9.830  11.511  68.192  1.00  0.00    -0.197 C  
HETATM    2  C   UNL     1      -9.704  10.334  67.230  1.00  0.00    -0.199 C  
ENDROOT
BRANCH   2   3
HETATM    3  C   UNL     1      -9.085   9.052  67.814  1.00  0.00    -0.143 C  
HETATM    4  C   UNL     1      -7.842   8.668  66.987  1.00  0.00    -0.096 C  
HETATM    5  C   UNL     1      -8.707   9.132  69.302  1.00  0.00    -0.139 C  
HETATM    6  C   UNL     1      -9.042   7.760  69.819  1.00  0.00    -0.147 C  
HETATM    7  O   UNL     1      -8.704   7.304  70.897  1.00  0.00    -0.145 OA 
HETATM    8  N   UNL     1      -9.828   7.132  68.907  1.00  0.00    -0.153 NA 
HETATM    9  C   UNL     1     -10.031   7.866  67.782  1.00  0.00    -0.173 C  
HETATM   10  O   UNL     1     -10.794   7.568  66.879  1.00  0.00    -0.345 OA 
ENDBRANCH   2   3
TORSDOF 1
ENDMDL
MODEL      192
REMARK 921   NORMALIZED FREE ENERGY PREDICTED BY IDOCK:   -1.64 KCAL/MOL
REMARK 922        TOTAL FREE ENERGY PREDICTED BY IDOCK:   -1.77 KCAL/MOL
REMARK 923 INTER-LIGAND FREE ENERGY PREDICTED BY IDOCK:   -1.76 KCAL/MOL
REMARK 924 INTRA-LIGAND FREE ENERGY PREDICTED BY IDOCK:   -0.01 KCAL/MOL
REMARK 927      BINDING AFFINITY PREDICTED BY RF-SCORE:    0.00 PKD
ROOT
HETATM    1  C   UNL     1      -8.205   9.532  65.851  1.00  0.00    -0.115 C  
HETATM    2  C   UNL     1      -8.811   8.147  65.652  1.00  0.00    -0.160 C  
ENDROOT
BRANCH   2   3
HETATM    3  C   UNL     1      -9.068   7.334  66.932  1.00  0.00    -0.162 C  
HETATM    4  C   UNL     1      -7.717   6.900  67.535  1.00  0.00    -0.111 C  
HETATM    5  C   UNL     1      -9.899   8.056  68.006  1.00  0.00    -0.198 C  
HETATM    6  C   UNL     1     -10.746   6.957  68.585  1.00  0.00    -0.216 C  
HETATM    7  O   UNL     1     -11.400   7.030  69.611  1.00  0.00    -0.220 OA 
HETATM    8  N   UNL     1     -10.704   5.889  67.750  1.00  0.00    -0.269 NA 
HETATM    9  C   UNL     1      -9.877   6.075  66.688  1.00  0.00    -0.164 C  
HETATM   10  O   UNL     1      -9.765   5.311  65.744  1.00  0.00    -0.141 OA 
ENDBRANCH   2   3
TORSDOF 1
ENDMDL
MODEL      193
REMARK 921   NORMALIZED FREE ENERGY PREDICTED BY IDOCK:   -1.64 KCAL/MOL
REMARK 922        TOTAL FREE ENERGY PREDICTED BY IDOCK:   -1.77 KCAL/MOL
REMARK 923 INTER-LIGAND FREE ENERGY PREDICTED BY IDOCK:   -1.68 KCAL/MOL
REMARK 924 INTRA-LIGAND FREE ENERGY PREDICTED BY IDOCK:   -0.09 KCAL/MOL
REMARK 927      BINDING AFFINITY PREDICTED BY RF-SCORE:    0.00 PKD
ROOT
HETATM    1  C   UNL     1      -8.886   8.989  68.860  1.00  0.00    -0.139 C  
HETATM    2  C   UNL     1     -10.047   8.253  68.199  1.00  0.00    -0.238 C  
ENDROOT
BRANCH   2   3
HETATM    3  C   UNL     1      -9.822   6.759  67.913  1.00  0.00    -0.146 C  
HETATM    4  C   UNL     1     -10.980   6.229  67.045  1.00  0.00    -0.442 C  
HETATM    5  C   UNL     1      -8.481   6.420  67.241  1.00  0.00    -0.111 C  
HETATM    6  C   UNL     1      -8.092   5.117  67.883  1.00  0.00    -0.098 C  
HETATM    7  O   UNL     1      -7.207   4.372  67.498  1.00  0.00    -0.066 OA 
HETATM    8  N   UNL     1      -8.853   4.933  68.991  1.00  0.00    -0.091 NA 
HETATM    9  C   UNL     1      -9.778   5.912  69.171  1.00  0.00    -0.140 C  
HETATM   10  O   UNL     1     -10.492   6.029  70.152  1.00  0.00    -0.207 OA 
ENDBRANCH   2   3
TORSDOF 1
ENDMDL
MODEL      194
REMARK 921   NORMALIZED FREE ENERGY PREDICTED BY IDOCK:   -1.63 KCAL/MOL
REMARK 922        TOTAL FREE ENERGY PREDICTED BY IDOCK:   -1.76 KCAL/MOL
REMARK 923 INTER-LIGAND FREE ENERGY PREDICTED BY IDOCK:   -1.76 KCAL/MOL
REMARK 924 INTRA-LIGAND FREE ENERGY PREDICTED BY IDOCK:   -0.00 KCAL/MOL
REMARK 927      BINDING AFFINITY PREDICTED BY RF-SCORE:    0.00 PKD
ROOT
HETATM    1  C   UNL     1      -9.140   7.261  69.709  1.00  0.00    -0.141 C  
HETATM    2  C   UNL     1      -9.223   8.291  68.587  1.00  0.00    -0.143 C  
ENDROOT
BRANCH   2   3
HETATM    3  C   UNL     1      -9.133   7.734  67.156  1.00  0.00    -0.154 C  
HETATM    4  C   UNL     1      -9.479   8.854  66.155  1.00  0.00    -0.318 C  
HETATM    5  C   UNL     1      -7.776   7.114  66.783  1.00  0.00    -0.098 C  
HETATM    6  C   UNL     1      -8.156   5.942  65.920  1.00  0.00    -0.118 C  
HETATM    7  O   UNL     1      -7.393   5.293  65.227  1.00  0.00    -0.066 OA 
HETATM    8  N   UNL     1      -9.481   5.694  66.083  1.00  0.00    -0.157 NA 
HETATM    9  C   UNL     1     -10.094   6.589  66.900  1.00  0.00    -0.192 C  
HETATM   10  O   UNL     1     -11.246   6.505  67.292  1.00  0.00    -0.376 OA 
ENDBRANCH   2   3
TORSDOF 1
ENDMDL
MODEL      195
REMARK 921   NORMALIZED FREE ENERGY PREDICTED BY IDOCK:   -1.62 KCAL/MOL
REMARK 922        TOTAL FREE ENERGY PREDICTED BY IDOCK:   -1.75 KCAL/MOL
REMARK 923 INTER-LIGAND FREE ENERGY PREDICTED BY IDOCK:   -1.81 KCAL/MOL
REMARK 924 INTRA-LIGAND FREE ENERGY PREDICTED BY IDOCK:    0.06 KCAL/MOL
REMARK 927      BINDING AFFINITY PREDICTED BY RF-SCORE:    0.00 PKD
ROOT
HETATM    1  C   UNL     1      -6.948   7.808  69.245  1.00  0.00    -0.060 C  
HETATM    2  C   UNL     1      -7.187   7.403  70.696  1.00  0.00    -0.068 C  
ENDROOT
BRANCH   2   3
HETATM    3  C   UNL     1      -8.656   7.341  71.143  1.00  0.00    -0.130 C  
HETATM    4  C   UNL     1      -9.503   6.716  70.017  1.00  0.00    -0.161 C  
HETATM    5  C   UNL     1      -8.906   6.579  72.455  1.00  0.00    -0.133 C  
HETATM    6  C   UNL     1      -9.998   7.374  73.116  1.00  0.00    -0.268 C  
HETATM    7  O   UNL     1     -10.658   7.014  74.074  1.00  0.00    -0.341 OA 
HETATM    8  N   UNL     1     -10.091   8.580  72.500  1.00  0.00    -0.287 NA 
HETATM    9  C   UNL     1      -9.246   8.706  71.444  1.00  0.00    -0.235 C  
HETATM   10  O   UNL     1      -9.061   9.733  70.813  1.00  0.00    -0.127 OA 
ENDBRANCH   2   3
TORSDOF 1
ENDMDL
MODEL      196
REMARK 921   NORMALIZED FREE ENERGY PREDICTED BY IDOCK:   -1.58 KCAL/MOL
REMARK 922        TOTAL FREE ENERGY PREDICTED BY IDOCK:   -1.71 KCAL/MOL
REMARK 923 INTER-LIGAND FREE ENERGY PREDICTED BY IDOCK:   -1.70 KCAL/MOL
REMARK 924 INTRA-LIGAND FREE ENERGY PREDICTED BY IDOCK:   -0.02 KCAL/MOL
REMARK 927      BINDING AFFINITY PREDICTED BY RF-SCORE:    0.00 PKD
ROOT
HETATM    1  C   UNL     1      -9.236   6.147  66.904  1.00  0.00    -0.135 C  
HETATM    2  C   UNL     1      -8.942   6.503  68.357  1.00  0.00    -0.125 C  
ENDROOT
BRANCH   2   3
HETATM    3  C   UNL     1      -9.277   7.944  68.778  1.00  0.00    -0.143 C  
HETATM    4  C   UNL     1      -9.095   8.880  67.566  1.00  0.00    -0.146 C  
HETATM    5  C   UNL     1     -10.683   8.140  69.370  1.00  0.00    -0.164 C  
HETATM    6  C   UNL     1     -10.464   9.160  70.453  1.00  0.00    -0.223 C  
HETATM    7  O   UNL     1     -11.339   9.772  71.039  1.00  0.00    -0.329 OA 
HETATM    8  N   UNL     1      -9.133   9.247  70.705  1.00  0.00    -0.250 NA 
HETATM    9  C   UNL     1      -8.383   8.465  69.887  1.00  0.00    -0.124 C  
HETATM   10  O   UNL     1      -7.182   8.283  69.998  1.00  0.00    -0.056 OA 
ENDBRANCH   2   3
TORSDOF 1
ENDMDL
MODEL      197
REMARK 921   NORMALIZED FREE ENERGY PREDICTED BY IDOCK:   -1.58 KCAL/MOL
REMARK 922        TOTAL FREE ENERGY PREDICTED BY IDOCK:   -1.71 KCAL/MOL
REMARK 923 INTER-LIGAND FREE ENERGY PREDICTED BY IDOCK:   -1.80 KCAL/MOL
REMARK 924 INTRA-LIGAND FREE ENERGY PREDICTED BY IDOCK:    0.10 KCAL/MOL
REMARK 927      BINDING AFFINITY PREDICTED BY RF-SCORE:    0.00 PKD
ROOT
HETATM    1  C   UNL     1     -10.670   5.857  71.871  1.00  0.00    -0.290 C  
HETATM    2  C   UNL     1     -10.331   6.083  70.401  1.00  0.00    -0.282 C  
ENDROOT
BRANCH   2   3
HETATM    3  C   UNL     1      -9.330   7.212  70.108  1.00  0.00    -0.158 C  
HETATM    4  C   UNL     1      -8.166   7.131  71.115  1.00  0.00    -0.112 C  
HETATM    5  C   UNL     1      -8.768   7.228  68.676  1.00  0.00    -0.127 C  
HETATM    6  C   UNL     1      -8.665   8.695  68.361  1.00  0.00    -0.142 C  
HETATM    7  O   UNL     1      -8.068   9.178  67.416  1.00  0.00    -0.106 OA 
HETATM    8  N   UNL     1      -9.392   9.388  69.274  1.00  0.00    -0.160 NA 
HETATM    9  C   UNL     1      -9.938   8.596  70.233  1.00  0.00    -0.186 C  
HETATM   10  O   UNL     1     -10.725   8.970  71.087  1.00  0.00    -0.239 OA 
ENDBRANCH   2   3
TORSDOF 1
ENDMDL
MODEL      198
REMARK 921   NORMALIZED FREE ENERGY PREDICTED BY IDOCK:   -1.55 KCAL/MOL
REMARK 922        TOTAL FREE ENERGY PREDICTED BY IDOCK:   -1.68 KCAL/MOL
REMARK 923 INTER-LIGAND FREE ENERGY PREDICTED BY IDOCK:   -1.66 KCAL/MOL
REMARK 924 INTRA-LIGAND FREE ENERGY PREDICTED BY IDOCK:   -0.02 KCAL/MOL
REMARK 927      BINDING AFFINITY PREDICTED BY RF-SCORE:    0.00 PKD
ROOT
HETATM    1  C   UNL     1     -10.035   6.602  66.722  1.00  0.00    -0.238 C  
HETATM    2  C   UNL     1      -8.979   5.746  66.030  1.00  0.00    -0.157 C  
ENDROOT
BRANCH   2   3
HETATM    3  C   UNL     1      -9.411   4.319  65.654  1.00  0.00    -0.161 C  
HETATM    4  C   UNL     1      -9.519   3.469  66.936  1.00  0.00    -0.198 C  
HETATM    5  C   UNL     1     -10.726   4.224  64.864  1.00  0.00    -0.137 C  
HETATM    6  C   UNL     1     -10.467   3.103  63.895  1.00  0.00    -0.189 C  
HETATM    7  O   UNL     1     -11.310   2.540  63.218  1.00  0.00    -0.317 OA 
HETATM    8  N   UNL     1      -9.133   2.858  63.859  1.00  0.00    -0.101 NA 
HETATM    9  C   UNL     1      -8.427   3.621  64.734  1.00  0.00    -0.100 C  
HETATM   10  O   UNL     1      -7.210   3.668  64.800  1.00  0.00    -0.064 OA 
ENDBRANCH   2   3
TORSDOF 1
ENDMDL
MODEL      199
REMARK 921   NORMALIZED FREE ENERGY PREDICTED BY IDOCK:   -1.54 KCAL/MOL
REMARK 922        TOTAL FREE ENERGY PREDICTED BY IDOCK:   -1.66 KCAL/MOL
REMARK 923 INTER-LIGAND FREE ENERGY PREDICTED BY IDOCK:   -1.65 KCAL/MOL
REMARK 924 INTRA-LIGAND FREE ENERGY PREDICTED BY IDOCK:   -0.02 KCAL/MOL
REMARK 927      BINDING AFFINITY PREDICTED BY RF-SCORE:    0.00 PKD
ROOT
HETATM    1  C   UNL     1     -11.453   7.001  72.774  1.00  0.00    -0.207 C  
HETATM    2  C   UNL     1     -10.830   7.958  71.763  1.00  0.00    -0.286 C  
ENDROOT
BRANCH   2   3
HETATM    3  C   UNL     1      -9.465   7.538  71.193  1.00  0.00    -0.163 C  
HETATM    4  C   UNL     1      -8.355   7.966  72.173  1.00  0.00    -0.168 C  
HETATM    5  C   UNL     1      -9.322   6.039  70.881  1.00  0.00    -0.175 C  
HETATM    6  C   UNL     1      -8.494   6.024  69.626  1.00  0.00    -0.126 C  
HETATM    7  O   UNL     1      -7.956   5.044  69.141  1.00  0.00    -0.079 OA 
HETATM    8  N   UNL     1      -8.489   7.272  69.092  1.00  0.00    -0.132 NA 
HETATM    9  C   UNL     1      -9.154   8.179  69.854  1.00  0.00    -0.151 C  
HETATM   10  O   UNL     1      -9.389   9.331  69.528  1.00  0.00    -0.158 OA 
ENDBRANCH   2   3
TORSDOF 1
ENDMDL
MODEL      200
REMARK 921   NORMALIZED FREE ENERGY PREDICTED BY IDOCK:   -1.51 KCAL/MOL
REMARK 922        TOTAL FREE ENERGY PREDICTED BY IDOCK:   -1.63 KCAL/MOL
REMARK 923 INTER-LIGAND FREE ENERGY PREDICTED BY IDOCK:   -1.60 KCAL/MOL
REMARK 924 INTRA-LIGAND FREE ENERGY PREDICTED BY IDOCK:   -0.03 KCAL/MOL
REMARK 927      BINDING AFFINITY PREDICTED BY RF-SCORE:    0.00 PKD
ROOT
HETATM    1  C   UNL     1      -7.064   8.864  70.130  1.00  0.00    -0.048 C  
HETATM    2  C   UNL     1      -7.602   8.550  68.738  1.00  0.00    -0.097 C  
ENDROOT
BRANCH   2   3
HETATM    3  C   UNL     1      -8.518   7.319  68.633  1.00  0.00    -0.129 C  
HETATM    4  C   UNL     1      -7.787   6.210  67.851  1.00  0.00    -0.106 C  
HETATM    5  C   UNL     1      -9.011   6.758  69.978  1.00  0.00    -0.141 C  
HETATM    6  C   UNL     1     -10.420   6.327  69.678  1.00  0.00    -0.238 C  
HETATM    7  O   UNL     1     -11.117   5.630  70.393  1.00  0.00    -0.261 OA 
HETATM    8  N   UNL     1     -10.805   6.886  68.503  1.00  0.00    -0.204 NA 
HETATM    9  C   UNL     1      -9.817   7.602  67.904  1.00  0.00    -0.157 C  
HETATM   10  O   UNL     1      -9.957   8.292  66.908  1.00  0.00    -0.220 OA 
ENDBRANCH   2   3
TORSDOF 1
ENDMDL
MODEL      201
REMARK 921   NORMALIZED FREE ENERGY PREDICTED BY IDOCK:   -1.49 KCAL/MOL
REMARK 922        TOTAL FREE ENERGY PREDICTED BY IDOCK:   -1.62 KCAL/MOL
REMARK 923 INTER-LIGAND FREE ENERGY PREDICTED BY IDOCK:   -1.64 KCAL/MOL
REMARK 924 INTRA-LIGAND FREE ENERGY PREDICTED BY IDOCK:    0.03 KCAL/MOL
REMARK 927      BINDING AFFINITY PREDICTED BY RF-SCORE:    0.00 PKD
ROOT
HETATM    1  C   UNL     1      -7.746   7.972  72.409  1.00  0.00    -0.146 C  
HETATM    2  C   UNL     1      -7.871   6.842  71.392  1.00  0.00    -0.098 C  
ENDROOT
BRANCH   2   3
HETATM    3  C   UNL     1      -8.924   5.767  71.707  1.00  0.00    -0.143 C  
HETATM    4  C   UNL     1      -9.144   4.892  70.457  1.00  0.00    -0.176 C  
HETATM    5  C   UNL     1      -8.597   4.867  72.911  1.00  0.00    -0.118 C  
HETATM    6  C   UNL     1      -9.938   4.647  73.554  1.00  0.00    -0.148 C  
HETATM    7  O   UNL     1     -10.187   3.820  74.414  1.00  0.00    -0.154 OA 
HETATM    8  N   UNL     1     -10.813   5.558  73.058  1.00  0.00    -0.253 NA 
HETATM    9  C   UNL     1     -10.272   6.347  72.093  1.00  0.00    -0.186 C  
HETATM   10  O   UNL     1     -10.821   7.310  71.585  1.00  0.00    -0.220 OA 
ENDBRANCH   2   3
TORSDOF 1
ENDMDL
MODEL      202
REMARK 921   NORMALIZED FREE ENERGY PREDICTED BY IDOCK:   -1.49 KCAL/MOL
REMARK 922        TOTAL FREE ENERGY PREDICTED BY IDOCK:   -1.61 KCAL/MOL
REMARK 923 INTER-LIGAND FREE ENERGY PREDICTED BY IDOCK:   -1.57 KCAL/MOL
REMARK 924 INTRA-LIGAND FREE ENERGY PREDICTED BY IDOCK:   -0.04 KCAL/MOL
REMARK 927      BINDING AFFINITY PREDICTED BY RF-SCORE:    0.00 PKD
ROOT
HETATM    1  C   UNL     1      -6.407   4.492  69.149  1.00  0.00    -0.032 C  
HETATM    2  C   UNL     1      -7.567   5.430  68.830  1.00  0.00    -0.079 C  
ENDROOT
BRANCH   2   3
HETATM    3  C   UNL     1      -8.507   5.760  70.001  1.00  0.00    -0.124 C  
HETATM    4  C   UNL     1      -7.837   5.336  71.322  1.00  0.00    -0.107 C  
HETATM    5  C   UNL     1      -8.939   7.232  70.095  1.00  0.00    -0.148 C  
HETATM    6  C   UNL     1     -10.369   7.146  70.552  1.00  0.00    -0.202 C  
HETATM    7  O   UNL     1     -11.040   8.075  70.966  1.00  0.00    -0.244 OA 
HETATM    8  N   UNL     1     -10.805   5.873  70.377  1.00  0.00    -0.300 NA 
HETATM    9  C   UNL     1      -9.838   5.036  69.919  1.00  0.00    -0.226 C  
HETATM   10  O   UNL     1     -10.017   3.880  69.573  1.00  0.00    -0.104 OA 
ENDBRANCH   2   3
TORSDOF 1
ENDMDL
MODEL      203
REMARK 921   NORMALIZED FREE ENERGY PREDICTED BY IDOCK:   -1.49 KCAL/MOL
REMARK 922        TOTAL FREE ENERGY PREDICTED BY IDOCK:   -1.61 KCAL/MOL
REMARK 923 INTER-LIGAND FREE ENERGY PREDICTED BY IDOCK:   -1.70 KCAL/MOL
REMARK 924 INTRA-LIGAND FREE ENERGY PREDICTED BY IDOCK:    0.09 KCAL/MOL
REMARK 927      BINDING AFFINITY PREDICTED BY RF-SCORE:    0.00 PKD
ROOT
HETATM    1  C   UNL     1     -10.734   7.240  67.065  1.00  0.00    -0.406 C  
HETATM    2  C   UNL     1      -9.612   8.140  67.572  1.00  0.00    -0.196 C  
ENDROOT
BRANCH   2   3
HETATM    3  C   UNL     1      -8.967   9.065  66.527  1.00  0.00    -0.177 C  
HETATM    4  C   UNL     1     -10.073   9.695  65.658  1.00  0.00    -0.231 C  
HETATM    5  C   UNL     1      -8.073  10.175  67.103  1.00  0.00    -0.120 C  
HETATM    6  C   UNL     1      -6.950  10.269  66.107  1.00  0.00    -0.116 C  
HETATM    7  O   UNL     1      -6.126  11.164  66.047  1.00  0.00    -0.129 OA 
HETATM    8  N   UNL     1      -6.976   9.165  65.318  1.00  0.00    -0.083 NA 
HETATM    9  C   UNL     1      -8.019   8.339  65.591  1.00  0.00    -0.113 C  
HETATM   10  O   UNL     1      -8.186   7.234  65.101  1.00  0.00    -0.131 OA 
ENDBRANCH   2   3
TORSDOF 1
ENDMDL
MODEL      204
REMARK 921   NORMALIZED FREE ENERGY PREDICTED BY IDOCK:   -1.45 KCAL/MOL
REMARK 922        TOTAL FREE ENERGY PREDICTED BY IDOCK:   -1.57 KCAL/MOL
REMARK 923 INTER-LIGAND FREE ENERGY PREDICTED BY IDOCK:   -1.54 KCAL/MOL
REMARK 924 INTRA-LIGAND FREE ENERGY PREDICTED BY IDOCK:   -0.02 KCAL/MOL
REMARK 927      BINDING AFFINITY PREDICTED BY RF-SCORE:    0.00 PKD
ROOT
HETATM    1  C   UNL     1      -9.522  10.719  65.487  1.00  0.00    -0.253 C  
HETATM    2  C   UNL     1      -9.416  11.115  66.956  1.00  0.00    -0.193 C  
ENDROOT
BRANCH   2   3
HETATM    3  C   UNL     1      -8.627  10.150  67.857  1.00  0.00    -0.118 C  
HETATM    4  C   UNL     1      -8.452   8.804  67.126  1.00  0.00    -0.110 C  
HETATM    5  C   UNL     1      -7.254  10.665  68.318  1.00  0.00    -0.083 C  
HETATM    6  C   UNL     1      -7.145  10.149  69.727  1.00  0.00    -0.127 C  
HETATM    7  O   UNL     1      -6.131  10.135  70.402  1.00  0.00    -0.077 OA 
HETATM    8  N   UNL     1      -8.375   9.752  70.140  1.00  0.00    -0.190 NA 
HETATM    9  C   UNL     1      -9.324   9.859  69.173  1.00  0.00    -0.193 C  
HETATM   10  O   UNL     1     -10.518   9.678  69.339  1.00  0.00    -0.200 OA 
ENDBRANCH   2   3
TORSDOF 1
ENDMDL
MODEL      205
REMARK 921   NORMALIZED FREE ENERGY PREDICTED BY IDOCK:   -1.41 KCAL/MOL
REMARK 922        TOTAL FREE ENERGY PREDICTED BY IDOCK:   -1.53 KCAL/MOL
REMARK 923 INTER-LIGAND FREE ENERGY PREDICTED BY IDOCK:   -1.44 KCAL/MOL
REMARK 924 INTRA-LIGAND FREE ENERGY PREDICTED BY IDOCK:   -0.09 KCAL/MOL
REMARK 927      BINDING AFFINITY PREDICTED BY RF-SCORE:    0.00 PKD
ROOT
HETATM    1  C   UNL     1     -10.852   5.336  66.148  1.00  0.00    -0.142 C  
HETATM    2  C   UNL     1     -10.892   6.326  67.308  1.00  0.00    -0.457 C  
ENDROOT
BRANCH   2   3
HETATM    3  C   UNL     1      -9.562   6.550  68.047  1.00  0.00    -0.119 C  
HETATM    4  C   UNL     1      -9.809   7.453  69.271  1.00  0.00    -0.168 C  
HETATM    5  C   UNL     1      -8.842   5.267  68.494  1.00  0.00    -0.102 C  
HETATM    6  C   UNL     1      -7.389   5.595  68.286  1.00  0.00    -0.076 C  
HETATM    7  O   UNL     1      -6.447   4.949  68.711  1.00  0.00    -0.034 OA 
HETATM    8  N   UNL     1      -7.300   6.699  67.503  1.00  0.00    -0.093 NA 
HETATM    9  C   UNL     1      -8.511   7.230  67.190  1.00  0.00    -0.118 C  
HETATM   10  O   UNL     1      -8.693   8.146  66.406  1.00  0.00    -0.133 OA 
ENDBRANCH   2   3
TORSDOF 1
ENDMDL
MODEL      206
REMARK 921   NORMALIZED FREE ENERGY PREDICTED BY IDOCK:   -1.41 KCAL/MOL
REMARK 922        TOTAL FREE ENERGY PREDICTED BY IDOCK:   -1.53 KCAL/MOL
REMARK 923 INTER-LIGAND FREE ENERGY PREDICTED BY IDOCK:   -1.51 KCAL/MOL
REMARK 924 INTRA-LIGAND FREE ENERGY PREDICTED BY IDOCK:   -0.01 KCAL/MOL
REMARK 927      BINDING AFFINITY PREDICTED BY RF-SCORE:    0.00 PKD
ROOT
HETATM    1  C   UNL     1     -10.226   4.900  70.733  1.00  0.00    -0.276 C  
HETATM    2  C   UNL     1     -10.123   5.230  69.247  1.00  0.00    -0.300 C  
ENDROOT
BRANCH   2   3
HETATM    3  C   UNL     1      -9.317   6.490  68.892  1.00  0.00    -0.131 C  
HETATM    4  C   UNL     1     -10.100   7.737  69.349  1.00  0.00    -0.195 C  
HETATM    5  C   UNL     1      -7.894   6.538  69.473  1.00  0.00    -0.105 C  
HETATM    6  C   UNL     1      -7.094   7.188  68.377  1.00  0.00    -0.085 C  
HETATM    7  O   UNL     1      -5.961   7.622  68.486  1.00  0.00    -0.029 OA 
HETATM    8  N   UNL     1      -7.824   7.163  67.233  1.00  0.00    -0.109 NA 
HETATM    9  C   UNL     1      -9.065   6.638  67.404  1.00  0.00    -0.120 C  
HETATM   10  O   UNL     1      -9.856   6.401  66.506  1.00  0.00    -0.164 OA 
ENDBRANCH   2   3
TORSDOF 1
ENDMDL
MODEL      207
REMARK 921   NORMALIZED FREE ENERGY PREDICTED BY IDOCK:   -1.40 KCAL/MOL
REMARK 922        TOTAL FREE ENERGY PREDICTED BY IDOCK:   -1.52 KCAL/MOL
REMARK 923 INTER-LIGAND FREE ENERGY PREDICTED BY IDOCK:   -1.50 KCAL/MOL
REMARK 924 INTRA-LIGAND FREE ENERGY PREDICTED BY IDOCK:   -0.01 KCAL/MOL
REMARK 927      BINDING AFFINITY PREDICTED BY RF-SCORE:    0.00 PKD
ROOT
HETATM    1  C   UNL     1      -8.436   8.524  69.645  1.00  0.00    -0.130 C  
HETATM    2  C   UNL     1      -7.850   9.802  70.239  1.00  0.00    -0.190 C  
ENDROOT
BRANCH   2   3
HETATM    3  C   UNL     1      -6.736  10.474  69.420  1.00  0.00    -0.076 C  
HETATM    4  C   UNL     1      -5.751   9.396  68.925  1.00  0.00    -0.039 C  
HETATM    5  C   UNL     1      -7.220  11.312  68.226  1.00  0.00    -0.080 C  
HETATM    6  C   UNL     1      -6.271  12.479  68.214  1.00  0.00    -0.065 C  
HETATM    7  O   UNL     1      -6.146  13.284  67.308  1.00  0.00    -0.328 OA 
HETATM    8  N   UNL     1      -5.614  12.518  69.401  1.00  0.00    -0.075 NA 
HETATM    9  C   UNL     1      -5.933  11.482  70.221  1.00  0.00    -0.160 C  
HETATM   10  O   UNL     1      -5.567  11.366  71.378  1.00  0.00    -0.359 OA 
ENDBRANCH   2   3
TORSDOF 1
ENDMDL
MODEL      208
REMARK 921   NORMALIZED FREE ENERGY PREDICTED BY IDOCK:   -1.38 KCAL/MOL
REMARK 922        TOTAL FREE ENERGY PREDICTED BY IDOCK:   -1.49 KCAL/MOL
REMARK 923 INTER-LIGAND FREE ENERGY PREDICTED BY IDOCK:   -1.45 KCAL/MOL
REMARK 924 INTRA-LIGAND FREE ENERGY PREDICTED BY IDOCK:   -0.05 KCAL/MOL
REMARK 927      BINDING AFFINITY PREDICTED BY RF-SCORE:    0.00 PKD
ROOT
HETATM    1  C   UNL     1      -8.108  10.074  65.622  1.00  0.00    -0.138 C  
HETATM    2  C   UNL     1      -7.797   8.581  65.671  1.00  0.00    -0.102 C  
ENDROOT
BRANCH   2   3
HETATM    3  C   UNL     1      -8.803   7.710  66.442  1.00  0.00    -0.179 C  
HETATM    4  C   UNL     1     -10.107   8.505  66.649  1.00  0.00    -0.364 C  
HETATM    5  C   UNL     1      -9.127   6.356  65.787  1.00  0.00    -0.021 C  
HETATM    6  C   UNL     1      -9.264   5.428  66.962  1.00  0.00    -0.113 C  
HETATM    7  O   UNL     1      -9.729   4.302  66.928  1.00  0.00    -0.197 OA 
HETATM    8  N   UNL     1      -8.735   6.031  68.057  1.00  0.00    -0.113 NA 
HETATM    9  C   UNL     1      -8.306   7.296  67.814  1.00  0.00    -0.118 C  
HETATM   10  O   UNL     1      -7.690   7.992  68.604  1.00  0.00    -0.101 OA 
ENDBRANCH   2   3
TORSDOF 1
ENDMDL
MODEL      209
REMARK 921   NORMALIZED FREE ENERGY PREDICTED BY IDOCK:   -1.36 KCAL/MOL
REMARK 922        TOTAL FREE ENERGY PREDICTED BY IDOCK:   -1.47 KCAL/MOL
REMARK 923 INTER-LIGAND FREE ENERGY PREDICTED BY IDOCK:   -1.43 KCAL/MOL
REMARK 924 INTRA-LIGAND FREE ENERGY PREDICTED BY IDOCK:   -0.04 KCAL/MOL
REMARK 927      BINDING AFFINITY PREDICTED BY RF-SCORE:    0.00 PKD
ROOT
HETATM    1  C   UNL     1      -6.545   3.395  67.143  1.00  0.00    -0.038 C  
HETATM    2  C   UNL     1      -7.577   2.736  66.233  1.00  0.00    -0.076 C  
ENDROOT
BRANCH   2   3
HETATM    3  C   UNL     1      -8.384   3.686  65.333  1.00  0.00    -0.105 C  
HETATM    4  C   UNL     1      -7.564   4.968  65.086  1.00  0.00    -0.081 C  
HETATM    5  C   UNL     1      -8.822   3.090  63.985  1.00  0.00    -0.097 C  
HETATM    6  C   UNL     1     -10.190   3.678  63.774  1.00  0.00    -0.225 C  
HETATM    7  O   UNL     1     -10.822   3.650  62.733  1.00  0.00    -0.191 OA 
HETATM    8  N   UNL     1     -10.626   4.197  64.949  1.00  0.00    -0.216 NA 
HETATM    9  C   UNL     1      -9.706   4.109  65.945  1.00  0.00    -0.204 C  
HETATM   10  O   UNL     1      -9.908   4.395  67.113  1.00  0.00    -0.200 OA 
ENDBRANCH   2   3
TORSDOF 1
ENDMDL
MODEL      210
REMARK 921   NORMALIZED FREE ENERGY PREDICTED BY IDOCK:   -1.35 KCAL/MOL
REMARK 922        TOTAL FREE ENERGY PREDICTED BY IDOCK:   -1.47 KCAL/MOL
REMARK 923 INTER-LIGAND FREE ENERGY PREDICTED BY IDOCK:   -1.42 KCAL/MOL
REMARK 924 INTRA-LIGAND FREE ENERGY PREDICTED BY IDOCK:   -0.05 KCAL/MOL
REMARK 927      BINDING AFFINITY PREDICTED BY RF-SCORE:    0.00 PKD
ROOT
HETATM    1  C   UNL     1     -11.036   6.689  70.320  1.00  0.00    -0.379 C  
HETATM    2  C   UNL     1     -10.289   6.592  71.646  1.00  0.00    -0.227 C  
ENDROOT
BRANCH   2   3
HETATM    3  C   UNL     1      -9.384   5.361  71.820  1.00  0.00    -0.170 C  
HETATM    4  C   UNL     1      -9.126   4.724  70.441  1.00  0.00    -0.170 C  
HETATM    5  C   UNL     1      -8.041   5.634  72.517  1.00  0.00    -0.103 C  
HETATM    6  C   UNL     1      -7.829   4.403  73.356  1.00  0.00    -0.090 C  
HETATM    7  O   UNL     1      -6.790   4.091  73.909  1.00  0.00    -0.054 OA 
HETATM    8  N   UNL     1      -9.002   3.726  73.437  1.00  0.00    -0.095 NA 
HETATM    9  C   UNL     1      -9.996   4.291  72.703  1.00  0.00    -0.155 C  
HETATM   10  O   UNL     1     -11.163   3.936  72.712  1.00  0.00     0.021 OA 
ENDBRANCH   2   3
TORSDOF 1
ENDMDL
MODEL      211
REMARK 921   NORMALIZED FREE ENERGY PREDICTED BY IDOCK:   -1.35 KCAL/MOL
REMARK 922        TOTAL FREE ENERGY PREDICTED BY IDOCK:   -1.47 KCAL/MOL
REMARK 923 INTER-LIGAND FREE ENERGY PREDICTED BY IDOCK:   -1.45 KCAL/MOL
REMARK 924 INTRA-LIGAND FREE ENERGY PREDICTED BY IDOCK:   -0.02 KCAL/MOL
REMARK 927      BINDING AFFINITY PREDICTED BY RF-SCORE:    0.00 PKD
ROOT
HETATM    1  C   UNL     1      -9.195   5.348  70.328  1.00  0.00    -0.185 C  
HETATM    2  C   UNL     1      -9.583   5.899  68.959  1.00  0.00    -0.157 C  
ENDROOT
BRANCH   2   3
HETATM    3  C   UNL     1      -8.855   5.280  67.755  1.00  0.00    -0.105 C  
HETATM    4  C   UNL     1      -7.435   4.861  68.182  1.00  0.00    -0.074 C  
HETATM    5  C   UNL     1      -9.570   4.082  67.108  1.00  0.00    -0.231 C  
HETATM    6  C   UNL     1      -9.297   4.266  65.640  1.00  0.00    -0.161 C  
HETATM    7  O   UNL     1      -9.489   3.434  64.772  1.00  0.00    -0.145 OA 
HETATM    8  N   UNL     1      -8.850   5.532  65.437  1.00  0.00    -0.150 NA 
HETATM    9  C   UNL     1      -8.710   6.239  66.588  1.00  0.00    -0.126 C  
HETATM   10  O   UNL     1      -8.440   7.427  66.653  1.00  0.00    -0.116 OA 
ENDBRANCH   2   3
TORSDOF 1
ENDMDL
MODEL      212
REMARK 921   NORMALIZED FREE ENERGY PREDICTED BY IDOCK:   -1.30 KCAL/MOL
REMARK 922        TOTAL FREE ENERGY PREDICTED BY IDOCK:   -1.41 KCAL/MOL
REMARK 923 INTER-LIGAND FREE ENERGY PREDICTED BY IDOCK:   -1.37 KCAL/MOL
REMARK 924 INTRA-LIGAND FREE ENERGY PREDICTED BY IDOCK:   -0.04 KCAL/MOL
REMARK 927      BINDING AFFINITY PREDICTED BY RF-SCORE:    0.00 PKD
ROOT
HETATM    1  C   UNL     1      -5.959   3.326  67.917  1.00  0.00    -0.027 C  
HETATM    2  C   UNL     1      -7.482   3.302  67.997  1.00  0.00    -0.054 C  
ENDROOT
BRANCH   2   3
HETATM    3  C   UNL     1      -8.125   4.367  68.900  1.00  0.00    -0.072 C  
HETATM    4  C   UNL     1      -7.054   5.399  69.306  1.00  0.00    -0.060 C  
HETATM    5  C   UNL     1      -9.333   5.096  68.288  1.00  0.00    -0.152 C  
HETATM    6  C   UNL     1     -10.255   5.283  69.462  1.00  0.00    -0.268 C  
HETATM    7  O   UNL     1     -11.236   6.005  69.486  1.00  0.00    -0.398 OA 
HETATM    8  N   UNL     1      -9.844   4.476  70.471  1.00  0.00    -0.218 NA 
HETATM    9  C   UNL     1      -8.706   3.794  70.179  1.00  0.00    -0.069 C  
HETATM   10  O   UNL     1      -8.212   2.923  70.875  1.00  0.00    -0.052 OA 
ENDBRANCH   2   3
TORSDOF 1
ENDMDL
MODEL      213
REMARK 921   NORMALIZED FREE ENERGY PREDICTED BY IDOCK:   -1.29 KCAL/MOL
REMARK 922        TOTAL FREE ENERGY PREDICTED BY IDOCK:   -1.40 KCAL/MOL
REMARK 923 INTER-LIGAND FREE ENERGY PREDICTED BY IDOCK:   -1.38 KCAL/MOL
REMARK 924 INTRA-LIGAND FREE ENERGY PREDICTED BY IDOCK:   -0.02 KCAL/MOL
REMARK 927      BINDING AFFINITY PREDICTED BY RF-SCORE:    0.00 PKD
ROOT
HETATM    1  C   UNL     1      -8.668   8.698  65.516  1.00  0.00    -0.219 C  
HETATM    2  C   UNL     1      -9.400   7.902  66.591  1.00  0.00    -0.244 C  
ENDROOT
BRANCH   2   3
HETATM    3  C   UNL     1      -8.518   7.277  67.684  1.00  0.00    -0.116 C  
HETATM    4  C   UNL     1      -7.135   6.944  67.089  1.00  0.00    -0.080 C  
HETATM    5  C   UNL     1      -8.338   8.137  68.946  1.00  0.00    -0.125 C  
HETATM    6  C   UNL     1      -8.334   7.124  70.058  1.00  0.00    -0.138 C  
HETATM    7  O   UNL     1      -8.001   7.336  71.210  1.00  0.00    -0.096 OA 
HETATM    8  N   UNL     1      -8.811   5.948  69.577  1.00  0.00    -0.122 NA 
HETATM    9  C   UNL     1      -9.087   5.989  68.247  1.00  0.00    -0.111 C  
HETATM   10  O   UNL     1      -9.635   5.100  67.617  1.00  0.00    -0.128 OA 
ENDBRANCH   2   3
TORSDOF 1
ENDMDL
MODEL      214
REMARK 921   NORMALIZED FREE ENERGY PREDICTED BY IDOCK:   -1.28 KCAL/MOL
REMARK 922        TOTAL FREE ENERGY PREDICTED BY IDOCK:   -1.39 KCAL/MOL
REMARK 923 INTER-LIGAND FREE ENERGY PREDICTED BY IDOCK:   -1.36 KCAL/MOL
REMARK 924 INTRA-LIGAND FREE ENERGY PREDICTED BY IDOCK:   -0.04 KCAL/MOL
REMARK 927      BINDING AFFINITY PREDICTED BY RF-SCORE:    0.00 PKD
ROOT
HETATM    1  C   UNL     1      -9.544  10.671  65.432  1.00  0.00    -0.282 C  
HETATM    2  C   UNL     1      -9.349  10.829  66.936  1.00  0.00    -0.179 C  
ENDROOT
BRANCH   2   3
HETATM    3  C   UNL     1      -8.603   9.685  67.642  1.00  0.00    -0.126 C  
HETATM    4  C   UNL     1      -8.371  10.066  69.118  1.00  0.00    -0.146 C  
HETATM    5  C   UNL     1      -9.296   8.314  67.570  1.00  0.00    -0.166 C  
HETATM    6  C   UNL     1      -8.149   7.353  67.423  1.00  0.00    -0.113 C  
HETATM    7  O   UNL     1      -8.216   6.143  67.546  1.00  0.00    -0.109 OA 
HETATM    8  N   UNL     1      -7.037   8.052  67.080  1.00  0.00    -0.080 NA 
HETATM    9  C   UNL     1      -7.244   9.394  67.034  1.00  0.00    -0.087 C  
HETATM   10  O   UNL     1      -6.435  10.215  66.636  1.00  0.00    -0.068 OA 
ENDBRANCH   2   3
TORSDOF 1
ENDMDL
MODEL      215
REMARK 921   NORMALIZED FREE ENERGY PREDICTED BY IDOCK:   -1.28 KCAL/MOL
REMARK 922        TOTAL FREE ENERGY PREDICTED BY IDOCK:   -1.39 KCAL/MOL
REMARK 923 INTER-LIGAND FREE ENERGY PREDICTED BY IDOCK:   -1.35 KCAL/MOL
REMARK 924 INTRA-LIGAND FREE ENERGY PREDICTED BY IDOCK:   -0.04 KCAL/MOL
REMARK 927      BINDING AFFINITY PREDICTED BY RF-SCORE:    0.00 PKD
ROOT
HETATM    1  C   UNL     1     -10.830   6.021  67.022  1.00  0.00    -0.413 C  
HETATM    2  C   UNL     1      -9.411   6.373  66.586  1.00  0.00    -0.191 C  
ENDROOT
BRANCH   2   3
HETATM    3  C   UNL     1      -8.726   5.366  65.648  1.00  0.00    -0.152 C  
HETATM    4  C   UNL     1      -9.721   4.242  65.298  1.00  0.00    -0.201 C  
HETATM    5  C   UNL     1      -8.156   5.967  64.352  1.00  0.00    -0.128 C  
HETATM    6  C   UNL     1      -6.885   5.190  64.139  1.00  0.00    -0.047 C  
HETATM    7  O   UNL     1      -6.220   5.182  63.119  1.00  0.00    -0.021 OA 
HETATM    8  N   UNL     1      -6.574   4.542  65.290  1.00  0.00    -0.046 NA 
HETATM    9  C   UNL     1      -7.505   4.710  66.265  1.00  0.00    -0.082 C  
HETATM   10  O   UNL     1      -7.390   4.328  67.418  1.00  0.00    -0.068 OA 
ENDBRANCH   2   3
TORSDOF 1
ENDMDL
MODEL      216
REMARK 921   NORMALIZED FREE ENERGY PREDICTED BY IDOCK:   -1.22 KCAL/MOL
REMARK 922        TOTAL FREE ENERGY PREDICTED BY IDOCK:   -1.33 KCAL/MOL
REMARK 923 INTER-LIGAND FREE ENERGY PREDICTED BY IDOCK:   -1.30 KCAL/MOL
REMARK 924 INTRA-LIGAND FREE ENERGY PREDICTED BY IDOCK:   -0.03 KCAL/MOL
REMARK 927      BINDING AFFINITY PREDICTED BY RF-SCORE:    0.00 PKD
ROOT
HETATM    1  C   UNL     1     -10.465   7.971  69.058  1.00  0.00    -0.212 C  
HETATM    2  C   UNL     1      -8.990   7.612  69.200  1.00  0.00    -0.135 C  
ENDROOT
BRANCH   2   3
HETATM    3  C   UNL     1      -8.552   7.104  70.584  1.00  0.00    -0.143 C  
HETATM    4  C   UNL     1      -7.603   8.137  71.225  1.00  0.00    -0.084 C  
HETATM    5  C   UNL     1      -9.701   6.792  71.557  1.00  0.00    -0.168 C  
HETATM    6  C   UNL     1      -9.211   5.576  72.294  1.00  0.00    -0.142 C  
HETATM    7  O   UNL     1      -9.704   5.113  73.307  1.00  0.00    -0.143 OA 
HETATM    8  N   UNL     1      -8.161   5.050  71.614  1.00  0.00    -0.112 NA 
HETATM    9  C   UNL     1      -7.807   5.784  70.527  1.00  0.00    -0.100 C  
HETATM   10  O   UNL     1      -6.977   5.453  69.697  1.00  0.00    -0.057 OA 
ENDBRANCH   2   3
TORSDOF 1
ENDMDL
MODEL      217
REMARK 921   NORMALIZED FREE ENERGY PREDICTED BY IDOCK:   -1.17 KCAL/MOL
REMARK 922        TOTAL FREE ENERGY PREDICTED BY IDOCK:   -1.27 KCAL/MOL
REMARK 923 INTER-LIGAND FREE ENERGY PREDICTED BY IDOCK:   -1.25 KCAL/MOL
REMARK 924 INTRA-LIGAND FREE ENERGY PREDICTED BY IDOCK:   -0.02 KCAL/MOL
REMARK 927      BINDING AFFINITY PREDICTED BY RF-SCORE:    0.00 PKD
ROOT
HETATM    1  C   UNL     1     -10.531   5.044  66.908  1.00  0.00    -0.243 C  
HETATM    2  C   UNL     1     -10.195   6.179  67.870  1.00  0.00    -0.212 C  
ENDROOT
BRANCH   2   3
HETATM    3  C   UNL     1      -8.741   6.232  68.366  1.00  0.00    -0.116 C  
HETATM    4  C   UNL     1      -8.127   4.821  68.285  1.00  0.00    -0.085 C  
HETATM    5  C   UNL     1      -7.835   7.228  67.623  1.00  0.00    -0.113 C  
HETATM    6  C   UNL     1      -6.953   7.774  68.713  1.00  0.00    -0.067 C  
HETATM    7  O   UNL     1      -5.942   8.433  68.545  1.00  0.00    -0.040 OA 
HETATM    8  N   UNL     1      -7.498   7.455  69.914  1.00  0.00    -0.083 NA 
HETATM    9  C   UNL     1      -8.618   6.694  69.806  1.00  0.00    -0.136 C  
HETATM   10  O   UNL     1      -9.347   6.384  70.734  1.00  0.00    -0.157 OA 
ENDBRANCH   2   3
TORSDOF 1
ENDMDL
MODEL      218
REMARK 921   NORMALIZED FREE ENERGY PREDICTED BY IDOCK:   -1.16 KCAL/MOL
REMARK 922        TOTAL FREE ENERGY PREDICTED BY IDOCK:   -1.26 KCAL/MOL
REMARK 923 INTER-LIGAND FREE ENERGY PREDICTED BY IDOCK:   -1.27 KCAL/MOL
REMARK 924 INTRA-LIGAND FREE ENERGY PREDICTED BY IDOCK:    0.01 KCAL/MOL
REMARK 927      BINDING AFFINITY PREDICTED BY RF-SCORE:    0.00 PKD
ROOT
HETATM    1  C   UNL     1      -8.669   9.232  65.828  1.00  0.00    -0.182 C  
HETATM    2  C   UNL     1      -9.400   7.974  66.285  1.00  0.00    -0.246 C  
ENDROOT
BRANCH   2   3
HETATM    3  C   UNL     1      -8.508   6.796  66.711  1.00  0.00    -0.117 C  
HETATM    4  C   UNL     1      -7.235   7.343  67.387  1.00  0.00    -0.093 C  
HETATM    5  C   UNL     1      -9.182   5.772  67.640  1.00  0.00    -0.105 C  
HETATM    6  C   UNL     1      -8.618   4.458  67.173  1.00  0.00    -0.104 C  
HETATM    7  O   UNL     1      -8.709   3.396  67.764  1.00  0.00    -0.096 OA 
HETATM    8  N   UNL     1      -8.038   4.639  65.960  1.00  0.00    -0.103 NA 
HETATM    9  C   UNL     1      -8.063   5.933  65.545  1.00  0.00    -0.131 C  
HETATM   10  O   UNL     1      -7.714   6.323  64.444  1.00  0.00    -0.093 OA 
ENDBRANCH   2   3
TORSDOF 1
ENDMDL
MODEL      219
REMARK 921   NORMALIZED FREE ENERGY PREDICTED BY IDOCK:   -1.12 KCAL/MOL
REMARK 922        TOTAL FREE ENERGY PREDICTED BY IDOCK:   -1.22 KCAL/MOL
REMARK 923 INTER-LIGAND FREE ENERGY PREDICTED BY IDOCK:   -1.20 KCAL/MOL
REMARK 924 INTRA-LIGAND FREE ENERGY PREDICTED BY IDOCK:   -0.02 KCAL/MOL
REMARK 927      BINDING AFFINITY PREDICTED BY RF-SCORE:    0.00 PKD
ROOT
HETATM    1  C   UNL     1     -10.056   4.492  67.443  1.00  0.00    -0.117 C  
HETATM    2  C   UNL     1      -9.966   5.991  67.713  1.00  0.00    -0.149 C  
ENDROOT
BRANCH   2   3
HETATM    3  C   UNL     1      -8.863   6.745  66.952  1.00  0.00    -0.120 C  
HETATM    4  C   UNL     1      -7.523   6.565  67.693  1.00  0.00    -0.097 C  
HETATM    5  C   UNL     1      -8.692   6.338  65.479  1.00  0.00    -0.090 C  
HETATM    6  C   UNL     1      -8.376   7.639  64.794  1.00  0.00    -0.027 C  
HETATM    7  O   UNL     1      -7.952   7.759  63.658  1.00  0.00    -0.138 OA 
HETATM    8  N   UNL     1      -8.689   8.659  65.632  1.00  0.00    -0.173 NA 
HETATM    9  C   UNL     1      -9.123   8.236  66.848  1.00  0.00    -0.150 C  
HETATM   10  O   UNL     1      -9.573   8.958  67.722  1.00  0.00    -0.142 OA 
ENDBRANCH   2   3
TORSDOF 1
ENDMDL
MODEL      220
REMARK 921   NORMALIZED FREE ENERGY PREDICTED BY IDOCK:   -1.10 KCAL/MOL
REMARK 922        TOTAL FREE ENERGY PREDICTED BY IDOCK:   -1.20 KCAL/MOL
REMARK 923 INTER-LIGAND FREE ENERGY PREDICTED BY IDOCK:   -1.41 KCAL/MOL
REMARK 924 INTRA-LIGAND FREE ENERGY PREDICTED BY IDOCK:    0.21 KCAL/MOL
REMARK 927      BINDING AFFINITY PREDICTED BY RF-SCORE:    0.00 PKD
ROOT
HETATM    1  C   UNL     1     -10.487   8.251  69.184  1.00  0.00    -0.217 C  
HETATM    2  C   UNL     1     -10.751   7.087  70.134  1.00  0.00    -0.265 C  
ENDROOT
BRANCH   2   3
HETATM    3  C   UNL     1      -9.508   6.448  70.775  1.00  0.00    -0.179 C  
HETATM    4  C   UNL     1      -9.903   5.817  72.125  1.00  0.00    -0.181 C  
HETATM    5  C   UNL     1      -8.795   5.397  69.908  1.00  0.00    -0.140 C  
HETATM    6  C   UNL     1      -7.340   5.630  70.208  1.00  0.00    -0.076 C  
HETATM    7  O   UNL     1      -6.425   4.883  69.907  1.00  0.00    -0.032 OA 
HETATM    8  N   UNL     1      -7.209   6.833  70.821  1.00  0.00    -0.069 NA 
HETATM    9  C   UNL     1      -8.400   7.446  71.052  1.00  0.00    -0.114 C  
HETATM   10  O   UNL     1      -8.533   8.581  71.479  1.00  0.00    -0.141 OA 
ENDBRANCH   2   3
TORSDOF 1
ENDMDL
MODEL      221
REMARK 921   NORMALIZED FREE ENERGY PREDICTED BY IDOCK:   -1.06 KCAL/MOL
REMARK 922        TOTAL FREE ENERGY PREDICTED BY IDOCK:   -1.16 KCAL/MOL
REMARK 923 INTER-LIGAND FREE ENERGY PREDICTED BY IDOCK:   -1.11 KCAL/MOL
REMARK 924 INTRA-LIGAND FREE ENERGY PREDICTED BY IDOCK:   -0.05 KCAL/MOL
REMARK 927      BINDING AFFINITY PREDICTED BY RF-SCORE:    0.00 PKD
ROOT
HETATM    1  C   UNL     1      -9.266   7.928  69.739  1.00  0.00    -0.150 C  
HETATM    2  C   UNL     1      -9.414   6.890  70.847  1.00  0.00    -0.157 C  
ENDROOT
BRANCH   2   3
HETATM    3  C   UNL     1      -8.492   5.664  70.749  1.00  0.00    -0.124 C  
HETATM    4  C   UNL     1      -7.317   5.989  69.805  1.00  0.00    -0.079 C  
HETATM    5  C   UNL     1      -7.944   5.152  72.092  1.00  0.00    -0.112 C  
HETATM    6  C   UNL     1      -7.941   3.659  71.918  1.00  0.00    -0.063 C  
HETATM    7  O   UNL     1      -7.384   2.860  72.650  1.00  0.00    -0.042 OA 
HETATM    8  N   UNL     1      -8.704   3.344  70.841  1.00  0.00    -0.071 NA 
HETATM    9  C   UNL     1      -9.189   4.436  70.194  1.00  0.00    -0.132 C  
HETATM   10  O   UNL     1      -9.992   4.409  69.277  1.00  0.00    -0.183 OA 
ENDBRANCH   2   3
TORSDOF 1
ENDMDL
MODEL      222
REMARK 921   NORMALIZED FREE ENERGY PREDICTED BY IDOCK:   -1.03 KCAL/MOL
REMARK 922        TOTAL FREE ENERGY PREDICTED BY IDOCK:   -1.13 KCAL/MOL
REMARK 923 INTER-LIGAND FREE ENERGY PREDICTED BY IDOCK:   -1.86 KCAL/MOL
REMARK 924 INTRA-LIGAND FREE ENERGY PREDICTED BY IDOCK:    0.73 KCAL/MOL
REMARK 927      BINDING AFFINITY PREDICTED BY RF-SCORE:    0.00 PKD
ROOT
HETATM    1  C   UNL     1     -10.311   9.659  70.642  1.00  0.00    -0.365 C  
HETATM    2  C   UNL     1      -9.051   9.119  71.311  1.00  0.00    -0.232 C  
ENDROOT
BRANCH   2   3
HETATM    3  C   UNL     1      -8.861   7.594  71.256  1.00  0.00    -0.139 C  
HETATM    4  C   UNL     1      -7.629   7.268  70.389  1.00  0.00    -0.088 C  
HETATM    5  C   UNL     1      -8.721   6.905  72.624  1.00  0.00    -0.132 C  
HETATM    6  C   UNL     1      -9.455   5.606  72.434  1.00  0.00    -0.143 C  
HETATM    7  O   UNL     1      -9.416   4.651  73.190  1.00  0.00    -0.124 OA 
HETATM    8  N   UNL     1     -10.210   5.693  71.310  1.00  0.00    -0.212 NA 
HETATM    9  C   UNL     1     -10.045   6.867  70.646  1.00  0.00    -0.194 C  
HETATM   10  O   UNL     1     -10.700   7.225  69.682  1.00  0.00    -0.231 OA 
ENDBRANCH   2   3
TORSDOF 1
ENDMDL
MODEL      223
REMARK 921   NORMALIZED FREE ENERGY PREDICTED BY IDOCK:   -0.97 KCAL/MOL
REMARK 922        TOTAL FREE ENERGY PREDICTED BY IDOCK:   -1.06 KCAL/MOL
REMARK 923 INTER-LIGAND FREE ENERGY PREDICTED BY IDOCK:   -0.98 KCAL/MOL
REMARK 924 INTRA-LIGAND FREE ENERGY PREDICTED BY IDOCK:   -0.08 KCAL/MOL
REMARK 927      BINDING AFFINITY PREDICTED BY RF-SCORE:    0.00 PKD
ROOT
HETATM    1  C   UNL     1      -9.496   7.032  69.400  1.00  0.00    -0.145 C  
HETATM    2  C   UNL     1      -8.454   7.411  68.352  1.00  0.00    -0.125 C  
ENDROOT
BRANCH   2   3
HETATM    3  C   UNL     1      -7.213   8.153  68.876  1.00  0.00    -0.078 C  
HETATM    4  C   UNL     1      -6.317   8.544  67.684  1.00  0.00    -0.053 C  
HETATM    5  C   UNL     1      -7.510   9.400  69.724  1.00  0.00    -0.087 C  
HETATM    6  C   UNL     1      -6.441   9.363  70.782  1.00  0.00    -0.086 C  
HETATM    7  O   UNL     1      -6.160  10.274  71.540  1.00  0.00    -0.313 OA 
HETATM    8  N   UNL     1      -5.877   8.128  70.786  1.00  0.00    -0.032 NA 
HETATM    9  C   UNL     1      -6.369   7.314  69.817  1.00  0.00    -0.035 C  
HETATM   10  O   UNL     1      -6.108   6.128  69.698  1.00  0.00    -0.024 OA 
ENDBRANCH   2   3
TORSDOF 1
ENDMDL
MODEL      224
REMARK 921   NORMALIZED FREE ENERGY PREDICTED BY IDOCK:   -0.91 KCAL/MOL
REMARK 922        TOTAL FREE ENERGY PREDICTED BY IDOCK:   -1.00 KCAL/MOL
REMARK 923 INTER-LIGAND FREE ENERGY PREDICTED BY IDOCK:   -0.99 KCAL/MOL
REMARK 924 INTRA-LIGAND FREE ENERGY PREDICTED BY IDOCK:   -0.02 KCAL/MOL
REMARK 927      BINDING AFFINITY PREDICTED BY RF-SCORE:    0.00 PKD
ROOT
HETATM    1  C   UNL     1     -10.867   5.002  65.937  1.00  0.00    -0.123 C  
HETATM    2  C   UNL     1     -10.139   4.365  67.117  1.00  0.00    -0.121 C  
ENDROOT
BRANCH   2   3
HETATM    3  C   UNL     1      -9.015   3.378  66.761  1.00  0.00    -0.166 C  
HETATM    4  C   UNL     1      -9.361   2.675  65.433  1.00  0.00    -0.060 C  
HETATM    5  C   UNL     1      -7.611   3.998  66.662  1.00  0.00    -0.088 C  
HETATM    6  C   UNL     1      -6.720   2.931  67.234  1.00  0.00    -0.041 C  
HETATM    7  O   UNL     1      -5.504   2.903  67.156  1.00  0.00    -0.016 OA 
HETATM    8  N   UNL     1      -7.489   2.031  67.898  1.00  0.00    -0.054 NA 
HETATM    9  C   UNL     1      -8.819   2.295  67.805  1.00  0.00    -0.134 C  
HETATM   10  O   UNL     1      -9.695   1.703  68.412  1.00  0.00    -0.182 OA 
ENDBRANCH   2   3
TORSDOF 1
ENDMDL
MODEL      225
REMARK 921   NORMALIZED FREE ENERGY PREDICTED BY IDOCK:   -0.88 KCAL/MOL
REMARK 922        TOTAL FREE ENERGY PREDICTED BY IDOCK:   -0.97 KCAL/MOL
REMARK 923 INTER-LIGAND FREE ENERGY PREDICTED BY IDOCK:   -0.88 KCAL/MOL
REMARK 924 INTRA-LIGAND FREE ENERGY PREDICTED BY IDOCK:   -0.09 KCAL/MOL
REMARK 927      BINDING AFFINITY PREDICTED BY RF-SCORE:    0.00 PKD
ROOT
HETATM    1  C   UNL     1      -8.754   6.404  69.666  1.00  0.00    -0.138 C  
HETATM    2  C   UNL     1      -8.223   7.277  68.534  1.00  0.00    -0.125 C  
ENDROOT
BRANCH   2   3
HETATM    3  C   UNL     1      -7.450   6.544  67.425  1.00  0.00    -0.092 C  
HETATM    4  C   UNL     1      -6.721   7.579  66.547  1.00  0.00    -0.058 C  
HETATM    5  C   UNL     1      -6.443   5.493  67.920  1.00  0.00    -0.047 C  
HETATM    6  C   UNL     1      -6.555   4.397  66.896  1.00  0.00    -0.046 C  
HETATM    7  O   UNL     1      -5.785   3.461  66.770  1.00  0.00    -0.021 OA 
HETATM    8  N   UNL     1      -7.685   4.593  66.171  1.00  0.00    -0.090 NA 
HETATM    9  C   UNL     1      -8.346   5.730  66.511  1.00  0.00    -0.111 C  
HETATM   10  O   UNL     1      -9.442   6.057  66.087  1.00  0.00    -0.154 OA 
ENDBRANCH   2   3
TORSDOF 1
ENDMDL
MODEL      226
REMARK 921   NORMALIZED FREE ENERGY PREDICTED BY IDOCK:   -0.85 KCAL/MOL
REMARK 922        TOTAL FREE ENERGY PREDICTED BY IDOCK:   -0.93 KCAL/MOL
REMARK 923 INTER-LIGAND FREE ENERGY PREDICTED BY IDOCK:   -0.91 KCAL/MOL
REMARK 924 INTRA-LIGAND FREE ENERGY PREDICTED BY IDOCK:   -0.02 KCAL/MOL
REMARK 927      BINDING AFFINITY PREDICTED BY RF-SCORE:    0.00 PKD
ROOT
HETATM    1  C   UNL     1     -11.479   9.740  68.589  1.00  0.00     0.134 C  
HETATM    2  C   UNL     1     -10.154   9.551  69.320  1.00  0.00    -0.203 C  
ENDROOT
BRANCH   2   3
HETATM    3  C   UNL     1      -8.893   9.566  68.440  1.00  0.00    -0.124 C  
HETATM    4  C   UNL     1      -9.306   9.432  66.961  1.00  0.00    -0.185 C  
HETATM    5  C   UNL     1      -7.995  10.803  68.611  1.00  0.00    -0.133 C  
HETATM    6  C   UNL     1      -6.605  10.242  68.488  1.00  0.00    -0.052 C  
HETATM    7  O   UNL     1      -5.586  10.894  68.344  1.00  0.00    -0.044 OA 
HETATM    8  N   UNL     1      -6.668   8.892  68.617  1.00  0.00    -0.058 NA 
HETATM    9  C   UNL     1      -7.938   8.428  68.746  1.00  0.00    -0.120 C  
HETATM   10  O   UNL     1      -8.240   7.272  68.994  1.00  0.00    -0.122 OA 
ENDBRANCH   2   3
TORSDOF 1
ENDMDL
MODEL      227
REMARK 921   NORMALIZED FREE ENERGY PREDICTED BY IDOCK:   -0.60 KCAL/MOL
REMARK 922        TOTAL FREE ENERGY PREDICTED BY IDOCK:   -0.67 KCAL/MOL
REMARK 923 INTER-LIGAND FREE ENERGY PREDICTED BY IDOCK:   -0.65 KCAL/MOL
REMARK 924 INTRA-LIGAND FREE ENERGY PREDICTED BY IDOCK:   -0.02 KCAL/MOL
REMARK 927      BINDING AFFINITY PREDICTED BY RF-SCORE:    0.00 PKD
ROOT
HETATM    1  C   UNL     1      -8.332   8.773  66.951  1.00  0.00    -0.108 C  
HETATM    2  C   UNL     1      -8.224   7.256  66.829  1.00  0.00    -0.121 C  
ENDROOT
BRANCH   2   3
HETATM    3  C   UNL     1      -7.274   6.568  67.823  1.00  0.00    -0.090 C  
HETATM    4  C   UNL     1      -6.285   7.609  68.382  1.00  0.00    -0.036 C  
HETATM    5  C   UNL     1      -7.966   5.841  68.988  1.00  0.00    -0.098 C  
HETATM    6  C   UNL     1      -7.114   4.619  69.190  1.00  0.00    -0.052 C  
HETATM    7  O   UNL     1      -7.164   3.868  70.148  1.00  0.00    -0.041 OA 
HETATM    8  N   UNL     1      -6.316   4.461  68.104  1.00  0.00    -0.036 NA 
HETATM    9  C   UNL     1      -6.452   5.460  67.193  1.00  0.00    -0.048 C  
HETATM   10  O   UNL     1      -5.933   5.477  66.089  1.00  0.00    -0.021 OA 
ENDBRANCH   2   3
TORSDOF 1
ENDMDL
MODEL      228
REMARK 921   NORMALIZED FREE ENERGY PREDICTED BY IDOCK:   -0.54 KCAL/MOL
REMARK 922        TOTAL FREE ENERGY PREDICTED BY IDOCK:   -0.60 KCAL/MOL
REMARK 923 INTER-LIGAND FREE ENERGY PREDICTED BY IDOCK:   -0.56 KCAL/MOL
REMARK 924 INTRA-LIGAND FREE ENERGY PREDICTED BY IDOCK:   -0.05 KCAL/MOL
REMARK 927      BINDING AFFINITY PREDICTED BY RF-SCORE:    0.00 PKD
ROOT
HETATM    1  C   UNL     1      -7.350   8.352  66.600  1.00  0.00    -0.082 C  
HETATM    2  C   UNL     1      -7.905   7.290  65.656  1.00  0.00    -0.112 C  
ENDROOT
BRANCH   2   3
HETATM    3  C   UNL     1      -6.889   6.644  64.700  1.00  0.00    -0.049 C  
HETATM    4  C   UNL     1      -5.466   6.862  65.250  1.00  0.00    -0.027 C  
HETATM    5  C   UNL     1      -7.110   5.146  64.432  1.00  0.00    -0.050 C  
HETATM    6  C   UNL     1      -6.748   4.997  62.979  1.00  0.00    -0.030 C  
HETATM    7  O   UNL     1      -6.569   3.942  62.396  1.00  0.00    -0.022 OA 
HETATM    8  N   UNL     1      -6.706   6.229  62.413  1.00  0.00    -0.037 NA 
HETATM    9  C   UNL     1      -6.926   7.232  63.302  1.00  0.00    -0.059 C  
HETATM   10  O   UNL     1      -7.056   8.410  63.013  1.00  0.00    -0.089 OA 
ENDBRANCH   2   3
TORSDOF 1
ENDMDL
