MODEL        1
REMARK 921   NORMALIZED FREE ENERGY PREDICTED BY IDOCK:   -3.39 KCAL/MOL
REMARK 922        TOTAL FREE ENERGY PREDICTED BY IDOCK:   -3.59 KCAL/MOL
REMARK 923 INTER-LIGAND FREE ENERGY PREDICTED BY IDOCK:   -3.59 KCAL/MOL
REMARK 924 INTRA-LIGAND FREE ENERGY PREDICTED BY IDOCK:    0.00 KCAL/MOL
REMARK 927      BINDING AFFINITY PREDICTED BY RF-SCORE:    0.00 PKD
ROOT
HETATM    1  N   UNL     1     -11.487  16.361  63.855  1.00  0.00    -1.618 NA 
HETATM    2  C   UNL     1     -11.203  15.306  64.828  1.00  0.00    -0.396 C  
HETATM    3  H2  UNL     1     -12.469  16.634  63.875  1.00  0.00     0.000 HD 
HETATM    4  H1  UNL     1     -10.873  17.166  63.987  1.00  0.00     0.000 HD 
ENDROOT
BRANCH   2   5
HETATM    5  C   UNL     1     -12.127  14.094  64.629  1.00  0.00    -0.452 C  
HETATM    6  N   UNL     1     -12.288  13.768  63.211  1.00  0.00    -1.124 NA 
HETATM    7  H2  UNL     1     -11.386  13.629  62.756  1.00  0.00     0.000 HD 
HETATM    8  H1  UNL     1     -12.902  12.964  63.079  1.00  0.00     0.000 HD 
ENDBRANCH   2   5
TORSDOF 1
ENDMDL
MODEL        2
REMARK 921   NORMALIZED FREE ENERGY PREDICTED BY IDOCK:   -3.36 KCAL/MOL
REMARK 922        TOTAL FREE ENERGY PREDICTED BY IDOCK:   -3.56 KCAL/MOL
REMARK 923 INTER-LIGAND FREE ENERGY PREDICTED BY IDOCK:   -3.56 KCAL/MOL
REMARK 924 INTRA-LIGAND FREE ENERGY PREDICTED BY IDOCK:    0.00 KCAL/MOL
REMARK 927      BINDING AFFINITY PREDICTED BY RF-SCORE:    0.00 PKD
ROOT
HETATM    1  N   UNL     1     -12.357  13.968  63.256  1.00  0.00    -1.145 NA 
HETATM    2  C   UNL     1     -11.574  13.973  64.492  1.00  0.00    -0.391 C  
HETATM    3  H2  UNL     1     -11.856  14.426  62.495  1.00  0.00     0.000 HD 
HETATM    4  H1  UNL     1     -12.644  13.023  62.999  1.00  0.00     0.000 HD 
ENDROOT
BRANCH   2   5
HETATM    5  C   UNL     1     -11.142  15.397  64.879  1.00  0.00    -0.423 C  
HETATM    6  N   UNL     1     -11.573  16.377  63.882  1.00  0.00    -1.602 NA 
HETATM    7  H2  UNL     1     -12.579  16.324  63.716  1.00  0.00     0.000 HD 
HETATM    8  H1  UNL     1     -11.287  17.322  64.138  1.00  0.00     0.000 HD 
ENDBRANCH   2   5
TORSDOF 1
ENDMDL
MODEL        3
REMARK 921   NORMALIZED FREE ENERGY PREDICTED BY IDOCK:   -2.94 KCAL/MOL
REMARK 922        TOTAL FREE ENERGY PREDICTED BY IDOCK:   -3.11 KCAL/MOL
REMARK 923 INTER-LIGAND FREE ENERGY PREDICTED BY IDOCK:   -3.11 KCAL/MOL
REMARK 924 INTRA-LIGAND FREE ENERGY PREDICTED BY IDOCK:    0.00 KCAL/MOL
REMARK 927      BINDING AFFINITY PREDICTED BY RF-SCORE:    0.00 PKD
ROOT
HETATM    1  N   UNL     1     -10.141  13.747  64.334  1.00  0.00    -0.752 NA 
HETATM    2  C   UNL     1     -10.910  14.526  65.305  1.00  0.00    -0.367 C  
HETATM    3  H2  UNL     1      -9.152  13.994  64.358  1.00  0.00     0.000 HD 
HETATM    4  H1  UNL     1     -10.279  12.745  64.466  1.00  0.00     0.000 HD 
ENDROOT
BRANCH   2   5
HETATM    5  C   UNL     1     -10.702  16.036  65.107  1.00  0.00    -0.409 C  
HETATM    6  N   UNL     1     -11.533  16.554  64.020  1.00  0.00    -1.581 NA 
HETATM    7  H2  UNL     1     -12.518  16.329  64.163  1.00  0.00     0.000 HD 
HETATM    8  H1  UNL     1     -11.395  17.557  63.888  1.00  0.00     0.000 HD 
ENDBRANCH   2   5
TORSDOF 1
ENDMDL
MODEL        4
REMARK 921   NORMALIZED FREE ENERGY PREDICTED BY IDOCK:   -2.83 KCAL/MOL
REMARK 922        TOTAL FREE ENERGY PREDICTED BY IDOCK:   -3.00 KCAL/MOL
REMARK 923 INTER-LIGAND FREE ENERGY PREDICTED BY IDOCK:   -3.00 KCAL/MOL
REMARK 924 INTRA-LIGAND FREE ENERGY PREDICTED BY IDOCK:    0.00 KCAL/MOL
REMARK 927      BINDING AFFINITY PREDICTED BY RF-SCORE:    0.00 PKD
ROOT
HETATM    1  N   UNL     1     -11.675  16.160  63.891  1.00  0.00    -1.452 NA 
HETATM    2  C   UNL     1     -12.076  14.865  64.441  1.00  0.00    -0.401 C  
HETATM    3  H2  UNL     1     -10.978  16.053  63.154  1.00  0.00     0.000 HD 
HETATM    4  H1  UNL     1     -12.481  16.695  63.566  1.00  0.00     0.000 HD 
ENDROOT
BRANCH   2   5
HETATM    5  C   UNL     1     -10.861  14.060  64.929  1.00  0.00    -0.410 C  
HETATM    6  N   UNL     1     -10.269  13.274  63.847  1.00  0.00    -0.735 NA 
HETATM    7  H2  UNL     1     -10.031  13.860  63.046  1.00  0.00     0.000 HD 
HETATM    8  H1  UNL     1      -9.462  12.739  64.171  1.00  0.00     0.000 HD 
ENDBRANCH   2   5
TORSDOF 1
ENDMDL
MODEL        5
REMARK 921   NORMALIZED FREE ENERGY PREDICTED BY IDOCK:   -2.78 KCAL/MOL
REMARK 922        TOTAL FREE ENERGY PREDICTED BY IDOCK:   -2.95 KCAL/MOL
REMARK 923 INTER-LIGAND FREE ENERGY PREDICTED BY IDOCK:   -2.95 KCAL/MOL
REMARK 924 INTRA-LIGAND FREE ENERGY PREDICTED BY IDOCK:    0.00 KCAL/MOL
REMARK 927      BINDING AFFINITY PREDICTED BY RF-SCORE:    0.00 PKD
ROOT
HETATM    1  N   UNL     1     -10.370  10.877  62.767  1.00  0.00    -0.783 NA 
HETATM    2  C   UNL     1     -10.621  12.123  63.491  1.00  0.00    -0.458 C  
HETATM    3  H2  UNL     1     -10.793  10.892  61.839  1.00  0.00     0.000 HD 
HETATM    4  H1  UNL     1      -9.372  10.667  62.719  1.00  0.00     0.000 HD 
ENDROOT
BRANCH   2   5
HETATM    5  C   UNL     1     -12.124  12.439  63.562  1.00  0.00    -0.558 C  
HETATM    6  N   UNL     1     -12.386  13.857  63.314  1.00  0.00    -1.148 NA 
HETATM    7  H2  UNL     1     -11.982  14.163  62.428  1.00  0.00     0.000 HD 
HETATM    8  H1  UNL     1     -13.383  14.067  63.361  1.00  0.00     0.000 HD 
ENDBRANCH   2   5
TORSDOF 1
ENDMDL
MODEL        6
REMARK 921   NORMALIZED FREE ENERGY PREDICTED BY IDOCK:   -2.78 KCAL/MOL
REMARK 922        TOTAL FREE ENERGY PREDICTED BY IDOCK:   -2.94 KCAL/MOL
REMARK 923 INTER-LIGAND FREE ENERGY PREDICTED BY IDOCK:   -2.94 KCAL/MOL
REMARK 924 INTRA-LIGAND FREE ENERGY PREDICTED BY IDOCK:    0.00 KCAL/MOL
REMARK 927      BINDING AFFINITY PREDICTED BY RF-SCORE:    0.00 PKD
ROOT
HETATM    1  N   UNL     1     -12.383  13.851  63.318  1.00  0.00    -1.148 NA 
HETATM    2  C   UNL     1     -12.126  12.447  63.641  1.00  0.00    -0.556 C  
HETATM    3  H2  UNL     1     -12.003  14.100  62.405  1.00  0.00     0.000 HD 
HETATM    4  H1  UNL     1     -13.377  14.074  63.382  1.00  0.00     0.000 HD 
ENDROOT
BRANCH   2   5
HETATM    5  C   UNL     1     -10.629  12.112  63.544  1.00  0.00    -0.458 C  
HETATM    6  N   UNL     1     -10.401  10.900  62.757  1.00  0.00    -0.783 NA 
HETATM    7  H2  UNL     1     -10.828  10.968  61.833  1.00  0.00     0.000 HD 
HETATM    8  H1  UNL     1      -9.407  10.677  62.693  1.00  0.00     0.000 HD 
ENDBRANCH   2   5
TORSDOF 1
ENDMDL
MODEL        7
REMARK 921   NORMALIZED FREE ENERGY PREDICTED BY IDOCK:   -2.62 KCAL/MOL
REMARK 922        TOTAL FREE ENERGY PREDICTED BY IDOCK:   -2.77 KCAL/MOL
REMARK 923 INTER-LIGAND FREE ENERGY PREDICTED BY IDOCK:   -2.77 KCAL/MOL
REMARK 924 INTRA-LIGAND FREE ENERGY PREDICTED BY IDOCK:    0.00 KCAL/MOL
REMARK 927      BINDING AFFINITY PREDICTED BY RF-SCORE:    0.00 PKD
ROOT
HETATM    1  N   UNL     1     -12.434  12.610  65.290  1.00  0.00    -0.639 NA 
HETATM    2  C   UNL     1     -12.634  14.059  65.331  1.00  0.00    -0.505 C  
HETATM    3  H2  UNL     1     -11.521  12.349  65.662  1.00  0.00     0.000 HD 
HETATM    4  H1  UNL     1     -13.187  12.115  65.768  1.00  0.00     0.000 HD 
ENDROOT
BRANCH   2   5
HETATM    5  C   UNL     1     -11.498  14.805  64.611  1.00  0.00    -0.381 C  
HETATM    6  N   UNL     1     -12.007  15.936  63.835  1.00  0.00    -1.249 NA 
HETATM    7  H2  UNL     1     -12.561  16.568  64.413  1.00  0.00     0.000 HD 
HETATM    8  H1  UNL     1     -11.254  16.431  63.357  1.00  0.00     0.000 HD 
ENDBRANCH   2   5
TORSDOF 1
ENDMDL
MODEL        8
REMARK 921   NORMALIZED FREE ENERGY PREDICTED BY IDOCK:   -2.58 KCAL/MOL
REMARK 922        TOTAL FREE ENERGY PREDICTED BY IDOCK:   -2.73 KCAL/MOL
REMARK 923 INTER-LIGAND FREE ENERGY PREDICTED BY IDOCK:   -2.73 KCAL/MOL
REMARK 924 INTRA-LIGAND FREE ENERGY PREDICTED BY IDOCK:    0.00 KCAL/MOL
REMARK 927      BINDING AFFINITY PREDICTED BY RF-SCORE:    0.00 PKD
ROOT
HETATM    1  N   UNL     1     -11.688  16.276  63.849  1.00  0.00    -1.518 NA 
HETATM    2  C   UNL     1     -10.900  15.852  65.007  1.00  0.00    -0.426 C  
HETATM    3  H2  UNL     1     -11.208  17.002  63.316  1.00  0.00     0.000 HD 
HETATM    4  H1  UNL     1     -11.938  15.483  63.257  1.00  0.00     0.000 HD 
ENDROOT
BRANCH   2   5
HETATM    5  C   UNL     1     -10.523  17.047  65.898  1.00  0.00    -0.274 C  
HETATM    6  N   UNL     1      -9.072  17.209  65.992  1.00  0.00    -0.513 NA 
HETATM    7  H2  UNL     1      -8.643  17.281  65.069  1.00  0.00     0.000 HD 
HETATM    8  H1  UNL     1      -8.821  18.001  66.583  1.00  0.00     0.000 HD 
ENDBRANCH   2   5
TORSDOF 1
ENDMDL
MODEL        9
REMARK 921   NORMALIZED FREE ENERGY PREDICTED BY IDOCK:   -2.56 KCAL/MOL
REMARK 922        TOTAL FREE ENERGY PREDICTED BY IDOCK:   -2.71 KCAL/MOL
REMARK 923 INTER-LIGAND FREE ENERGY PREDICTED BY IDOCK:   -2.71 KCAL/MOL
REMARK 924 INTRA-LIGAND FREE ENERGY PREDICTED BY IDOCK:    0.00 KCAL/MOL
REMARK 927      BINDING AFFINITY PREDICTED BY RF-SCORE:    0.00 PKD
ROOT
HETATM    1  N   UNL     1     -13.309  15.578  70.423  1.00  0.00    -0.779 NA 
HETATM    2  C   UNL     1     -12.525  15.808  71.637  1.00  0.00    -0.463 C  
HETATM    3  H2  UNL     1     -14.213  16.047  70.468  1.00  0.00     0.000 HD 
HETATM    4  H1  UNL     1     -12.790  15.847  69.587  1.00  0.00     0.000 HD 
ENDROOT
BRANCH   2   5
HETATM    5  C   UNL     1     -13.307  15.404  72.897  1.00  0.00    -0.535 C  
HETATM    6  N   UNL     1     -13.057  16.328  74.004  1.00  0.00    -0.932 NA 
HETATM    7  H2  UNL     1     -13.254  17.292  73.736  1.00  0.00     0.000 HD 
HETATM    8  H1  UNL     1     -13.576  16.059  74.840  1.00  0.00     0.000 HD 
ENDBRANCH   2   5
TORSDOF 1
ENDMDL
MODEL       10
REMARK 921   NORMALIZED FREE ENERGY PREDICTED BY IDOCK:   -2.54 KCAL/MOL
REMARK 922        TOTAL FREE ENERGY PREDICTED BY IDOCK:   -2.69 KCAL/MOL
REMARK 923 INTER-LIGAND FREE ENERGY PREDICTED BY IDOCK:   -2.69 KCAL/MOL
REMARK 924 INTRA-LIGAND FREE ENERGY PREDICTED BY IDOCK:    0.00 KCAL/MOL
REMARK 927      BINDING AFFINITY PREDICTED BY RF-SCORE:    0.00 PKD
ROOT
HETATM    1  N   UNL     1     -13.350  16.290  73.841  1.00  0.00    -0.906 NA 
HETATM    2  C   UNL     1     -12.876  15.181  73.013  1.00  0.00    -0.468 C  
HETATM    3  H2  UNL     1     -14.241  16.653  73.504  1.00  0.00     0.000 HD 
HETATM    4  H1  UNL     1     -13.404  16.025  74.825  1.00  0.00     0.000 HD 
ENDROOT
BRANCH   2   5
HETATM    5  C   UNL     1     -12.796  15.580  71.530  1.00  0.00    -0.451 C  
HETATM    6  N   UNL     1     -14.092  15.437  70.866  1.00  0.00    -0.864 NA 
HETATM    7  H2  UNL     1     -14.821  15.958  71.353  1.00  0.00     0.000 HD 
HETATM    8  H1  UNL     1     -14.039  15.702  69.882  1.00  0.00     0.000 HD 
ENDBRANCH   2   5
TORSDOF 1
ENDMDL
MODEL       11
REMARK 921   NORMALIZED FREE ENERGY PREDICTED BY IDOCK:   -2.49 KCAL/MOL
REMARK 922        TOTAL FREE ENERGY PREDICTED BY IDOCK:   -2.63 KCAL/MOL
REMARK 923 INTER-LIGAND FREE ENERGY PREDICTED BY IDOCK:   -2.63 KCAL/MOL
REMARK 924 INTRA-LIGAND FREE ENERGY PREDICTED BY IDOCK:    0.00 KCAL/MOL
REMARK 927      BINDING AFFINITY PREDICTED BY RF-SCORE:    0.00 PKD
ROOT
HETATM    1  N   UNL     1     -12.385  14.044  63.366  1.00  0.00    -1.154 NA 
HETATM    2  C   UNL     1     -12.274  12.893  64.263  1.00  0.00    -0.410 C  
HETATM    3  H2  UNL     1     -11.603  14.688  63.487  1.00  0.00     0.000 HD 
HETATM    4  H1  UNL     1     -12.481  13.752  62.393  1.00  0.00     0.000 HD 
ENDROOT
BRANCH   2   5
HETATM    5  C   UNL     1     -12.128  13.333  65.729  1.00  0.00    -0.441 C  
HETATM    6  N   UNL     1     -11.943  12.186  66.618  1.00  0.00    -0.629 NA 
HETATM    7  H2  UNL     1     -11.156  11.607  66.322  1.00  0.00     0.000 HD 
HETATM    8  H1  UNL     1     -11.846  12.478  67.591  1.00  0.00     0.000 HD 
ENDBRANCH   2   5
TORSDOF 1
ENDMDL
MODEL       12
REMARK 921   NORMALIZED FREE ENERGY PREDICTED BY IDOCK:   -2.49 KCAL/MOL
REMARK 922        TOTAL FREE ENERGY PREDICTED BY IDOCK:   -2.63 KCAL/MOL
REMARK 923 INTER-LIGAND FREE ENERGY PREDICTED BY IDOCK:   -2.63 KCAL/MOL
REMARK 924 INTRA-LIGAND FREE ENERGY PREDICTED BY IDOCK:    0.00 KCAL/MOL
REMARK 927      BINDING AFFINITY PREDICTED BY RF-SCORE:    0.00 PKD
ROOT
HETATM    1  N   UNL     1     -12.838  10.338  70.140  1.00  0.00    -0.562 NA 
HETATM    2  C   UNL     1     -12.591   9.965  71.533  1.00  0.00    -0.416 C  
HETATM    3  H2  UNL     1     -13.832  10.481  69.963  1.00  0.00     0.000 HD 
HETATM    4  H1  UNL     1     -12.288  11.154  69.868  1.00  0.00     0.000 HD 
ENDROOT
BRANCH   2   5
HETATM    5  C   UNL     1     -13.419   8.736  71.943  1.00  0.00    -0.404 C  
HETATM    6  N   UNL     1     -14.116   8.957  73.210  1.00  0.00    -1.248 NA 
HETATM    7  H2  UNL     1     -14.690   9.800  73.179  1.00  0.00     0.000 HD 
HETATM    8  H1  UNL     1     -14.666   8.142  73.482  1.00  0.00     0.000 HD 
ENDBRANCH   2   5
TORSDOF 1
ENDMDL
MODEL       13
REMARK 921   NORMALIZED FREE ENERGY PREDICTED BY IDOCK:   -2.45 KCAL/MOL
REMARK 922        TOTAL FREE ENERGY PREDICTED BY IDOCK:   -2.59 KCAL/MOL
REMARK 923 INTER-LIGAND FREE ENERGY PREDICTED BY IDOCK:   -2.59 KCAL/MOL
REMARK 924 INTRA-LIGAND FREE ENERGY PREDICTED BY IDOCK:    0.00 KCAL/MOL
REMARK 927      BINDING AFFINITY PREDICTED BY RF-SCORE:    0.00 PKD
ROOT
HETATM    1  N   UNL     1     -11.694  16.232  63.863  1.00  0.00    -1.518 NA 
HETATM    2  C   UNL     1     -11.061  15.241  64.733  1.00  0.00    -0.394 C  
HETATM    3  H2  UNL     1     -11.055  16.995  63.639  1.00  0.00     0.000 HD 
HETATM    4  H1  UNL     1     -12.072  15.802  63.019  1.00  0.00     0.000 HD 
ENDROOT
BRANCH   2   5
HETATM    5  C   UNL     1     -10.491  15.890  66.005  1.00  0.00    -0.345 C  
HETATM    6  N   UNL     1     -11.078  15.309  67.212  1.00  0.00    -0.332 NA 
HETATM    7  H2  UNL     1     -10.970  14.294  67.230  1.00  0.00     0.000 HD 
HETATM    8  H1  UNL     1     -10.700  15.739  68.057  1.00  0.00     0.000 HD 
ENDBRANCH   2   5
TORSDOF 1
ENDMDL
MODEL       14
REMARK 921   NORMALIZED FREE ENERGY PREDICTED BY IDOCK:   -2.41 KCAL/MOL
REMARK 922        TOTAL FREE ENERGY PREDICTED BY IDOCK:   -2.55 KCAL/MOL
REMARK 923 INTER-LIGAND FREE ENERGY PREDICTED BY IDOCK:   -2.55 KCAL/MOL
REMARK 924 INTRA-LIGAND FREE ENERGY PREDICTED BY IDOCK:    0.00 KCAL/MOL
REMARK 927      BINDING AFFINITY PREDICTED BY RF-SCORE:    0.00 PKD
ROOT
HETATM    1  N   UNL     1     -12.374   7.014  70.376  1.00  0.00    -0.618 NA 
HETATM    2  C   UNL     1     -13.234   7.175  71.549  1.00  0.00    -0.360 C  
HETATM    3  H2  UNL     1     -11.423   7.331  70.565  1.00  0.00     0.000 HD 
HETATM    4  H1  UNL     1     -12.386   6.054  70.032  1.00  0.00     0.000 HD 
ENDROOT
BRANCH   2   5
HETATM    5  C   UNL     1     -13.215   8.622  72.067  1.00  0.00    -0.386 C  
HETATM    6  N   UNL     1     -14.145   8.805  73.181  1.00  0.00    -1.183 NA 
HETATM    7  H2  UNL     1     -13.965   8.137  73.932  1.00  0.00     0.000 HD 
HETATM    8  H1  UNL     1     -14.133   9.765  73.526  1.00  0.00     0.000 HD 
ENDBRANCH   2   5
TORSDOF 1
ENDMDL
MODEL       15
REMARK 921   NORMALIZED FREE ENERGY PREDICTED BY IDOCK:   -2.40 KCAL/MOL
REMARK 922        TOTAL FREE ENERGY PREDICTED BY IDOCK:   -2.54 KCAL/MOL
REMARK 923 INTER-LIGAND FREE ENERGY PREDICTED BY IDOCK:   -2.54 KCAL/MOL
REMARK 924 INTRA-LIGAND FREE ENERGY PREDICTED BY IDOCK:    0.00 KCAL/MOL
REMARK 927      BINDING AFFINITY PREDICTED BY RF-SCORE:    0.00 PKD
ROOT
HETATM    1  N   UNL     1     -10.336  13.504  64.059  1.00  0.00    -0.691 NA 
HETATM    2  C   UNL     1     -11.796  13.447  64.132  1.00  0.00    -0.442 C  
HETATM    3  H2  UNL     1     -10.004  13.357  63.106  1.00  0.00     0.000 HD 
HETATM    4  H1  UNL     1      -9.976  14.376  64.449  1.00  0.00     0.000 HD 
ENDROOT
BRANCH   2   5
HETATM    5  C   UNL     1     -12.338  12.134  63.544  1.00  0.00    -0.574 C  
HETATM    6  N   UNL     1     -11.266  11.320  62.972  1.00  0.00    -0.835 NA 
HETATM    7  H2  UNL     1     -10.525  11.146  63.652  1.00  0.00     0.000 HD 
HETATM    8  H1  UNL     1     -11.626  10.448  62.581  1.00  0.00     0.000 HD 
ENDBRANCH   2   5
TORSDOF 1
ENDMDL
MODEL       16
REMARK 921   NORMALIZED FREE ENERGY PREDICTED BY IDOCK:   -2.28 KCAL/MOL
REMARK 922        TOTAL FREE ENERGY PREDICTED BY IDOCK:   -2.41 KCAL/MOL
REMARK 923 INTER-LIGAND FREE ENERGY PREDICTED BY IDOCK:   -2.41 KCAL/MOL
REMARK 924 INTRA-LIGAND FREE ENERGY PREDICTED BY IDOCK:    0.00 KCAL/MOL
REMARK 927      BINDING AFFINITY PREDICTED BY RF-SCORE:    0.00 PKD
ROOT
HETATM    1  N   UNL     1     -12.168  14.376  67.361  1.00  0.00    -0.617 NA 
HETATM    2  C   UNL     1     -11.705  14.400  65.973  1.00  0.00    -0.375 C  
HETATM    3  H2  UNL     1     -12.460  13.439  67.641  1.00  0.00     0.000 HD 
HETATM    4  H1  UNL     1     -11.465  14.753  67.997  1.00  0.00     0.000 HD 
ENDROOT
BRANCH   2   5
HETATM    5  C   UNL     1     -12.765  13.831  65.016  1.00  0.00    -0.336 C  
HETATM    6  N   UNL     1     -12.514  14.241  63.634  1.00  0.00    -1.083 NA 
HETATM    7  H2  UNL     1     -11.571  13.993  63.336  1.00  0.00     0.000 HD 
HETATM    8  H1  UNL     1     -13.218  13.863  62.999  1.00  0.00     0.000 HD 
ENDBRANCH   2   5
TORSDOF 1
ENDMDL
MODEL       17
REMARK 921   NORMALIZED FREE ENERGY PREDICTED BY IDOCK:   -2.27 KCAL/MOL
REMARK 922        TOTAL FREE ENERGY PREDICTED BY IDOCK:   -2.41 KCAL/MOL
REMARK 923 INTER-LIGAND FREE ENERGY PREDICTED BY IDOCK:   -2.41 KCAL/MOL
REMARK 924 INTRA-LIGAND FREE ENERGY PREDICTED BY IDOCK:    0.00 KCAL/MOL
REMARK 927      BINDING AFFINITY PREDICTED BY RF-SCORE:    0.00 PKD
ROOT
HETATM    1  N   UNL     1     -12.353  13.941  63.436  1.00  0.00    -1.139 NA 
HETATM    2  C   UNL     1     -11.245  13.182  64.017  1.00  0.00    -0.379 C  
HETATM    3  H2  UNL     1     -12.015  14.729  62.883  1.00  0.00     0.000 HD 
HETATM    4  H1  UNL     1     -12.972  13.341  62.891  1.00  0.00     0.000 HD 
ENDROOT
BRANCH   2   5
HETATM    5  C   UNL     1     -10.312  14.086  64.838  1.00  0.00    -0.409 C  
HETATM    6  N   UNL     1      -9.654  13.343  65.913  1.00  0.00    -0.480 NA 
HETATM    7  H2  UNL     1      -9.162  12.525  65.555  1.00  0.00     0.000 HD 
HETATM    8  H1  UNL     1      -9.035  13.943  66.458  1.00  0.00     0.000 HD 
ENDBRANCH   2   5
TORSDOF 1
ENDMDL
MODEL       18
REMARK 921   NORMALIZED FREE ENERGY PREDICTED BY IDOCK:   -2.17 KCAL/MOL
REMARK 922        TOTAL FREE ENERGY PREDICTED BY IDOCK:   -2.30 KCAL/MOL
REMARK 923 INTER-LIGAND FREE ENERGY PREDICTED BY IDOCK:   -2.30 KCAL/MOL
REMARK 924 INTRA-LIGAND FREE ENERGY PREDICTED BY IDOCK:    0.00 KCAL/MOL
REMARK 927      BINDING AFFINITY PREDICTED BY RF-SCORE:    0.00 PKD
ROOT
HETATM    1  N   UNL     1     -10.676  13.346  65.783  1.00  0.00    -0.271 NA 
HETATM    2  C   UNL     1     -12.103  13.115  65.562  1.00  0.00    -0.442 C  
HETATM    3  H2  UNL     1     -10.302  14.029  65.125  1.00  0.00     0.000 HD 
HETATM    4  H1  UNL     1     -10.485  13.614  66.749  1.00  0.00     0.000 HD 
ENDROOT
BRANCH   2   5
HETATM    5  C   UNL     1     -12.390  12.710  64.107  1.00  0.00    -0.436 C  
HETATM    6  N   UNL     1     -12.324  13.862  63.207  1.00  0.00    -1.148 NA 
HETATM    7  H2  UNL     1     -11.432  14.351  63.290  1.00  0.00     0.000 HD 
HETATM    8  H1  UNL     1     -12.514  13.594  62.241  1.00  0.00     0.000 HD 
ENDBRANCH   2   5
TORSDOF 1
ENDMDL
MODEL       19
REMARK 921   NORMALIZED FREE ENERGY PREDICTED BY IDOCK:   -2.17 KCAL/MOL
REMARK 922        TOTAL FREE ENERGY PREDICTED BY IDOCK:   -2.29 KCAL/MOL
REMARK 923 INTER-LIGAND FREE ENERGY PREDICTED BY IDOCK:   -2.29 KCAL/MOL
REMARK 924 INTRA-LIGAND FREE ENERGY PREDICTED BY IDOCK:    0.00 KCAL/MOL
REMARK 927      BINDING AFFINITY PREDICTED BY RF-SCORE:    0.00 PKD
ROOT
HETATM    1  N   UNL     1     -12.248  14.340  66.748  1.00  0.00    -0.529 NA 
HETATM    2  C   UNL     1     -10.978  14.736  66.138  1.00  0.00    -0.332 C  
HETATM    3  H2  UNL     1     -12.548  13.421  66.424  1.00  0.00     0.000 HD 
HETATM    4  H1  UNL     1     -12.202  14.380  67.767  1.00  0.00     0.000 HD 
ENDROOT
BRANCH   2   5
HETATM    5  C   UNL     1     -11.048  14.676  64.604  1.00  0.00    -0.334 C  
HETATM    6  N   UNL     1     -11.619  15.901  64.045  1.00  0.00    -1.097 NA 
HETATM    7  H2  UNL     1     -11.114  16.728  64.363  1.00  0.00     0.000 HD 
HETATM    8  H1  UNL     1     -11.666  15.861  63.026  1.00  0.00     0.000 HD 
ENDBRANCH   2   5
TORSDOF 1
ENDMDL
MODEL       20
REMARK 921   NORMALIZED FREE ENERGY PREDICTED BY IDOCK:   -2.16 KCAL/MOL
REMARK 922        TOTAL FREE ENERGY PREDICTED BY IDOCK:   -2.29 KCAL/MOL
REMARK 923 INTER-LIGAND FREE ENERGY PREDICTED BY IDOCK:   -2.29 KCAL/MOL
REMARK 924 INTRA-LIGAND FREE ENERGY PREDICTED BY IDOCK:    0.00 KCAL/MOL
REMARK 927      BINDING AFFINITY PREDICTED BY RF-SCORE:    0.00 PKD
ROOT
HETATM    1  N   UNL     1     -13.414  12.495  72.080  1.00  0.00    -0.513 NA 
HETATM    2  C   UNL     1     -13.412  13.899  72.493  1.00  0.00    -0.572 C  
HETATM    3  H2  UNL     1     -12.481  12.184  71.811  1.00  0.00     0.000 HD 
HETATM    4  H1  UNL     1     -13.815  11.894  72.801  1.00  0.00     0.000 HD 
ENDROOT
BRANCH   2   5
HETATM    5  C   UNL     1     -12.807  14.804  71.408  1.00  0.00    -0.336 C  
HETATM    6  N   UNL     1     -13.841  15.569  70.711  1.00  0.00    -0.865 NA 
HETATM    7  H2  UNL     1     -14.416  16.102  71.364  1.00  0.00     0.000 HD 
HETATM    8  H1  UNL     1     -13.440  16.170  69.990  1.00  0.00     0.000 HD 
ENDBRANCH   2   5
TORSDOF 1
ENDMDL
MODEL       21
REMARK 921   NORMALIZED FREE ENERGY PREDICTED BY IDOCK:   -2.10 KCAL/MOL
REMARK 922        TOTAL FREE ENERGY PREDICTED BY IDOCK:   -2.22 KCAL/MOL
REMARK 923 INTER-LIGAND FREE ENERGY PREDICTED BY IDOCK:   -2.22 KCAL/MOL
REMARK 924 INTRA-LIGAND FREE ENERGY PREDICTED BY IDOCK:    0.00 KCAL/MOL
REMARK 927      BINDING AFFINITY PREDICTED BY RF-SCORE:    0.00 PKD
ROOT
HETATM    1  N   UNL     1     -14.060   8.598  73.158  1.00  0.00    -1.044 NA 
HETATM    2  C   UNL     1     -13.658   9.464  72.049  1.00  0.00    -0.433 C  
HETATM    3  H2  UNL     1     -13.369   8.607  73.908  1.00  0.00     0.000 HD 
HETATM    4  H1  UNL     1     -14.989   8.840  73.503  1.00  0.00     0.000 HD 
ENDROOT
BRANCH   2   5
HETATM    5  C   UNL     1     -12.258   9.100  71.529  1.00  0.00    -0.349 C  
HETATM    6  N   UNL     1     -11.532   8.263  72.485  1.00  0.00    -0.392 NA 
HETATM    7  H2  UNL     1     -12.066   7.431  72.734  1.00  0.00     0.000 HD 
HETATM    8  H1  UNL     1     -10.602   8.022  72.140  1.00  0.00     0.000 HD 
ENDBRANCH   2   5
TORSDOF 1
ENDMDL
MODEL       22
REMARK 921   NORMALIZED FREE ENERGY PREDICTED BY IDOCK:   -2.08 KCAL/MOL
REMARK 922        TOTAL FREE ENERGY PREDICTED BY IDOCK:   -2.21 KCAL/MOL
REMARK 923 INTER-LIGAND FREE ENERGY PREDICTED BY IDOCK:   -2.21 KCAL/MOL
REMARK 924 INTRA-LIGAND FREE ENERGY PREDICTED BY IDOCK:    0.00 KCAL/MOL
REMARK 927      BINDING AFFINITY PREDICTED BY RF-SCORE:    0.00 PKD
ROOT
HETATM    1  N   UNL     1     -13.922  15.463  70.940  1.00  0.00    -0.857 NA 
HETATM    2  C   UNL     1     -12.538  15.504  70.468  1.00  0.00    -0.416 C  
HETATM    3  H2  UNL     1     -14.091  14.649  71.531  1.00  0.00     0.000 HD 
HETATM    4  H1  UNL     1     -14.181  16.329  71.414  1.00  0.00     0.000 HD 
ENDROOT
BRANCH   2   5
HETATM    5  C   UNL     1     -12.148  14.199  69.754  1.00  0.00    -0.354 C  
HETATM    6  N   UNL     1     -12.333  14.304  68.307  1.00  0.00    -0.580 NA 
HETATM    7  H2  UNL     1     -11.831  15.104  67.923  1.00  0.00     0.000 HD 
HETATM    8  H1  UNL     1     -12.074  13.438  67.833  1.00  0.00     0.000 HD 
ENDBRANCH   2   5
TORSDOF 1
ENDMDL
MODEL       23
REMARK 921   NORMALIZED FREE ENERGY PREDICTED BY IDOCK:   -2.05 KCAL/MOL
REMARK 922        TOTAL FREE ENERGY PREDICTED BY IDOCK:   -2.17 KCAL/MOL
REMARK 923 INTER-LIGAND FREE ENERGY PREDICTED BY IDOCK:   -2.17 KCAL/MOL
REMARK 924 INTRA-LIGAND FREE ENERGY PREDICTED BY IDOCK:    0.00 KCAL/MOL
REMARK 927      BINDING AFFINITY PREDICTED BY RF-SCORE:    0.00 PKD
ROOT
HETATM    1  N   UNL     1     -12.129  10.669  68.558  1.00  0.00    -0.819 NA 
HETATM    2  C   UNL     1     -11.915  11.490  69.750  1.00  0.00    -0.346 C  
HETATM    3  H2  UNL     1     -13.122  10.529  68.374  1.00  0.00     0.000 HD 
HETATM    4  H1  UNL     1     -11.651  11.059  67.745  1.00  0.00     0.000 HD 
ENDROOT
BRANCH   2   5
HETATM    5  C   UNL     1     -12.636  10.903  70.974  1.00  0.00    -0.417 C  
HETATM    6  N   UNL     1     -13.391   9.699  70.626  1.00  0.00    -0.586 NA 
HETATM    7  H2  UNL     1     -12.797   9.003  70.173  1.00  0.00     0.000 HD 
HETATM    8  H1  UNL     1     -13.869   9.309  71.438  1.00  0.00     0.000 HD 
ENDBRANCH   2   5
TORSDOF 1
ENDMDL
MODEL       24
REMARK 921   NORMALIZED FREE ENERGY PREDICTED BY IDOCK:   -2.03 KCAL/MOL
REMARK 922        TOTAL FREE ENERGY PREDICTED BY IDOCK:   -2.15 KCAL/MOL
REMARK 923 INTER-LIGAND FREE ENERGY PREDICTED BY IDOCK:   -2.15 KCAL/MOL
REMARK 924 INTRA-LIGAND FREE ENERGY PREDICTED BY IDOCK:    0.00 KCAL/MOL
REMARK 927      BINDING AFFINITY PREDICTED BY RF-SCORE:    0.00 PKD
ROOT
HETATM    1  N   UNL     1     -12.480   8.198  72.903  1.00  0.00    -0.653 NA 
HETATM    2  C   UNL     1     -13.499   9.143  72.444  1.00  0.00    -0.476 C  
HETATM    3  H2  UNL     1     -11.748   8.668  73.436  1.00  0.00     0.000 HD 
HETATM    4  H1  UNL     1     -12.894   7.430  73.433  1.00  0.00     0.000 HD 
ENDROOT
BRANCH   2   5
HETATM    5  C   UNL     1     -12.875  10.299  71.646  1.00  0.00    -0.463 C  
HETATM    6  N   UNL     1     -13.320  11.599  72.149  1.00  0.00    -0.562 NA 
HETATM    7  H2  UNL     1     -13.140  11.695  73.149  1.00  0.00     0.000 HD 
HETATM    8  H1  UNL     1     -12.907  12.367  71.620  1.00  0.00     0.000 HD 
ENDBRANCH   2   5
TORSDOF 1
ENDMDL
MODEL       25
REMARK 921   NORMALIZED FREE ENERGY PREDICTED BY IDOCK:   -2.00 KCAL/MOL
REMARK 922        TOTAL FREE ENERGY PREDICTED BY IDOCK:   -2.11 KCAL/MOL
REMARK 923 INTER-LIGAND FREE ENERGY PREDICTED BY IDOCK:   -2.11 KCAL/MOL
REMARK 924 INTRA-LIGAND FREE ENERGY PREDICTED BY IDOCK:    0.00 KCAL/MOL
REMARK 927      BINDING AFFINITY PREDICTED BY RF-SCORE:    0.00 PKD
ROOT
HETATM    1  N   UNL     1     -13.122  12.784  64.842  1.00  0.00    -0.821 NA 
HETATM    2  C   UNL     1     -12.018  13.355  65.614  1.00  0.00    -0.401 C  
HETATM    3  H2  UNL     1     -13.281  11.807  65.085  1.00  0.00     0.000 HD 
HETATM    4  H1  UNL     1     -13.974  13.337  64.943  1.00  0.00     0.000 HD 
ENDROOT
BRANCH   2   5
HETATM    5  C   UNL     1     -10.735  12.522  65.463  1.00  0.00    -0.271 C  
HETATM    6  N   UNL     1      -9.986  12.904  64.266  1.00  0.00    -0.621 NA 
HETATM    7  H2  UNL     1      -9.785  13.904  64.255  1.00  0.00     0.000 HD 
HETATM    8  H1  UNL     1      -9.134  12.351  64.166  1.00  0.00     0.000 HD 
ENDBRANCH   2   5
TORSDOF 1
ENDMDL
MODEL       26
REMARK 921   NORMALIZED FREE ENERGY PREDICTED BY IDOCK:   -1.98 KCAL/MOL
REMARK 922        TOTAL FREE ENERGY PREDICTED BY IDOCK:   -2.09 KCAL/MOL
REMARK 923 INTER-LIGAND FREE ENERGY PREDICTED BY IDOCK:   -2.09 KCAL/MOL
REMARK 924 INTRA-LIGAND FREE ENERGY PREDICTED BY IDOCK:    0.00 KCAL/MOL
REMARK 927      BINDING AFFINITY PREDICTED BY RF-SCORE:    0.00 PKD
ROOT
HETATM    1  N   UNL     1     -10.826  16.720  64.567  1.00  0.00    -0.884 NA 
HETATM    2  C   UNL     1     -10.268  16.288  65.849  1.00  0.00    -0.364 C  
HETATM    3  H2  UNL     1     -11.809  16.462  64.482  1.00  0.00     0.000 HD 
HETATM    4  H1  UNL     1     -10.688  17.720  64.418  1.00  0.00     0.000 HD 
ENDROOT
BRANCH   2   5
HETATM    5  C   UNL     1     -10.476  14.781  66.074  1.00  0.00    -0.303 C  
HETATM    6  N   UNL     1      -9.567  13.985  65.249  1.00  0.00    -0.539 NA 
HETATM    7  H2  UNL     1      -8.594  14.254  65.398  1.00  0.00     0.000 HD 
HETATM    8  H1  UNL     1      -9.705  12.985  65.399  1.00  0.00     0.000 HD 
ENDBRANCH   2   5
TORSDOF 1
ENDMDL
MODEL       27
REMARK 921   NORMALIZED FREE ENERGY PREDICTED BY IDOCK:   -1.97 KCAL/MOL
REMARK 922        TOTAL FREE ENERGY PREDICTED BY IDOCK:   -2.08 KCAL/MOL
REMARK 923 INTER-LIGAND FREE ENERGY PREDICTED BY IDOCK:   -2.08 KCAL/MOL
REMARK 924 INTRA-LIGAND FREE ENERGY PREDICTED BY IDOCK:    0.00 KCAL/MOL
REMARK 927      BINDING AFFINITY PREDICTED BY RF-SCORE:    0.00 PKD
ROOT
HETATM    1  N   UNL     1     -10.632  19.549  66.070  1.00  0.00    -0.501 NA 
HETATM    2  C   UNL     1     -10.410  18.309  66.814  1.00  0.00    -0.384 C  
HETATM    3  H2  UNL     1     -11.389  19.448  65.394  1.00  0.00     0.000 HD 
HETATM    4  H1  UNL     1     -10.794  20.338  66.696  1.00  0.00     0.000 HD 
ENDROOT
BRANCH   2   5
HETATM    5  C   UNL     1     -10.167  17.121  65.870  1.00  0.00    -0.276 C  
HETATM    6  N   UNL     1     -10.993  17.215  64.666  1.00  0.00    -0.921 NA 
HETATM    7  H2  UNL     1     -10.857  18.106  64.188  1.00  0.00     0.000 HD 
HETATM    8  H1  UNL     1     -10.832  16.426  64.039  1.00  0.00     0.000 HD 
ENDBRANCH   2   5
TORSDOF 1
ENDMDL
MODEL       28
REMARK 921   NORMALIZED FREE ENERGY PREDICTED BY IDOCK:   -1.93 KCAL/MOL
REMARK 922        TOTAL FREE ENERGY PREDICTED BY IDOCK:   -2.04 KCAL/MOL
REMARK 923 INTER-LIGAND FREE ENERGY PREDICTED BY IDOCK:   -2.04 KCAL/MOL
REMARK 924 INTRA-LIGAND FREE ENERGY PREDICTED BY IDOCK:    0.00 KCAL/MOL
REMARK 927      BINDING AFFINITY PREDICTED BY RF-SCORE:    0.00 PKD
ROOT
HETATM    1  N   UNL     1     -11.374   4.350  65.181  1.00  0.00    -1.082 NA 
HETATM    2  C   UNL     1     -10.064   4.080  64.589  1.00  0.00    -0.206 C  
HETATM    3  H2  UNL     1     -11.679   3.582  65.780  1.00  0.00     0.000 HD 
HETATM    4  H1  UNL     1     -11.383   5.239  65.682  1.00  0.00     0.000 HD 
ENDROOT
BRANCH   2   5
HETATM    5  C   UNL     1     -10.052   2.740  63.835  1.00  0.00    -0.152 C  
HETATM    6  N   UNL     1     -11.400   2.189  63.699  1.00  0.00    -0.601 NA 
HETATM    7  H2  UNL     1     -12.035   2.858  63.263  1.00  0.00     0.000 HD 
HETATM    8  H1  UNL     1     -11.393   1.300  63.199  1.00  0.00     0.000 HD 
ENDBRANCH   2   5
TORSDOF 1
ENDMDL
MODEL       29
REMARK 921   NORMALIZED FREE ENERGY PREDICTED BY IDOCK:   -1.93 KCAL/MOL
REMARK 922        TOTAL FREE ENERGY PREDICTED BY IDOCK:   -2.04 KCAL/MOL
REMARK 923 INTER-LIGAND FREE ENERGY PREDICTED BY IDOCK:   -2.04 KCAL/MOL
REMARK 924 INTRA-LIGAND FREE ENERGY PREDICTED BY IDOCK:    0.00 KCAL/MOL
REMARK 927      BINDING AFFINITY PREDICTED BY RF-SCORE:    0.00 PKD
ROOT
HETATM    1  N   UNL     1     -10.280  19.574  68.834  1.00  0.00    -0.589 NA 
HETATM    2  C   UNL     1     -10.682  19.331  67.448  1.00  0.00    -0.486 C  
HETATM    3  H2  UNL     1      -9.266  19.545  68.939  1.00  0.00     0.000 HD 
HETATM    4  H1  UNL     1     -10.668  20.448  69.189  1.00  0.00     0.000 HD 
ENDROOT
BRANCH   2   5
HETATM    5  C   UNL     1     -10.097  18.014  66.915  1.00  0.00    -0.348 C  
HETATM    6  N   UNL     1     -10.570  17.727  65.560  1.00  0.00    -0.615 NA 
HETATM    7  H2  UNL     1     -10.380  18.503  64.926  1.00  0.00     0.000 HD 
HETATM    8  H1  UNL     1     -10.182  16.852  65.206  1.00  0.00     0.000 HD 
ENDBRANCH   2   5
TORSDOF 1
ENDMDL
MODEL       30
REMARK 921   NORMALIZED FREE ENERGY PREDICTED BY IDOCK:   -1.92 KCAL/MOL
REMARK 922        TOTAL FREE ENERGY PREDICTED BY IDOCK:   -2.04 KCAL/MOL
REMARK 923 INTER-LIGAND FREE ENERGY PREDICTED BY IDOCK:   -2.04 KCAL/MOL
REMARK 924 INTRA-LIGAND FREE ENERGY PREDICTED BY IDOCK:    0.00 KCAL/MOL
REMARK 927      BINDING AFFINITY PREDICTED BY RF-SCORE:    0.00 PKD
ROOT
HETATM    1  N   UNL     1     -10.631  18.590  65.622  1.00  0.00    -0.589 NA 
HETATM    2  C   UNL     1     -10.470  18.437  67.068  1.00  0.00    -0.399 C  
HETATM    3  H2  UNL     1      -9.770  18.915  65.183  1.00  0.00     0.000 HD 
HETATM    4  H1  UNL     1     -10.969  17.729  65.190  1.00  0.00     0.000 HD 
ENDROOT
BRANCH   2   5
HETATM    5  C   UNL     1      -9.962  19.734  67.718  1.00  0.00    -0.409 C  
HETATM    6  N   UNL     1      -9.298  20.598  66.742  1.00  0.00    -0.640 NA 
HETATM    7  H2  UNL     1      -9.902  20.793  65.944  1.00  0.00     0.000 HD 
HETATM    8  H1  UNL     1      -8.960  21.459  67.174  1.00  0.00     0.000 HD 
ENDBRANCH   2   5
TORSDOF 1
ENDMDL
MODEL       31
REMARK 921   NORMALIZED FREE ENERGY PREDICTED BY IDOCK:   -1.92 KCAL/MOL
REMARK 922        TOTAL FREE ENERGY PREDICTED BY IDOCK:   -2.04 KCAL/MOL
REMARK 923 INTER-LIGAND FREE ENERGY PREDICTED BY IDOCK:   -2.04 KCAL/MOL
REMARK 924 INTRA-LIGAND FREE ENERGY PREDICTED BY IDOCK:    0.00 KCAL/MOL
REMARK 927      BINDING AFFINITY PREDICTED BY RF-SCORE:    0.00 PKD
ROOT
HETATM    1  N   UNL     1     -13.254  10.332  72.188  1.00  0.00    -0.555 NA 
HETATM    2  C   UNL     1     -12.864  11.353  71.215  1.00  0.00    -0.379 C  
HETATM    3  H2  UNL     1     -12.441   9.929  72.653  1.00  0.00     0.000 HD 
HETATM    4  H1  UNL     1     -13.928  10.695  72.862  1.00  0.00     0.000 HD 
ENDROOT
BRANCH   2   5
HETATM    5  C   UNL     1     -11.848  10.805  70.200  1.00  0.00    -0.343 C  
HETATM    6  N   UNL     1     -12.371  10.862  68.835  1.00  0.00    -0.759 NA 
HETATM    7  H2  UNL     1     -12.672  11.805  68.589  1.00  0.00     0.000 HD 
HETATM    8  H1  UNL     1     -11.697  10.498  68.160  1.00  0.00     0.000 HD 
ENDBRANCH   2   5
TORSDOF 1
ENDMDL
MODEL       32
REMARK 921   NORMALIZED FREE ENERGY PREDICTED BY IDOCK:   -1.92 KCAL/MOL
REMARK 922        TOTAL FREE ENERGY PREDICTED BY IDOCK:   -2.03 KCAL/MOL
REMARK 923 INTER-LIGAND FREE ENERGY PREDICTED BY IDOCK:   -2.03 KCAL/MOL
REMARK 924 INTRA-LIGAND FREE ENERGY PREDICTED BY IDOCK:    0.00 KCAL/MOL
REMARK 927      BINDING AFFINITY PREDICTED BY RF-SCORE:    0.00 PKD
ROOT
HETATM    1  N   UNL     1     -13.640   7.193  71.880  1.00  0.00    -0.549 NA 
HETATM    2  C   UNL     1     -14.391   8.447  71.945  1.00  0.00    -0.473 C  
HETATM    3  H2  UNL     1     -12.922   7.151  72.603  1.00  0.00     0.000 HD 
HETATM    4  H1  UNL     1     -14.260   6.384  71.921  1.00  0.00     0.000 HD 
ENDROOT
BRANCH   2   5
HETATM    5  C   UNL     1     -13.457   9.667  71.883  1.00  0.00    -0.413 C  
HETATM    6  N   UNL     1     -13.078   9.983  70.506  1.00  0.00    -0.599 NA 
HETATM    7  H2  UNL     1     -13.899  10.111  69.913  1.00  0.00     0.000 HD 
HETATM    8  H1  UNL     1     -12.458  10.793  70.465  1.00  0.00     0.000 HD 
ENDBRANCH   2   5
TORSDOF 1
ENDMDL
MODEL       33
REMARK 921   NORMALIZED FREE ENERGY PREDICTED BY IDOCK:   -1.90 KCAL/MOL
REMARK 922        TOTAL FREE ENERGY PREDICTED BY IDOCK:   -2.01 KCAL/MOL
REMARK 923 INTER-LIGAND FREE ENERGY PREDICTED BY IDOCK:   -2.01 KCAL/MOL
REMARK 924 INTRA-LIGAND FREE ENERGY PREDICTED BY IDOCK:    0.00 KCAL/MOL
REMARK 927      BINDING AFFINITY PREDICTED BY RF-SCORE:    0.00 PKD
ROOT
HETATM    1  N   UNL     1     -11.929   6.900  70.078  1.00  0.00    -0.644 NA 
HETATM    2  C   UNL     1     -12.736   7.187  71.265  1.00  0.00    -0.366 C  
HETATM    3  H2  UNL     1     -10.977   6.634  70.330  1.00  0.00     0.000 HD 
HETATM    4  H1  UNL     1     -12.370   6.195  69.487  1.00  0.00     0.000 HD 
ENDROOT
BRANCH   2   5
HETATM    5  C   UNL     1     -12.071   8.249  72.155  1.00  0.00    -0.367 C  
HETATM    6  N   UNL     1     -11.439   7.645  73.328  1.00  0.00    -0.638 NA 
HETATM    7  H2  UNL     1     -10.778   6.914  73.062  1.00  0.00     0.000 HD 
HETATM    8  H1  UNL     1     -10.997   8.350  73.920  1.00  0.00     0.000 HD 
ENDBRANCH   2   5
TORSDOF 1
ENDMDL
MODEL       34
REMARK 921   NORMALIZED FREE ENERGY PREDICTED BY IDOCK:   -1.88 KCAL/MOL
REMARK 922        TOTAL FREE ENERGY PREDICTED BY IDOCK:   -1.99 KCAL/MOL
REMARK 923 INTER-LIGAND FREE ENERGY PREDICTED BY IDOCK:   -1.99 KCAL/MOL
REMARK 924 INTRA-LIGAND FREE ENERGY PREDICTED BY IDOCK:    0.00 KCAL/MOL
REMARK 927      BINDING AFFINITY PREDICTED BY RF-SCORE:    0.00 PKD
ROOT
HETATM    1  N   UNL     1     -10.266  18.614  68.972  1.00  0.00    -0.479 NA 
HETATM    2  C   UNL     1     -10.271  19.791  68.103  1.00  0.00    -0.452 C  
HETATM    3  H2  UNL     1      -9.557  17.939  68.683  1.00  0.00     0.000 HD 
HETATM    4  H1  UNL     1     -10.156  18.873  69.953  1.00  0.00     0.000 HD 
ENDROOT
BRANCH   2   5
HETATM    5  C   UNL     1     -10.436  19.400  66.626  1.00  0.00    -0.469 C  
HETATM    6  N   UNL     1      -9.716  20.319  65.744  1.00  0.00    -0.591 NA 
HETATM    7  H2  UNL     1      -8.732  20.391  66.003  1.00  0.00     0.000 HD 
HETATM    8  H1  UNL     1      -9.826  20.059  64.763  1.00  0.00     0.000 HD 
ENDBRANCH   2   5
TORSDOF 1
ENDMDL
MODEL       35
REMARK 921   NORMALIZED FREE ENERGY PREDICTED BY IDOCK:   -1.88 KCAL/MOL
REMARK 922        TOTAL FREE ENERGY PREDICTED BY IDOCK:   -1.99 KCAL/MOL
REMARK 923 INTER-LIGAND FREE ENERGY PREDICTED BY IDOCK:   -1.99 KCAL/MOL
REMARK 924 INTRA-LIGAND FREE ENERGY PREDICTED BY IDOCK:    0.00 KCAL/MOL
REMARK 927      BINDING AFFINITY PREDICTED BY RF-SCORE:    0.00 PKD
ROOT
HETATM    1  N   UNL     1     -11.746  13.980  70.785  1.00  0.00    -0.514 NA 
HETATM    2  C   UNL     1     -11.798  13.161  69.573  1.00  0.00    -0.322 C  
HETATM    3  H2  UNL     1     -10.987  13.689  71.400  1.00  0.00     0.000 HD 
HETATM    4  H1  UNL     1     -11.687  14.974  70.562  1.00  0.00     0.000 HD 
ENDROOT
BRANCH   2   5
HETATM    5  C   UNL     1     -11.887  11.664  69.909  1.00  0.00    -0.358 C  
HETATM    6  N   UNL     1     -12.246  10.871  68.733  1.00  0.00    -0.793 NA 
HETATM    7  H2  UNL     1     -11.606  11.042  67.957  1.00  0.00     0.000 HD 
HETATM    8  H1  UNL     1     -12.305   9.877  68.956  1.00  0.00     0.000 HD 
ENDBRANCH   2   5
TORSDOF 1
ENDMDL
MODEL       36
REMARK 921   NORMALIZED FREE ENERGY PREDICTED BY IDOCK:   -1.87 KCAL/MOL
REMARK 922        TOTAL FREE ENERGY PREDICTED BY IDOCK:   -1.98 KCAL/MOL
REMARK 923 INTER-LIGAND FREE ENERGY PREDICTED BY IDOCK:   -1.98 KCAL/MOL
REMARK 924 INTRA-LIGAND FREE ENERGY PREDICTED BY IDOCK:    0.00 KCAL/MOL
REMARK 927      BINDING AFFINITY PREDICTED BY RF-SCORE:    0.00 PKD
ROOT
HETATM    1  N   UNL     1      -8.621  19.419  66.078  1.00  0.00    -0.444 NA 
HETATM    2  C   UNL     1      -9.968  19.957  66.273  1.00  0.00    -0.486 C  
HETATM    3  H2  UNL     1      -8.642  18.413  65.914  1.00  0.00     0.000 HD 
HETATM    4  H1  UNL     1      -8.127  19.909  65.332  1.00  0.00     0.000 HD 
ENDROOT
BRANCH   2   5
HETATM    5  C   UNL     1     -10.712  19.218  67.398  1.00  0.00    -0.486 C  
HETATM    6  N   UNL     1     -10.321  19.717  68.717  1.00  0.00    -0.565 NA 
HETATM    7  H2  UNL     1     -10.447  20.727  68.787  1.00  0.00     0.000 HD 
HETATM    8  H1  UNL     1     -10.815  19.226  69.463  1.00  0.00     0.000 HD 
ENDBRANCH   2   5
TORSDOF 1
ENDMDL
MODEL       37
REMARK 921   NORMALIZED FREE ENERGY PREDICTED BY IDOCK:   -1.87 KCAL/MOL
REMARK 922        TOTAL FREE ENERGY PREDICTED BY IDOCK:   -1.98 KCAL/MOL
REMARK 923 INTER-LIGAND FREE ENERGY PREDICTED BY IDOCK:   -1.98 KCAL/MOL
REMARK 924 INTRA-LIGAND FREE ENERGY PREDICTED BY IDOCK:    0.00 KCAL/MOL
REMARK 927      BINDING AFFINITY PREDICTED BY RF-SCORE:    0.00 PKD
ROOT
HETATM    1  N   UNL     1      -8.015  18.776  65.851  1.00  0.00    -0.485 NA 
HETATM    2  C   UNL     1      -9.040  19.637  66.442  1.00  0.00    -0.379 C  
HETATM    3  H2  UNL     1      -8.173  18.638  64.853  1.00  0.00     0.000 HD 
HETATM    4  H1  UNL     1      -7.076  19.131  66.035  1.00  0.00     0.000 HD 
ENDROOT
BRANCH   2   5
HETATM    5  C   UNL     1     -10.454  19.101  66.164  1.00  0.00    -0.477 C  
HETATM    6  N   UNL     1     -10.413  17.803  65.490  1.00  0.00    -0.636 NA 
HETATM    7  H2  UNL     1      -9.854  17.128  66.012  1.00  0.00     0.000 HD 
HETATM    8  H1  UNL     1     -11.351  17.448  65.305  1.00  0.00     0.000 HD 
ENDBRANCH   2   5
TORSDOF 1
ENDMDL
MODEL       38
REMARK 921   NORMALIZED FREE ENERGY PREDICTED BY IDOCK:   -1.84 KCAL/MOL
REMARK 922        TOTAL FREE ENERGY PREDICTED BY IDOCK:   -1.95 KCAL/MOL
REMARK 923 INTER-LIGAND FREE ENERGY PREDICTED BY IDOCK:   -1.95 KCAL/MOL
REMARK 924 INTRA-LIGAND FREE ENERGY PREDICTED BY IDOCK:    0.00 KCAL/MOL
REMARK 927      BINDING AFFINITY PREDICTED BY RF-SCORE:    0.00 PKD
ROOT
HETATM    1  N   UNL     1     -11.728   6.825  69.378  1.00  0.00    -0.631 NA 
HETATM    2  C   UNL     1     -11.445   6.481  70.771  1.00  0.00    -0.360 C  
HETATM    3  H2  UNL     1     -12.009   7.801  69.284  1.00  0.00     0.000 HD 
HETATM    4  H1  UNL     1     -10.938   6.604  68.770  1.00  0.00     0.000 HD 
ENDROOT
BRANCH   2   5
HETATM    5  C   UNL     1     -12.634   6.814  71.686  1.00  0.00    -0.333 C  
HETATM    6  N   UNL     1     -13.663   7.571  70.973  1.00  0.00    -0.629 NA 
HETATM    7  H2  UNL     1     -13.966   7.086  70.129  1.00  0.00     0.000 HD 
HETATM    8  H1  UNL     1     -14.453   7.793  71.581  1.00  0.00     0.000 HD 
ENDBRANCH   2   5
TORSDOF 1
ENDMDL
MODEL       39
REMARK 921   NORMALIZED FREE ENERGY PREDICTED BY IDOCK:   -1.82 KCAL/MOL
REMARK 922        TOTAL FREE ENERGY PREDICTED BY IDOCK:   -1.93 KCAL/MOL
REMARK 923 INTER-LIGAND FREE ENERGY PREDICTED BY IDOCK:   -1.93 KCAL/MOL
REMARK 924 INTRA-LIGAND FREE ENERGY PREDICTED BY IDOCK:    0.00 KCAL/MOL
REMARK 927      BINDING AFFINITY PREDICTED BY RF-SCORE:    0.00 PKD
ROOT
HETATM    1  N   UNL     1     -11.403   4.430  65.120  1.00  0.00    -1.082 NA 
HETATM    2  C   UNL     1     -10.283   4.785  65.991  1.00  0.00    -0.278 C  
HETATM    3  H2  UNL     1     -11.838   3.553  65.408  1.00  0.00     0.000 HD 
HETATM    4  H1  UNL     1     -12.088   5.185  65.064  1.00  0.00     0.000 HD 
ENDROOT
BRANCH   2   5
HETATM    5  C   UNL     1      -9.253   3.647  66.075  1.00  0.00    -0.164 C  
HETATM    6  N   UNL     1      -9.539   2.746  67.192  1.00  0.00    -0.403 NA 
HETATM    7  H2  UNL     1     -10.492   2.384  67.146  1.00  0.00     0.000 HD 
HETATM    8  H1  UNL     1      -8.855   1.991  67.248  1.00  0.00     0.000 HD 
ENDBRANCH   2   5
TORSDOF 1
ENDMDL
MODEL       40
REMARK 921   NORMALIZED FREE ENERGY PREDICTED BY IDOCK:   -1.81 KCAL/MOL
REMARK 922        TOTAL FREE ENERGY PREDICTED BY IDOCK:   -1.91 KCAL/MOL
REMARK 923 INTER-LIGAND FREE ENERGY PREDICTED BY IDOCK:   -1.91 KCAL/MOL
REMARK 924 INTRA-LIGAND FREE ENERGY PREDICTED BY IDOCK:    0.00 KCAL/MOL
REMARK 927      BINDING AFFINITY PREDICTED BY RF-SCORE:    0.00 PKD
ROOT
HETATM    1  N   UNL     1     -11.111   7.169  73.672  1.00  0.00    -0.536 NA 
HETATM    2  C   UNL     1     -11.559   7.930  72.505  1.00  0.00    -0.386 C  
HETATM    3  H2  UNL     1     -10.744   6.256  73.403  1.00  0.00     0.000 HD 
HETATM    4  H1  UNL     1     -10.434   7.696  74.224  1.00  0.00     0.000 HD 
ENDROOT
BRANCH   2   5
HETATM    5  C   UNL     1     -12.579   7.136  71.673  1.00  0.00    -0.375 C  
HETATM    6  N   UNL     1     -12.146   6.998  70.283  1.00  0.00    -0.618 NA 
HETATM    7  H2  UNL     1     -11.214   6.588  70.221  1.00  0.00     0.000 HD 
HETATM    8  H1  UNL     1     -12.823   6.471  69.730  1.00  0.00     0.000 HD 
ENDBRANCH   2   5
TORSDOF 1
ENDMDL
MODEL       41
REMARK 921   NORMALIZED FREE ENERGY PREDICTED BY IDOCK:   -1.81 KCAL/MOL
REMARK 922        TOTAL FREE ENERGY PREDICTED BY IDOCK:   -1.91 KCAL/MOL
REMARK 923 INTER-LIGAND FREE ENERGY PREDICTED BY IDOCK:   -1.91 KCAL/MOL
REMARK 924 INTRA-LIGAND FREE ENERGY PREDICTED BY IDOCK:    0.00 KCAL/MOL
REMARK 927      BINDING AFFINITY PREDICTED BY RF-SCORE:    0.00 PKD
ROOT
HETATM    1  N   UNL     1     -10.115  13.731  64.584  1.00  0.00    -0.619 NA 
HETATM    2  C   UNL     1     -10.420  14.376  65.861  1.00  0.00    -0.308 C  
HETATM    3  H2  UNL     1     -10.900  13.796  63.936  1.00  0.00     0.000 HD 
HETATM    4  H1  UNL     1      -9.259  14.104  64.172  1.00  0.00     0.000 HD 
ENDROOT
BRANCH   2   5
HETATM    5  C   UNL     1     -11.710  13.815  66.482  1.00  0.00    -0.385 C  
HETATM    6  N   UNL     1     -12.059  14.514  67.719  1.00  0.00    -0.598 NA 
HETATM    7  H2  UNL     1     -12.122  15.522  67.573  1.00  0.00     0.000 HD 
HETATM    8  H1  UNL     1     -12.915  14.142  68.131  1.00  0.00     0.000 HD 
ENDBRANCH   2   5
TORSDOF 1
ENDMDL
MODEL       42
REMARK 921   NORMALIZED FREE ENERGY PREDICTED BY IDOCK:   -1.79 KCAL/MOL
REMARK 922        TOTAL FREE ENERGY PREDICTED BY IDOCK:   -1.90 KCAL/MOL
REMARK 923 INTER-LIGAND FREE ENERGY PREDICTED BY IDOCK:   -1.90 KCAL/MOL
REMARK 924 INTRA-LIGAND FREE ENERGY PREDICTED BY IDOCK:    0.00 KCAL/MOL
REMARK 927      BINDING AFFINITY PREDICTED BY RF-SCORE:    0.00 PKD
ROOT
HETATM    1  N   UNL     1     -10.993  14.771  71.179  1.00  0.00    -0.516 NA 
HETATM    2  C   UNL     1     -11.634  15.900  70.505  1.00  0.00    -0.381 C  
HETATM    3  H2  UNL     1     -10.031  14.645  70.864  1.00  0.00     0.000 HD 
HETATM    4  H1  UNL     1     -11.043  14.865  72.194  1.00  0.00     0.000 HD 
ENDROOT
BRANCH   2   5
HETATM    5  C   UNL     1     -11.557  15.759  68.976  1.00  0.00    -0.400 C  
HETATM    6  N   UNL     1     -12.263  14.565  68.511  1.00  0.00    -0.602 NA 
HETATM    7  H2  UNL     1     -13.229  14.551  68.839  1.00  0.00     0.000 HD 
HETATM    8  H1  UNL     1     -12.212  14.471  67.496  1.00  0.00     0.000 HD 
ENDBRANCH   2   5
TORSDOF 1
ENDMDL
MODEL       43
REMARK 921   NORMALIZED FREE ENERGY PREDICTED BY IDOCK:   -1.79 KCAL/MOL
REMARK 922        TOTAL FREE ENERGY PREDICTED BY IDOCK:   -1.90 KCAL/MOL
REMARK 923 INTER-LIGAND FREE ENERGY PREDICTED BY IDOCK:   -1.90 KCAL/MOL
REMARK 924 INTRA-LIGAND FREE ENERGY PREDICTED BY IDOCK:    0.00 KCAL/MOL
REMARK 927      BINDING AFFINITY PREDICTED BY RF-SCORE:    0.00 PKD
ROOT
HETATM    1  N   UNL     1     -11.321  12.573  63.104  1.00  0.00    -0.747 NA 
HETATM    2  C   UNL     1     -10.328  11.532  63.369  1.00  0.00    -0.418 C  
HETATM    3  H2  UNL     1     -11.199  13.372  63.726  1.00  0.00     0.000 HD 
HETATM    4  H1  UNL     1     -11.312  12.858  62.124  1.00  0.00     0.000 HD 
ENDROOT
BRANCH   2   5
HETATM    5  C   UNL     1     -10.341  11.104  64.845  1.00  0.00    -0.313 C  
HETATM    6  N   UNL     1      -9.891   9.721  65.006  1.00  0.00    -0.421 NA 
HETATM    7  H2  UNL     1      -8.974   9.575  64.584  1.00  0.00     0.000 HD 
HETATM    8  H1  UNL     1      -9.900   9.436  65.986  1.00  0.00     0.000 HD 
ENDBRANCH   2   5
TORSDOF 1
ENDMDL
MODEL       44
REMARK 921   NORMALIZED FREE ENERGY PREDICTED BY IDOCK:   -1.79 KCAL/MOL
REMARK 922        TOTAL FREE ENERGY PREDICTED BY IDOCK:   -1.89 KCAL/MOL
REMARK 923 INTER-LIGAND FREE ENERGY PREDICTED BY IDOCK:   -1.89 KCAL/MOL
REMARK 924 INTRA-LIGAND FREE ENERGY PREDICTED BY IDOCK:    0.00 KCAL/MOL
REMARK 927      BINDING AFFINITY PREDICTED BY RF-SCORE:    0.00 PKD
ROOT
HETATM    1  N   UNL     1     -11.832  15.574  68.538  1.00  0.00    -0.501 NA 
HETATM    2  C   UNL     1     -11.250  16.020  69.804  1.00  0.00    -0.344 C  
HETATM    3  H2  UNL     1     -12.685  16.088  68.318  1.00  0.00     0.000 HD 
HETATM    4  H1  UNL     1     -11.156  15.628  67.776  1.00  0.00     0.000 HD 
ENDROOT
BRANCH   2   5
HETATM    5  C   UNL     1     -12.269  15.939  70.952  1.00  0.00    -0.355 C  
HETATM    6  N   UNL     1     -13.447  15.159  70.570  1.00  0.00    -0.691 NA 
HETATM    7  H2  UNL     1     -13.188  14.231  70.234  1.00  0.00     0.000 HD 
HETATM    8  H1  UNL     1     -14.124  15.105  71.332  1.00  0.00     0.000 HD 
ENDBRANCH   2   5
TORSDOF 1
ENDMDL
MODEL       45
REMARK 921   NORMALIZED FREE ENERGY PREDICTED BY IDOCK:   -1.74 KCAL/MOL
REMARK 922        TOTAL FREE ENERGY PREDICTED BY IDOCK:   -1.85 KCAL/MOL
REMARK 923 INTER-LIGAND FREE ENERGY PREDICTED BY IDOCK:   -1.85 KCAL/MOL
REMARK 924 INTRA-LIGAND FREE ENERGY PREDICTED BY IDOCK:    0.00 KCAL/MOL
REMARK 927      BINDING AFFINITY PREDICTED BY RF-SCORE:    0.00 PKD
ROOT
HETATM    1  N   UNL     1     -11.287   4.424  64.899  1.00  0.00    -1.085 NA 
HETATM    2  C   UNL     1     -10.127   4.568  65.779  1.00  0.00    -0.255 C  
HETATM    3  H2  UNL     1     -11.084   3.807  64.113  1.00  0.00     0.000 HD 
HETATM    4  H1  UNL     1     -12.111   4.114  65.415  1.00  0.00     0.000 HD 
ENDROOT
BRANCH   2   5
HETATM    5  C   UNL     1      -8.885   5.035  65.002  1.00  0.00    -0.149 C  
HETATM    6  N   UNL     1      -8.666   6.473  65.156  1.00  0.00    -0.356 NA 
HETATM    7  H2  UNL     1      -8.613   6.740  66.140  1.00  0.00     0.000 HD 
HETATM    8  H1  UNL     1      -7.842   6.784  64.641  1.00  0.00     0.000 HD 
ENDBRANCH   2   5
TORSDOF 1
ENDMDL
MODEL       46
REMARK 921   NORMALIZED FREE ENERGY PREDICTED BY IDOCK:   -1.71 KCAL/MOL
REMARK 922        TOTAL FREE ENERGY PREDICTED BY IDOCK:   -1.81 KCAL/MOL
REMARK 923 INTER-LIGAND FREE ENERGY PREDICTED BY IDOCK:   -1.81 KCAL/MOL
REMARK 924 INTRA-LIGAND FREE ENERGY PREDICTED BY IDOCK:    0.00 KCAL/MOL
REMARK 927      BINDING AFFINITY PREDICTED BY RF-SCORE:    0.00 PKD
ROOT
HETATM    1  N   UNL     1     -11.894  10.630  68.229  1.00  0.00    -0.786 NA 
HETATM    2  C   UNL     1     -10.755  10.403  67.340  1.00  0.00    -0.283 C  
HETATM    3  H2  UNL     1     -11.787  10.127  69.110  1.00  0.00     0.000 HD 
HETATM    4  H1  UNL     1     -12.053  11.626  68.386  1.00  0.00     0.000 HD 
ENDROOT
BRANCH   2   5
HETATM    5  C   UNL     1     -10.515   8.902  67.105  1.00  0.00    -0.274 C  
HETATM    6  N   UNL     1      -9.802   8.663  65.850  1.00  0.00    -0.464 NA 
HETATM    7  H2  UNL     1      -8.930   9.192  65.809  1.00  0.00     0.000 HD 
HETATM    8  H1  UNL     1      -9.642   7.668  65.694  1.00  0.00     0.000 HD 
ENDBRANCH   2   5
TORSDOF 1
ENDMDL
MODEL       47
REMARK 921   NORMALIZED FREE ENERGY PREDICTED BY IDOCK:   -1.70 KCAL/MOL
REMARK 922        TOTAL FREE ENERGY PREDICTED BY IDOCK:   -1.80 KCAL/MOL
REMARK 923 INTER-LIGAND FREE ENERGY PREDICTED BY IDOCK:   -1.80 KCAL/MOL
REMARK 924 INTRA-LIGAND FREE ENERGY PREDICTED BY IDOCK:    0.00 KCAL/MOL
REMARK 927      BINDING AFFINITY PREDICTED BY RF-SCORE:    0.00 PKD
ROOT
HETATM    1  N   UNL     1     -11.174  13.680  69.697  1.00  0.00    -0.445 NA 
HETATM    2  C   UNL     1     -11.901  13.628  68.428  1.00  0.00    -0.372 C  
HETATM    3  H2  UNL     1     -10.176  13.519  69.563  1.00  0.00     0.000 HD 
HETATM    4  H1  UNL     1     -11.348  14.555  70.192  1.00  0.00     0.000 HD 
ENDROOT
BRANCH   2   5
HETATM    5  C   UNL     1     -11.638  12.310  67.683  1.00  0.00    -0.354 C  
HETATM    6  N   UNL     1     -12.097  12.378  66.295  1.00  0.00    -0.630 NA 
HETATM    7  H2  UNL     1     -11.686  13.173  65.804  1.00  0.00     0.000 HD 
HETATM    8  H1  UNL     1     -11.923  11.503  65.800  1.00  0.00     0.000 HD 
ENDBRANCH   2   5
TORSDOF 1
ENDMDL
MODEL       48
REMARK 921   NORMALIZED FREE ENERGY PREDICTED BY IDOCK:   -1.70 KCAL/MOL
REMARK 922        TOTAL FREE ENERGY PREDICTED BY IDOCK:   -1.80 KCAL/MOL
REMARK 923 INTER-LIGAND FREE ENERGY PREDICTED BY IDOCK:   -1.80 KCAL/MOL
REMARK 924 INTRA-LIGAND FREE ENERGY PREDICTED BY IDOCK:    0.00 KCAL/MOL
REMARK 927      BINDING AFFINITY PREDICTED BY RF-SCORE:    0.00 PKD
ROOT
HETATM    1  N   UNL     1     -12.021   8.724  70.490  1.00  0.00    -0.473 NA 
HETATM    2  C   UNL     1     -11.176   9.391  71.480  1.00  0.00    -0.386 C  
HETATM    3  H2  UNL     1     -12.660   8.062  70.930  1.00  0.00     0.000 HD 
HETATM    4  H1  UNL     1     -12.523   9.398  69.911  1.00  0.00     0.000 HD 
ENDROOT
BRANCH   2   5
HETATM    5  C   UNL     1     -10.420   8.374  72.351  1.00  0.00    -0.332 C  
HETATM    6  N   UNL     1     -11.339   7.579  73.167  1.00  0.00    -0.604 NA 
HETATM    7  H2  UNL     1     -12.050   7.124  72.593  1.00  0.00     0.000 HD 
HETATM    8  H1  UNL     1     -10.838   6.905  73.745  1.00  0.00     0.000 HD 
ENDBRANCH   2   5
TORSDOF 1
ENDMDL
MODEL       49
REMARK 921   NORMALIZED FREE ENERGY PREDICTED BY IDOCK:   -1.69 KCAL/MOL
REMARK 922        TOTAL FREE ENERGY PREDICTED BY IDOCK:   -1.79 KCAL/MOL
REMARK 923 INTER-LIGAND FREE ENERGY PREDICTED BY IDOCK:   -1.79 KCAL/MOL
REMARK 924 INTRA-LIGAND FREE ENERGY PREDICTED BY IDOCK:    0.00 KCAL/MOL
REMARK 927      BINDING AFFINITY PREDICTED BY RF-SCORE:    0.00 PKD
ROOT
HETATM    1  N   UNL     1     -11.455   4.304  65.078  1.00  0.00    -0.996 NA 
HETATM    2  C   UNL     1     -10.504   4.888  66.024  1.00  0.00    -0.283 C  
HETATM    3  H2  UNL     1     -11.881   5.019  64.488  1.00  0.00     0.000 HD 
HETATM    4  H1  UNL     1     -11.022   3.568  64.518  1.00  0.00     0.000 HD 
ENDROOT
BRANCH   2   5
HETATM    5  C   UNL     1     -11.156   5.996  66.866  1.00  0.00    -0.165 C  
HETATM    6  N   UNL     1     -10.314   7.192  66.923  1.00  0.00    -0.349 NA 
HETATM    7  H2  UNL     1     -10.074   7.525  65.989  1.00  0.00     0.000 HD 
HETATM    8  H1  UNL     1     -10.747   7.928  67.482  1.00  0.00     0.000 HD 
ENDBRANCH   2   5
TORSDOF 1
ENDMDL
MODEL       50
REMARK 921   NORMALIZED FREE ENERGY PREDICTED BY IDOCK:   -1.68 KCAL/MOL
REMARK 922        TOTAL FREE ENERGY PREDICTED BY IDOCK:   -1.78 KCAL/MOL
REMARK 923 INTER-LIGAND FREE ENERGY PREDICTED BY IDOCK:   -1.78 KCAL/MOL
REMARK 924 INTRA-LIGAND FREE ENERGY PREDICTED BY IDOCK:    0.00 KCAL/MOL
REMARK 927      BINDING AFFINITY PREDICTED BY RF-SCORE:    0.00 PKD
ROOT
HETATM    1  N   UNL     1     -11.617   7.673  73.046  1.00  0.00    -0.621 NA 
HETATM    2  C   UNL     1     -12.520   8.164  72.005  1.00  0.00    -0.336 C  
HETATM    3  H2  UNL     1     -11.455   8.380  73.763  1.00  0.00     0.000 HD 
HETATM    4  H1  UNL     1     -11.953   6.799  73.452  1.00  0.00     0.000 HD 
ENDROOT
BRANCH   2   5
HETATM    5  C   UNL     1     -12.012   9.480  71.394  1.00  0.00    -0.386 C  
HETATM    6  N   UNL     1     -11.421   9.265  70.073  1.00  0.00    -0.437 NA 
HETATM    7  H2  UNL     1     -12.069   8.788  69.446  1.00  0.00     0.000 HD 
HETATM    8  H1  UNL     1     -11.084  10.138  69.667  1.00  0.00     0.000 HD 
ENDBRANCH   2   5
TORSDOF 1
ENDMDL
MODEL       51
REMARK 921   NORMALIZED FREE ENERGY PREDICTED BY IDOCK:   -1.68 KCAL/MOL
REMARK 922        TOTAL FREE ENERGY PREDICTED BY IDOCK:   -1.78 KCAL/MOL
REMARK 923 INTER-LIGAND FREE ENERGY PREDICTED BY IDOCK:   -1.78 KCAL/MOL
REMARK 924 INTRA-LIGAND FREE ENERGY PREDICTED BY IDOCK:    0.00 KCAL/MOL
REMARK 927      BINDING AFFINITY PREDICTED BY RF-SCORE:    0.00 PKD
ROOT
HETATM    1  N   UNL     1     -11.401   4.284  64.793  1.00  0.00    -1.022 NA 
HETATM    2  C   UNL     1     -10.637   3.384  63.928  1.00  0.00    -0.243 C  
HETATM    3  H2  UNL     1     -12.270   4.579  64.349  1.00  0.00     0.000 HD 
HETATM    4  H1  UNL     1     -11.573   3.867  65.708  1.00  0.00     0.000 HD 
ENDROOT
BRANCH   2   5
HETATM    5  C   UNL     1     -10.380   4.012  62.549  1.00  0.00    -0.171 C  
HETATM    6  N   UNL     1      -9.471   5.155  62.642  1.00  0.00    -0.343 NA 
HETATM    7  H2  UNL     1      -8.598   4.902  63.106  1.00  0.00     0.000 HD 
HETATM    8  H1  UNL     1      -9.299   5.572  61.727  1.00  0.00     0.000 HD 
ENDBRANCH   2   5
TORSDOF 1
ENDMDL
MODEL       52
REMARK 921   NORMALIZED FREE ENERGY PREDICTED BY IDOCK:   -1.68 KCAL/MOL
REMARK 922        TOTAL FREE ENERGY PREDICTED BY IDOCK:   -1.78 KCAL/MOL
REMARK 923 INTER-LIGAND FREE ENERGY PREDICTED BY IDOCK:   -1.78 KCAL/MOL
REMARK 924 INTRA-LIGAND FREE ENERGY PREDICTED BY IDOCK:    0.00 KCAL/MOL
REMARK 927      BINDING AFFINITY PREDICTED BY RF-SCORE:    0.00 PKD
ROOT
HETATM    1  N   UNL     1      -9.162  20.327  66.238  1.00  0.00    -0.609 NA 
HETATM    2  C   UNL     1      -8.071  19.366  66.395  1.00  0.00    -0.318 C  
HETATM    3  H2  UNL     1      -9.157  20.749  65.309  1.00  0.00     0.000 HD 
HETATM    4  H1  UNL     1     -10.066  19.905  66.452  1.00  0.00     0.000 HD 
ENDROOT
BRANCH   2   5
HETATM    5  C   UNL     1      -6.709  20.002  66.073  1.00  0.00    -0.243 C  
HETATM    6  N   UNL     1      -6.570  21.317  66.698  1.00  0.00    -0.608 NA 
HETATM    7  H2  UNL     1      -6.732  21.272  67.704  1.00  0.00     0.000 HD 
HETATM    8  H1  UNL     1      -5.666  21.740  66.484  1.00  0.00     0.000 HD 
ENDBRANCH   2   5
TORSDOF 1
ENDMDL
MODEL       53
REMARK 921   NORMALIZED FREE ENERGY PREDICTED BY IDOCK:   -1.67 KCAL/MOL
REMARK 922        TOTAL FREE ENERGY PREDICTED BY IDOCK:   -1.77 KCAL/MOL
REMARK 923 INTER-LIGAND FREE ENERGY PREDICTED BY IDOCK:   -1.77 KCAL/MOL
REMARK 924 INTRA-LIGAND FREE ENERGY PREDICTED BY IDOCK:    0.00 KCAL/MOL
REMARK 927      BINDING AFFINITY PREDICTED BY RF-SCORE:    0.00 PKD
ROOT
HETATM    1  N   UNL     1     -12.005  11.260  67.742  1.00  0.00    -0.635 NA 
HETATM    2  C   UNL     1     -11.478  12.598  67.476  1.00  0.00    -0.340 C  
HETATM    3  H2  UNL     1     -12.794  11.291  68.388  1.00  0.00     0.000 HD 
HETATM    4  H1  UNL     1     -12.250  10.776  66.878  1.00  0.00     0.000 HD 
ENDROOT
BRANCH   2   5
HETATM    5  C   UNL     1     -11.109  13.327  68.779  1.00  0.00    -0.266 C  
HETATM    6  N   UNL     1     -11.541  12.573  69.956  1.00  0.00    -0.530 NA 
HETATM    7  H2  UNL     1     -11.176  11.621  69.945  1.00  0.00     0.000 HD 
HETATM    8  H1  UNL     1     -11.297  13.057  70.821  1.00  0.00     0.000 HD 
ENDBRANCH   2   5
TORSDOF 1
ENDMDL
MODEL       54
REMARK 921   NORMALIZED FREE ENERGY PREDICTED BY IDOCK:   -1.65 KCAL/MOL
REMARK 922        TOTAL FREE ENERGY PREDICTED BY IDOCK:   -1.75 KCAL/MOL
REMARK 923 INTER-LIGAND FREE ENERGY PREDICTED BY IDOCK:   -1.75 KCAL/MOL
REMARK 924 INTRA-LIGAND FREE ENERGY PREDICTED BY IDOCK:    0.00 KCAL/MOL
REMARK 927      BINDING AFFINITY PREDICTED BY RF-SCORE:    0.00 PKD
ROOT
HETATM    1  N   UNL     1      -8.973   6.426  65.327  1.00  0.00    -0.364 NA 
HETATM    2  C   UNL     1      -8.864   4.970  65.418  1.00  0.00    -0.152 C  
HETATM    3  H2  UNL     1      -9.273   6.834  66.213  1.00  0.00     0.000 HD 
HETATM    4  H1  UNL     1      -8.104   6.846  64.998  1.00  0.00     0.000 HD 
ENDROOT
BRANCH   2   5
HETATM    5  C   UNL     1     -10.174   4.337  65.914  1.00  0.00    -0.173 C  
HETATM    6  N   UNL     1     -11.307   4.714  65.068  1.00  0.00    -1.059 NA 
HETATM    7  H2  UNL     1     -11.132   4.490  64.088  1.00  0.00     0.000 HD 
HETATM    8  H1  UNL     1     -12.176   4.294  65.397  1.00  0.00     0.000 HD 
ENDBRANCH   2   5
TORSDOF 1
ENDMDL
MODEL       55
REMARK 921   NORMALIZED FREE ENERGY PREDICTED BY IDOCK:   -1.65 KCAL/MOL
REMARK 922        TOTAL FREE ENERGY PREDICTED BY IDOCK:   -1.75 KCAL/MOL
REMARK 923 INTER-LIGAND FREE ENERGY PREDICTED BY IDOCK:   -1.75 KCAL/MOL
REMARK 924 INTRA-LIGAND FREE ENERGY PREDICTED BY IDOCK:    0.00 KCAL/MOL
REMARK 927      BINDING AFFINITY PREDICTED BY RF-SCORE:    0.00 PKD
ROOT
HETATM    1  N   UNL     1      -9.966  20.295  65.918  1.00  0.00    -0.612 NA 
HETATM    2  C   UNL     1      -9.167  20.188  67.139  1.00  0.00    -0.383 C  
HETATM    3  H2  UNL     1     -10.557  19.474  65.786  1.00  0.00     0.000 HD 
HETATM    4  H1  UNL     1     -10.514  21.156  65.904  1.00  0.00     0.000 HD 
ENDROOT
BRANCH   2   5
HETATM    5  C   UNL     1      -8.342  18.891  67.161  1.00  0.00    -0.274 C  
HETATM    6  N   UNL     1      -7.936  18.492  65.813  1.00  0.00    -0.478 NA 
HETATM    7  H2  UNL     1      -7.438  19.242  65.334  1.00  0.00     0.000 HD 
HETATM    8  H1  UNL     1      -7.389  17.630  65.827  1.00  0.00     0.000 HD 
ENDBRANCH   2   5
TORSDOF 1
ENDMDL
MODEL       56
REMARK 921   NORMALIZED FREE ENERGY PREDICTED BY IDOCK:   -1.64 KCAL/MOL
REMARK 922        TOTAL FREE ENERGY PREDICTED BY IDOCK:   -1.73 KCAL/MOL
REMARK 923 INTER-LIGAND FREE ENERGY PREDICTED BY IDOCK:   -1.73 KCAL/MOL
REMARK 924 INTRA-LIGAND FREE ENERGY PREDICTED BY IDOCK:    0.00 KCAL/MOL
REMARK 927      BINDING AFFINITY PREDICTED BY RF-SCORE:    0.00 PKD
ROOT
HETATM    1  N   UNL     1      -8.278  17.843  68.408  1.00  0.00    -0.293 NA 
HETATM    2  C   UNL     1      -8.048  19.285  68.492  1.00  0.00    -0.366 C  
HETATM    3  H2  UNL     1      -7.830  17.441  67.585  1.00  0.00     0.000 HD 
HETATM    4  H1  UNL     1      -7.986  17.367  69.262  1.00  0.00     0.000 HD 
ENDROOT
BRANCH   2   5
HETATM    5  C   UNL     1      -8.487  20.002  67.205  1.00  0.00    -0.334 C  
HETATM    6  N   UNL     1      -7.706  21.217  66.975  1.00  0.00    -0.741 NA 
HETATM    7  H2  UNL     1      -6.705  21.023  66.970  1.00  0.00     0.000 HD 
HETATM    8  H1  UNL     1      -7.998  21.693  66.121  1.00  0.00     0.000 HD 
ENDBRANCH   2   5
TORSDOF 1
ENDMDL
MODEL       57
REMARK 921   NORMALIZED FREE ENERGY PREDICTED BY IDOCK:   -1.63 KCAL/MOL
REMARK 922        TOTAL FREE ENERGY PREDICTED BY IDOCK:   -1.73 KCAL/MOL
REMARK 923 INTER-LIGAND FREE ENERGY PREDICTED BY IDOCK:   -1.73 KCAL/MOL
REMARK 924 INTRA-LIGAND FREE ENERGY PREDICTED BY IDOCK:    0.00 KCAL/MOL
REMARK 927      BINDING AFFINITY PREDICTED BY RF-SCORE:    0.00 PKD
ROOT
HETATM    1  N   UNL     1      -9.451  14.664  66.073  1.00  0.00    -0.450 NA 
HETATM    2  C   UNL     1     -10.191  13.546  65.487  1.00  0.00    -0.295 C  
HETATM    3  H2  UNL     1      -9.186  14.471  67.039  1.00  0.00     0.000 HD 
HETATM    4  H1  UNL     1      -8.641  14.914  65.506  1.00  0.00     0.000 HD 
ENDROOT
BRANCH   2   5
HETATM    5  C   UNL     1     -11.412  13.170  66.342  1.00  0.00    -0.334 C  
HETATM    6  N   UNL     1     -12.502  12.645  65.519  1.00  0.00    -0.648 NA 
HETATM    7  H2  UNL     1     -12.192  11.860  64.945  1.00  0.00     0.000 HD 
HETATM    8  H1  UNL     1     -13.312  12.395  66.086  1.00  0.00     0.000 HD 
ENDBRANCH   2   5
TORSDOF 1
ENDMDL
MODEL       58
REMARK 921   NORMALIZED FREE ENERGY PREDICTED BY IDOCK:   -1.62 KCAL/MOL
REMARK 922        TOTAL FREE ENERGY PREDICTED BY IDOCK:   -1.71 KCAL/MOL
REMARK 923 INTER-LIGAND FREE ENERGY PREDICTED BY IDOCK:   -1.71 KCAL/MOL
REMARK 924 INTRA-LIGAND FREE ENERGY PREDICTED BY IDOCK:    0.00 KCAL/MOL
REMARK 927      BINDING AFFINITY PREDICTED BY RF-SCORE:    0.00 PKD
ROOT
HETATM    1  N   UNL     1     -12.510   7.145  70.427  1.00  0.00    -0.596 NA 
HETATM    2  C   UNL     1     -11.495   6.389  69.692  1.00  0.00    -0.378 C  
HETATM    3  H2  UNL     1     -13.073   7.720  69.801  1.00  0.00     0.000 HD 
HETATM    4  H1  UNL     1     -13.094   6.531  70.996  1.00  0.00     0.000 HD 
ENDROOT
BRANCH   2   5
HETATM    5  C   UNL     1     -10.616   7.314  68.835  1.00  0.00    -0.191 C  
HETATM    6  N   UNL     1     -11.127   7.425  67.469  1.00  0.00    -0.551 NA 
HETATM    7  H2  UNL     1     -12.102   7.722  67.458  1.00  0.00     0.000 HD 
HETATM    8  H1  UNL     1     -10.543   8.038  66.899  1.00  0.00     0.000 HD 
ENDBRANCH   2   5
TORSDOF 1
ENDMDL
MODEL       59
REMARK 921   NORMALIZED FREE ENERGY PREDICTED BY IDOCK:   -1.59 KCAL/MOL
REMARK 922        TOTAL FREE ENERGY PREDICTED BY IDOCK:   -1.69 KCAL/MOL
REMARK 923 INTER-LIGAND FREE ENERGY PREDICTED BY IDOCK:   -1.69 KCAL/MOL
REMARK 924 INTRA-LIGAND FREE ENERGY PREDICTED BY IDOCK:    0.00 KCAL/MOL
REMARK 927      BINDING AFFINITY PREDICTED BY RF-SCORE:    0.00 PKD
ROOT
HETATM    1  N   UNL     1      -6.326  19.174  69.897  1.00  0.00    -0.227 NA 
HETATM    2  C   UNL     1      -6.122  20.246  68.922  1.00  0.00    -0.321 C  
HETATM    3  H2  UNL     1      -6.269  18.255  69.459  1.00  0.00     0.000 HD 
HETATM    4  H1  UNL     1      -5.679  19.254  70.682  1.00  0.00     0.000 HD 
ENDROOT
BRANCH   2   5
HETATM    5  C   UNL     1      -7.098  20.125  67.741  1.00  0.00    -0.295 C  
HETATM    6  N   UNL     1      -7.196  21.380  66.995  1.00  0.00    -0.844 NA 
HETATM    7  H2  UNL     1      -6.279  21.706  66.690  1.00  0.00     0.000 HD 
HETATM    8  H1  UNL     1      -7.844  21.300  66.211  1.00  0.00     0.000 HD 
ENDBRANCH   2   5
TORSDOF 1
ENDMDL
MODEL       60
REMARK 921   NORMALIZED FREE ENERGY PREDICTED BY IDOCK:   -1.58 KCAL/MOL
REMARK 922        TOTAL FREE ENERGY PREDICTED BY IDOCK:   -1.67 KCAL/MOL
REMARK 923 INTER-LIGAND FREE ENERGY PREDICTED BY IDOCK:   -1.67 KCAL/MOL
REMARK 924 INTRA-LIGAND FREE ENERGY PREDICTED BY IDOCK:    0.00 KCAL/MOL
REMARK 927      BINDING AFFINITY PREDICTED BY RF-SCORE:    0.00 PKD
ROOT
HETATM    1  N   UNL     1      -9.029  16.986  65.830  1.00  0.00    -0.537 NA 
HETATM    2  C   UNL     1      -8.775  18.280  66.463  1.00  0.00    -0.274 C  
HETATM    3  H2  UNL     1      -9.541  17.093  64.954  1.00  0.00     0.000 HD 
HETATM    4  H1  UNL     1      -8.166  16.459  65.696  1.00  0.00     0.000 HD 
ENDROOT
BRANCH   2   5
HETATM    5  C   UNL     1     -10.076  19.074  66.664  1.00  0.00    -0.392 C  
HETATM    6  N   UNL     1     -10.799  19.246  65.404  1.00  0.00    -0.469 NA 
HETATM    7  H2  UNL     1     -10.975  18.351  64.948  1.00  0.00     0.000 HD 
HETATM    8  H1  UNL     1     -11.663  19.773  65.537  1.00  0.00     0.000 HD 
ENDBRANCH   2   5
TORSDOF 1
ENDMDL
MODEL       61
REMARK 921   NORMALIZED FREE ENERGY PREDICTED BY IDOCK:   -1.57 KCAL/MOL
REMARK 922        TOTAL FREE ENERGY PREDICTED BY IDOCK:   -1.66 KCAL/MOL
REMARK 923 INTER-LIGAND FREE ENERGY PREDICTED BY IDOCK:   -1.66 KCAL/MOL
REMARK 924 INTRA-LIGAND FREE ENERGY PREDICTED BY IDOCK:    0.00 KCAL/MOL
REMARK 927      BINDING AFFINITY PREDICTED BY RF-SCORE:    0.00 PKD
ROOT
HETATM    1  N   UNL     1      -9.182  16.422  65.749  1.00  0.00    -0.475 NA 
HETATM    2  C   UNL     1     -10.533  16.251  66.283  1.00  0.00    -0.308 C  
HETATM    3  H2  UNL     1      -8.959  15.703  65.060  1.00  0.00     0.000 HD 
HETATM    4  H1  UNL     1      -9.045  17.359  65.369  1.00  0.00     0.000 HD 
ENDROOT
BRANCH   2   5
HETATM    5  C   UNL     1     -10.738  14.839  66.855  1.00  0.00    -0.308 C  
HETATM    6  N   UNL     1     -12.054  14.699  67.479  1.00  0.00    -0.567 NA 
HETATM    7  H2  UNL     1     -12.802  14.952  66.834  1.00  0.00     0.000 HD 
HETATM    8  H1  UNL     1     -12.190  13.762  67.859  1.00  0.00     0.000 HD 
ENDBRANCH   2   5
TORSDOF 1
ENDMDL
MODEL       62
REMARK 921   NORMALIZED FREE ENERGY PREDICTED BY IDOCK:   -1.57 KCAL/MOL
REMARK 922        TOTAL FREE ENERGY PREDICTED BY IDOCK:   -1.66 KCAL/MOL
REMARK 923 INTER-LIGAND FREE ENERGY PREDICTED BY IDOCK:   -1.66 KCAL/MOL
REMARK 924 INTRA-LIGAND FREE ENERGY PREDICTED BY IDOCK:    0.00 KCAL/MOL
REMARK 927      BINDING AFFINITY PREDICTED BY RF-SCORE:    0.00 PKD
ROOT
HETATM    1  N   UNL     1     -12.149  14.823  67.822  1.00  0.00    -0.559 NA 
HETATM    2  C   UNL     1     -10.916  14.852  67.035  1.00  0.00    -0.327 C  
HETATM    3  H2  UNL     1     -12.328  13.892  68.200  1.00  0.00     0.000 HD 
HETATM    4  H1  UNL     1     -12.139  15.529  68.559  1.00  0.00     0.000 HD 
ENDROOT
BRANCH   2   5
HETATM    5  C   UNL     1     -10.930  13.788  65.926  1.00  0.00    -0.283 C  
HETATM    6  N   UNL     1      -9.580  13.321  65.613  1.00  0.00    -0.490 NA 
HETATM    7  H2  UNL     1      -9.098  12.985  66.447  1.00  0.00     0.000 HD 
HETATM    8  H1  UNL     1      -9.589  12.614  64.877  1.00  0.00     0.000 HD 
ENDBRANCH   2   5
TORSDOF 1
ENDMDL
MODEL       63
REMARK 921   NORMALIZED FREE ENERGY PREDICTED BY IDOCK:   -1.55 KCAL/MOL
REMARK 922        TOTAL FREE ENERGY PREDICTED BY IDOCK:   -1.65 KCAL/MOL
REMARK 923 INTER-LIGAND FREE ENERGY PREDICTED BY IDOCK:   -1.65 KCAL/MOL
REMARK 924 INTRA-LIGAND FREE ENERGY PREDICTED BY IDOCK:    0.00 KCAL/MOL
REMARK 927      BINDING AFFINITY PREDICTED BY RF-SCORE:    0.00 PKD
ROOT
HETATM    1  N   UNL     1      -9.550  17.123  65.811  1.00  0.00    -0.537 NA 
HETATM    2  C   UNL     1     -10.305  18.137  66.546  1.00  0.00    -0.386 C  
HETATM    3  H2  UNL     1      -9.955  16.194  65.934  1.00  0.00     0.000 HD 
HETATM    4  H1  UNL     1      -9.463  17.364  64.823  1.00  0.00     0.000 HD 
ENDROOT
BRANCH   2   5
HETATM    5  C   UNL     1     -10.436  17.773  68.034  1.00  0.00    -0.394 C  
HETATM    6  N   UNL     1     -11.186  16.530  68.218  1.00  0.00    -0.328 NA 
HETATM    7  H2  UNL     1     -10.778  15.765  67.681  1.00  0.00     0.000 HD 
HETATM    8  H1  UNL     1     -11.273  16.289  69.206  1.00  0.00     0.000 HD 
ENDBRANCH   2   5
TORSDOF 1
ENDMDL
MODEL       64
REMARK 921   NORMALIZED FREE ENERGY PREDICTED BY IDOCK:   -1.55 KCAL/MOL
REMARK 922        TOTAL FREE ENERGY PREDICTED BY IDOCK:   -1.64 KCAL/MOL
REMARK 923 INTER-LIGAND FREE ENERGY PREDICTED BY IDOCK:   -1.64 KCAL/MOL
REMARK 924 INTRA-LIGAND FREE ENERGY PREDICTED BY IDOCK:    0.00 KCAL/MOL
REMARK 927      BINDING AFFINITY PREDICTED BY RF-SCORE:    0.00 PKD
ROOT
HETATM    1  N   UNL     1      -9.764  13.963  69.057  1.00  0.00    -0.413 NA 
HETATM    2  C   UNL     1     -10.299  13.991  67.696  1.00  0.00    -0.242 C  
HETATM    3  H2  UNL     1     -10.131  13.172  69.586  1.00  0.00     0.000 HD 
HETATM    4  H1  UNL     1      -8.744  13.972  69.058  1.00  0.00     0.000 HD 
ENDROOT
BRANCH   2   5
HETATM    5  C   UNL     1     -11.837  13.977  67.695  1.00  0.00    -0.395 C  
HETATM    6  N   UNL     1     -12.382  14.905  68.686  1.00  0.00    -0.592 NA 
HETATM    7  H2  UNL     1     -12.017  15.849  68.555  1.00  0.00     0.000 HD 
HETATM    8  H1  UNL     1     -13.402  14.896  68.686  1.00  0.00     0.000 HD 
ENDBRANCH   2   5
TORSDOF 1
ENDMDL
MODEL       65
REMARK 921   NORMALIZED FREE ENERGY PREDICTED BY IDOCK:   -1.55 KCAL/MOL
REMARK 922        TOTAL FREE ENERGY PREDICTED BY IDOCK:   -1.64 KCAL/MOL
REMARK 923 INTER-LIGAND FREE ENERGY PREDICTED BY IDOCK:   -1.64 KCAL/MOL
REMARK 924 INTRA-LIGAND FREE ENERGY PREDICTED BY IDOCK:    0.00 KCAL/MOL
REMARK 927      BINDING AFFINITY PREDICTED BY RF-SCORE:    0.00 PKD
ROOT
HETATM    1  N   UNL     1      -9.235  13.242  66.319  1.00  0.00    -0.461 NA 
HETATM    2  C   UNL     1     -10.051  12.758  67.433  1.00  0.00    -0.219 C  
HETATM    3  H2  UNL     1      -9.766  13.262  65.448  1.00  0.00     0.000 HD 
HETATM    4  H1  UNL     1      -8.823  14.152  66.525  1.00  0.00     0.000 HD 
ENDROOT
BRANCH   2   5
HETATM    5  C   UNL     1     -10.673  11.387  67.121  1.00  0.00    -0.249 C  
HETATM    6  N   UNL     1     -11.792  11.090  68.015  1.00  0.00    -0.709 NA 
HETATM    7  H2  UNL     1     -12.493  11.831  67.995  1.00  0.00     0.000 HD 
HETATM    8  H1  UNL     1     -12.205  10.180  67.809  1.00  0.00     0.000 HD 
ENDBRANCH   2   5
TORSDOF 1
ENDMDL
MODEL       66
REMARK 921   NORMALIZED FREE ENERGY PREDICTED BY IDOCK:   -1.54 KCAL/MOL
REMARK 922        TOTAL FREE ENERGY PREDICTED BY IDOCK:   -1.63 KCAL/MOL
REMARK 923 INTER-LIGAND FREE ENERGY PREDICTED BY IDOCK:   -1.63 KCAL/MOL
REMARK 924 INTRA-LIGAND FREE ENERGY PREDICTED BY IDOCK:    0.00 KCAL/MOL
REMARK 927      BINDING AFFINITY PREDICTED BY RF-SCORE:    0.00 PKD
ROOT
HETATM    1  N   UNL     1      -9.136   7.808  65.313  1.00  0.00    -0.365 NA 
HETATM    2  C   UNL     1      -9.255   7.552  66.749  1.00  0.00    -0.156 C  
HETATM    3  H2  UNL     1      -9.786   8.533  65.008  1.00  0.00     0.000 HD 
HETATM    4  H1  UNL     1      -8.176   8.033  65.052  1.00  0.00     0.000 HD 
ENDROOT
BRANCH   2   5
HETATM    5  C   UNL     1     -10.702   7.213  67.142  1.00  0.00    -0.352 C  
HETATM    6  N   UNL     1     -11.157   5.979  66.500  1.00  0.00    -0.761 NA 
HETATM    7  H2  UNL     1     -10.526   5.202  66.694  1.00  0.00     0.000 HD 
HETATM    8  H1  UNL     1     -12.118   5.754  66.761  1.00  0.00     0.000 HD 
ENDBRANCH   2   5
TORSDOF 1
ENDMDL
MODEL       67
REMARK 921   NORMALIZED FREE ENERGY PREDICTED BY IDOCK:   -1.52 KCAL/MOL
REMARK 922        TOTAL FREE ENERGY PREDICTED BY IDOCK:   -1.61 KCAL/MOL
REMARK 923 INTER-LIGAND FREE ENERGY PREDICTED BY IDOCK:   -1.61 KCAL/MOL
REMARK 924 INTRA-LIGAND FREE ENERGY PREDICTED BY IDOCK:    0.00 KCAL/MOL
REMARK 927      BINDING AFFINITY PREDICTED BY RF-SCORE:    0.00 PKD
ROOT
HETATM    1  N   UNL     1      -9.900  12.960  68.633  1.00  0.00    -0.401 NA 
HETATM    2  C   UNL     1      -9.735  11.538  68.333  1.00  0.00    -0.202 C  
HETATM    3  H2  UNL     1      -9.986  13.123  69.636  1.00  0.00     0.000 HD 
HETATM    4  H1  UNL     1      -9.147  13.517  68.227  1.00  0.00     0.000 HD 
ENDROOT
BRANCH   2   5
HETATM    5  C   UNL     1     -10.869  10.699  68.944  1.00  0.00    -0.231 C  
HETATM    6  N   UNL     1     -12.167  11.052  68.369  1.00  0.00    -0.780 NA 
HETATM    7  H2  UNL     1     -12.157  10.980  67.351  1.00  0.00     0.000 HD 
HETATM    8  H1  UNL     1     -12.920  10.495  68.774  1.00  0.00     0.000 HD 
ENDBRANCH   2   5
TORSDOF 1
ENDMDL
MODEL       68
REMARK 921   NORMALIZED FREE ENERGY PREDICTED BY IDOCK:   -1.51 KCAL/MOL
REMARK 922        TOTAL FREE ENERGY PREDICTED BY IDOCK:   -1.60 KCAL/MOL
REMARK 923 INTER-LIGAND FREE ENERGY PREDICTED BY IDOCK:   -1.60 KCAL/MOL
REMARK 924 INTRA-LIGAND FREE ENERGY PREDICTED BY IDOCK:    0.00 KCAL/MOL
REMARK 927      BINDING AFFINITY PREDICTED BY RF-SCORE:    0.00 PKD
ROOT
HETATM    1  N   UNL     1     -11.919   7.651  72.835  1.00  0.00    -0.593 NA 
HETATM    2  C   UNL     1     -10.779   8.378  72.276  1.00  0.00    -0.347 C  
HETATM    3  H2  UNL     1     -12.012   7.817  73.837  1.00  0.00     0.000 HD 
HETATM    4  H1  UNL     1     -12.783   7.872  72.338  1.00  0.00     0.000 HD 
ENDROOT
BRANCH   2   5
HETATM    5  C   UNL     1      -9.478   8.046  73.025  1.00  0.00    -0.275 C  
HETATM    6  N   UNL     1      -8.310   8.610  72.347  1.00  0.00    -0.383 NA 
HETATM    7  H2  UNL     1      -8.411   9.614  72.201  1.00  0.00     0.000 HD 
HETATM    8  H1  UNL     1      -7.446   8.389  72.844  1.00  0.00     0.000 HD 
ENDBRANCH   2   5
TORSDOF 1
ENDMDL
MODEL       69
REMARK 921   NORMALIZED FREE ENERGY PREDICTED BY IDOCK:   -1.50 KCAL/MOL
REMARK 922        TOTAL FREE ENERGY PREDICTED BY IDOCK:   -1.59 KCAL/MOL
REMARK 923 INTER-LIGAND FREE ENERGY PREDICTED BY IDOCK:   -1.59 KCAL/MOL
REMARK 924 INTRA-LIGAND FREE ENERGY PREDICTED BY IDOCK:    0.00 KCAL/MOL
REMARK 927      BINDING AFFINITY PREDICTED BY RF-SCORE:    0.00 PKD
ROOT
HETATM    1  N   UNL     1     -11.897  11.614  67.292  1.00  0.00    -0.626 NA 
HETATM    2  C   UNL     1     -11.196  12.886  67.114  1.00  0.00    -0.289 C  
HETATM    3  H2  UNL     1     -11.637  11.165  68.170  1.00  0.00     0.000 HD 
HETATM    4  H1  UNL     1     -12.908  11.730  67.216  1.00  0.00     0.000 HD 
ENDROOT
BRANCH   2   5
HETATM    5  C   UNL     1      -9.673  12.711  67.228  1.00  0.00    -0.207 C  
HETATM    6  N   UNL     1      -8.958  13.699  66.420  1.00  0.00    -0.465 NA 
HETATM    7  H2  UNL     1      -9.243  14.650  66.654  1.00  0.00     0.000 HD 
HETATM    8  H1  UNL     1      -7.947  13.583  66.496  1.00  0.00     0.000 HD 
ENDBRANCH   2   5
TORSDOF 1
ENDMDL
MODEL       70
REMARK 921   NORMALIZED FREE ENERGY PREDICTED BY IDOCK:   -1.49 KCAL/MOL
REMARK 922        TOTAL FREE ENERGY PREDICTED BY IDOCK:   -1.58 KCAL/MOL
REMARK 923 INTER-LIGAND FREE ENERGY PREDICTED BY IDOCK:   -1.58 KCAL/MOL
REMARK 924 INTRA-LIGAND FREE ENERGY PREDICTED BY IDOCK:    0.00 KCAL/MOL
REMARK 927      BINDING AFFINITY PREDICTED BY RF-SCORE:    0.00 PKD
ROOT
HETATM    1  N   UNL     1     -11.879  10.641  68.191  1.00  0.00    -0.788 NA 
HETATM    2  C   UNL     1     -10.758  11.169  68.969  1.00  0.00    -0.225 C  
HETATM    3  H2  UNL     1     -11.555  10.127  67.371  1.00  0.00     0.000 HD 
HETATM    4  H1  UNL     1     -12.500  10.072  68.767  1.00  0.00     0.000 HD 
ENDROOT
BRANCH   2   5
HETATM    5  C   UNL     1      -9.824  12.026  68.100  1.00  0.00    -0.201 C  
HETATM    6  N   UNL     1      -8.590  12.363  68.810  1.00  0.00    -0.365 NA 
HETATM    7  H2  UNL     1      -8.117  11.528  69.155  1.00  0.00     0.000 HD 
HETATM    8  H1  UNL     1      -7.970  12.932  68.234  1.00  0.00     0.000 HD 
ENDBRANCH   2   5
TORSDOF 1
ENDMDL
MODEL       71
REMARK 921   NORMALIZED FREE ENERGY PREDICTED BY IDOCK:   -1.49 KCAL/MOL
REMARK 922        TOTAL FREE ENERGY PREDICTED BY IDOCK:   -1.58 KCAL/MOL
REMARK 923 INTER-LIGAND FREE ENERGY PREDICTED BY IDOCK:   -1.58 KCAL/MOL
REMARK 924 INTRA-LIGAND FREE ENERGY PREDICTED BY IDOCK:    0.00 KCAL/MOL
REMARK 927      BINDING AFFINITY PREDICTED BY RF-SCORE:    0.00 PKD
ROOT
HETATM    1  N   UNL     1     -10.668   8.711  68.441  1.00  0.00    -0.427 NA 
HETATM    2  C   UNL     1      -9.955   7.433  68.419  1.00  0.00    -0.164 C  
HETATM    3  H2  UNL     1     -11.023   8.924  69.373  1.00  0.00     0.000 HD 
HETATM    4  H1  UNL     1     -10.089   9.469  68.079  1.00  0.00     0.000 HD 
ENDROOT
BRANCH   2   5
HETATM    5  C   UNL     1     -10.828   6.292  68.965  1.00  0.00    -0.337 C  
HETATM    6  N   UNL     1     -11.934   6.802  69.774  1.00  0.00    -0.647 NA 
HETATM    7  H2  UNL     1     -12.491   7.484  69.258  1.00  0.00     0.000 HD 
HETATM    8  H1  UNL     1     -12.514   6.045  70.137  1.00  0.00     0.000 HD 
ENDBRANCH   2   5
TORSDOF 1
ENDMDL
MODEL       72
REMARK 921   NORMALIZED FREE ENERGY PREDICTED BY IDOCK:   -1.48 KCAL/MOL
REMARK 922        TOTAL FREE ENERGY PREDICTED BY IDOCK:   -1.57 KCAL/MOL
REMARK 923 INTER-LIGAND FREE ENERGY PREDICTED BY IDOCK:   -1.57 KCAL/MOL
REMARK 924 INTRA-LIGAND FREE ENERGY PREDICTED BY IDOCK:    0.00 KCAL/MOL
REMARK 927      BINDING AFFINITY PREDICTED BY RF-SCORE:    0.00 PKD
ROOT
HETATM    1  N   UNL     1     -11.384   4.510  65.061  1.00  0.00    -1.108 NA 
HETATM    2  C   UNL     1      -9.987   4.465  65.491  1.00  0.00    -0.230 C  
HETATM    3  H2  UNL     1     -11.905   3.700  65.397  1.00  0.00     0.000 HD 
HETATM    4  H1  UNL     1     -11.833   5.384  65.338  1.00  0.00     0.000 HD 
ENDROOT
BRANCH   2   5
HETATM    5  C   UNL     1      -9.312   3.148  65.073  1.00  0.00    -0.148 C  
HETATM    6  N   UNL     1      -8.021   3.389  64.427  1.00  0.00    -0.085 NA 
HETATM    7  H2  UNL     1      -7.408   3.953  65.016  1.00  0.00     0.000 HD 
HETATM    8  H1  UNL     1      -7.573   2.516  64.149  1.00  0.00     0.000 HD 
ENDBRANCH   2   5
TORSDOF 1
ENDMDL
MODEL       73
REMARK 921   NORMALIZED FREE ENERGY PREDICTED BY IDOCK:   -1.48 KCAL/MOL
REMARK 922        TOTAL FREE ENERGY PREDICTED BY IDOCK:   -1.57 KCAL/MOL
REMARK 923 INTER-LIGAND FREE ENERGY PREDICTED BY IDOCK:   -1.57 KCAL/MOL
REMARK 924 INTRA-LIGAND FREE ENERGY PREDICTED BY IDOCK:    0.00 KCAL/MOL
REMARK 927      BINDING AFFINITY PREDICTED BY RF-SCORE:    0.00 PKD
ROOT
HETATM    1  N   UNL     1     -11.171   5.950  66.459  1.00  0.00    -0.741 NA 
HETATM    2  C   UNL     1     -10.429   7.079  67.022  1.00  0.00    -0.316 C  
HETATM    3  H2  UNL     1     -12.143   5.951  66.769  1.00  0.00     0.000 HD 
HETATM    4  H1  UNL     1     -11.104   5.929  65.441  1.00  0.00     0.000 HD 
ENDROOT
BRANCH   2   5
HETATM    5  C   UNL     1     -10.531   7.112  68.555  1.00  0.00    -0.204 C  
HETATM    6  N   UNL     1     -10.824   5.787  69.102  1.00  0.00    -0.309 NA 
HETATM    7  H2  UNL     1     -10.144   5.095  68.788  1.00  0.00     0.000 HD 
HETATM    8  H1  UNL     1     -10.892   5.809  70.120  1.00  0.00     0.000 HD 
ENDBRANCH   2   5
TORSDOF 1
ENDMDL
MODEL       74
REMARK 921   NORMALIZED FREE ENERGY PREDICTED BY IDOCK:   -1.47 KCAL/MOL
REMARK 922        TOTAL FREE ENERGY PREDICTED BY IDOCK:   -1.55 KCAL/MOL
REMARK 923 INTER-LIGAND FREE ENERGY PREDICTED BY IDOCK:   -1.55 KCAL/MOL
REMARK 924 INTRA-LIGAND FREE ENERGY PREDICTED BY IDOCK:    0.00 KCAL/MOL
REMARK 927      BINDING AFFINITY PREDICTED BY RF-SCORE:    0.00 PKD
ROOT
HETATM    1  N   UNL     1     -10.199   8.249  68.535  1.00  0.00    -0.205 NA 
HETATM    2  C   UNL     1     -10.480   8.834  67.224  1.00  0.00    -0.283 C  
HETATM    3  H2  UNL     1     -10.986   8.367  69.173  1.00  0.00     0.000 HD 
HETATM    4  H1  UNL     1      -9.925   7.269  68.457  1.00  0.00     0.000 HD 
ENDROOT
BRANCH   2   5
HETATM    5  C   UNL     1     -10.892  10.310  67.343  1.00  0.00    -0.277 C  
HETATM    6  N   UNL     1     -11.913  10.501  68.373  1.00  0.00    -0.788 NA 
HETATM    7  H2  UNL     1     -11.612  10.124  69.272  1.00  0.00     0.000 HD 
HETATM    8  H1  UNL     1     -12.187  11.481  68.452  1.00  0.00     0.000 HD 
ENDBRANCH   2   5
TORSDOF 1
ENDMDL
MODEL       75
REMARK 921   NORMALIZED FREE ENERGY PREDICTED BY IDOCK:   -1.47 KCAL/MOL
REMARK 922        TOTAL FREE ENERGY PREDICTED BY IDOCK:   -1.55 KCAL/MOL
REMARK 923 INTER-LIGAND FREE ENERGY PREDICTED BY IDOCK:   -1.55 KCAL/MOL
REMARK 924 INTRA-LIGAND FREE ENERGY PREDICTED BY IDOCK:    0.00 KCAL/MOL
REMARK 927      BINDING AFFINITY PREDICTED BY RF-SCORE:    0.00 PKD
ROOT
HETATM    1  N   UNL     1      -9.235   7.743  73.993  1.00  0.00    -0.400 NA 
HETATM    2  C   UNL     1     -10.288   6.728  73.940  1.00  0.00    -0.368 C  
HETATM    3  H2  UNL     1      -9.586   8.659  73.715  1.00  0.00     0.000 HD 
HETATM    4  H1  UNL     1      -8.794   7.776  74.913  1.00  0.00     0.000 HD 
ENDROOT
BRANCH   2   5
HETATM    5  C   UNL     1     -10.952   6.678  72.554  1.00  0.00    -0.247 C  
HETATM    6  N   UNL     1     -12.275   6.057  72.616  1.00  0.00    -0.536 NA 
HETATM    7  H2  UNL     1     -12.874   6.520  73.301  1.00  0.00     0.000 HD 
HETATM    8  H1  UNL     1     -12.717   6.024  71.696  1.00  0.00     0.000 HD 
ENDBRANCH   2   5
TORSDOF 1
ENDMDL
MODEL       76
REMARK 921   NORMALIZED FREE ENERGY PREDICTED BY IDOCK:   -1.45 KCAL/MOL
REMARK 922        TOTAL FREE ENERGY PREDICTED BY IDOCK:   -1.54 KCAL/MOL
REMARK 923 INTER-LIGAND FREE ENERGY PREDICTED BY IDOCK:   -1.54 KCAL/MOL
REMARK 924 INTRA-LIGAND FREE ENERGY PREDICTED BY IDOCK:    0.00 KCAL/MOL
REMARK 927      BINDING AFFINITY PREDICTED BY RF-SCORE:    0.00 PKD
ROOT
HETATM    1  N   UNL     1     -12.343  15.967  70.351  1.00  0.00    -0.419 NA 
HETATM    2  C   UNL     1     -11.712  15.596  71.617  1.00  0.00    -0.446 C  
HETATM    3  H2  UNL     1     -13.283  16.336  70.496  1.00  0.00     0.000 HD 
HETATM    4  H1  UNL     1     -11.764  16.618  69.820  1.00  0.00     0.000 HD 
ENDROOT
BRANCH   2   5
HETATM    5  C   UNL     1     -12.586  14.616  72.416  1.00  0.00    -0.328 C  
HETATM    6  N   UNL     1     -12.829  13.382  71.668  1.00  0.00    -0.344 NA 
HETATM    7  H2  UNL     1     -11.956  12.947  71.370  1.00  0.00     0.000 HD 
HETATM    8  H1  UNL     1     -13.409  12.731  72.198  1.00  0.00     0.000 HD 
ENDBRANCH   2   5
TORSDOF 1
ENDMDL
MODEL       77
REMARK 921   NORMALIZED FREE ENERGY PREDICTED BY IDOCK:   -1.44 KCAL/MOL
REMARK 922        TOTAL FREE ENERGY PREDICTED BY IDOCK:   -1.52 KCAL/MOL
REMARK 923 INTER-LIGAND FREE ENERGY PREDICTED BY IDOCK:   -1.52 KCAL/MOL
REMARK 924 INTRA-LIGAND FREE ENERGY PREDICTED BY IDOCK:    0.00 KCAL/MOL
REMARK 927      BINDING AFFINITY PREDICTED BY RF-SCORE:    0.00 PKD
ROOT
HETATM    1  N   UNL     1     -10.628  15.614  67.753  1.00  0.00    -0.275 NA 
HETATM    2  C   UNL     1     -10.523  17.067  67.623  1.00  0.00    -0.343 C  
HETATM    3  H2  UNL     1      -9.794  15.146  67.399  1.00  0.00     0.000 HD 
HETATM    4  H1  UNL     1     -10.832  15.338  68.714  1.00  0.00     0.000 HD 
ENDROOT
BRANCH   2   5
HETATM    5  C   UNL     1     -10.216  17.482  66.175  1.00  0.00    -0.335 C  
HETATM    6  N   UNL     1     -10.684  16.479  65.218  1.00  0.00    -0.572 NA 
HETATM    7  H2  UNL     1     -11.676  16.276  65.346  1.00  0.00     0.000 HD 
HETATM    8  H1  UNL     1     -10.480  16.755  64.257  1.00  0.00     0.000 HD 
ENDBRANCH   2   5
TORSDOF 1
ENDMDL
MODEL       78
REMARK 921   NORMALIZED FREE ENERGY PREDICTED BY IDOCK:   -1.44 KCAL/MOL
REMARK 922        TOTAL FREE ENERGY PREDICTED BY IDOCK:   -1.52 KCAL/MOL
REMARK 923 INTER-LIGAND FREE ENERGY PREDICTED BY IDOCK:   -1.52 KCAL/MOL
REMARK 924 INTRA-LIGAND FREE ENERGY PREDICTED BY IDOCK:    0.00 KCAL/MOL
REMARK 927      BINDING AFFINITY PREDICTED BY RF-SCORE:    0.00 PKD
ROOT
HETATM    1  N   UNL     1      -6.237  19.446  65.039  1.00  0.00    -0.266 NA 
HETATM    2  C   UNL     1      -7.002  20.225  66.013  1.00  0.00    -0.264 C  
HETATM    3  H2  UNL     1      -6.742  19.349  64.158  1.00  0.00     0.000 HD 
HETATM    4  H1  UNL     1      -5.306  19.838  64.895  1.00  0.00     0.000 HD 
ENDROOT
BRANCH   2   5
HETATM    5  C   UNL     1      -8.404  19.634  66.230  1.00  0.00    -0.352 C  
HETATM    6  N   UNL     1      -9.414  20.684  66.366  1.00  0.00    -0.638 NA 
HETATM    7  H2  UNL     1      -9.398  21.323  65.571  1.00  0.00     0.000 HD 
HETATM    8  H1  UNL     1     -10.345  20.291  66.510  1.00  0.00     0.000 HD 
ENDBRANCH   2   5
TORSDOF 1
ENDMDL
MODEL       79
REMARK 921   NORMALIZED FREE ENERGY PREDICTED BY IDOCK:   -1.43 KCAL/MOL
REMARK 922        TOTAL FREE ENERGY PREDICTED BY IDOCK:   -1.52 KCAL/MOL
REMARK 923 INTER-LIGAND FREE ENERGY PREDICTED BY IDOCK:   -1.52 KCAL/MOL
REMARK 924 INTRA-LIGAND FREE ENERGY PREDICTED BY IDOCK:    0.00 KCAL/MOL
REMARK 927      BINDING AFFINITY PREDICTED BY RF-SCORE:    0.00 PKD
ROOT
HETATM    1  N   UNL     1      -8.960  10.091  65.123  1.00  0.00    -0.177 NA 
HETATM    2  C   UNL     1      -8.953  10.565  63.739  1.00  0.00    -0.215 C  
HETATM    3  H2  UNL     1      -9.807   9.561  65.332  1.00  0.00     0.000 HD 
HETATM    4  H1  UNL     1      -8.121   9.553  65.339  1.00  0.00     0.000 HD 
ENDROOT
BRANCH   2   5
HETATM    5  C   UNL     1     -10.218  11.375  63.414  1.00  0.00    -0.411 C  
HETATM    6  N   UNL     1     -10.001  12.809  63.606  1.00  0.00    -0.715 NA 
HETATM    7  H2  UNL     1      -9.198  13.140  63.071  1.00  0.00     0.000 HD 
HETATM    8  H1  UNL     1     -10.840  13.347  63.391  1.00  0.00     0.000 HD 
ENDBRANCH   2   5
TORSDOF 1
ENDMDL
MODEL       80
REMARK 921   NORMALIZED FREE ENERGY PREDICTED BY IDOCK:   -1.41 KCAL/MOL
REMARK 922        TOTAL FREE ENERGY PREDICTED BY IDOCK:   -1.50 KCAL/MOL
REMARK 923 INTER-LIGAND FREE ENERGY PREDICTED BY IDOCK:   -1.50 KCAL/MOL
REMARK 924 INTRA-LIGAND FREE ENERGY PREDICTED BY IDOCK:    0.00 KCAL/MOL
REMARK 927      BINDING AFFINITY PREDICTED BY RF-SCORE:    0.00 PKD
ROOT
HETATM    1  N   UNL     1     -10.446  17.967  68.964  1.00  0.00    -0.414 NA 
HETATM    2  C   UNL     1     -10.032  19.345  68.697  1.00  0.00    -0.444 C  
HETATM    3  H2  UNL     1      -9.695  17.428  69.393  1.00  0.00     0.000 HD 
HETATM    4  H1  UNL     1     -11.297  17.935  69.527  1.00  0.00     0.000 HD 
ENDROOT
BRANCH   2   5
HETATM    5  C   UNL     1      -8.750  19.393  67.850  1.00  0.00    -0.317 C  
HETATM    6  N   UNL     1      -7.598  18.881  68.592  1.00  0.00    -0.321 NA 
HETATM    7  H2  UNL     1      -7.772  17.942  68.951  1.00  0.00     0.000 HD 
HETATM    8  H1  UNL     1      -6.747  18.913  68.030  1.00  0.00     0.000 HD 
ENDBRANCH   2   5
TORSDOF 1
ENDMDL
MODEL       81
REMARK 921   NORMALIZED FREE ENERGY PREDICTED BY IDOCK:   -1.41 KCAL/MOL
REMARK 922        TOTAL FREE ENERGY PREDICTED BY IDOCK:   -1.49 KCAL/MOL
REMARK 923 INTER-LIGAND FREE ENERGY PREDICTED BY IDOCK:   -1.49 KCAL/MOL
REMARK 924 INTRA-LIGAND FREE ENERGY PREDICTED BY IDOCK:    0.00 KCAL/MOL
REMARK 927      BINDING AFFINITY PREDICTED BY RF-SCORE:    0.00 PKD
ROOT
HETATM    1  N   UNL     1      -5.878  20.373  71.001  1.00  0.00    -0.531 NA 
HETATM    2  C   UNL     1      -6.028  20.464  69.549  1.00  0.00    -0.341 C  
HETATM    3  H2  UNL     1      -5.685  19.416  71.298  1.00  0.00     0.000 HD 
HETATM    4  H1  UNL     1      -5.169  21.021  71.346  1.00  0.00     0.000 HD 
ENDROOT
BRANCH   2   5
HETATM    5  C   UNL     1      -7.096  19.487  69.030  1.00  0.00    -0.364 C  
HETATM    6  N   UNL     1      -6.656  18.097  69.154  1.00  0.00    -0.256 NA 
HETATM    7  H2  UNL     1      -6.381  17.875  70.111  1.00  0.00     0.000 HD 
HETATM    8  H1  UNL     1      -7.365  17.448  68.810  1.00  0.00     0.000 HD 
ENDBRANCH   2   5
TORSDOF 1
ENDMDL
MODEL       82
REMARK 921   NORMALIZED FREE ENERGY PREDICTED BY IDOCK:   -1.41 KCAL/MOL
REMARK 922        TOTAL FREE ENERGY PREDICTED BY IDOCK:   -1.49 KCAL/MOL
REMARK 923 INTER-LIGAND FREE ENERGY PREDICTED BY IDOCK:   -1.49 KCAL/MOL
REMARK 924 INTRA-LIGAND FREE ENERGY PREDICTED BY IDOCK:    0.00 KCAL/MOL
REMARK 927      BINDING AFFINITY PREDICTED BY RF-SCORE:    0.00 PKD
ROOT
HETATM    1  N   UNL     1     -12.293  10.509  69.127  1.00  0.00    -0.749 NA 
HETATM    2  C   UNL     1     -10.900  10.171  68.834  1.00  0.00    -0.223 C  
HETATM    3  H2  UNL     1     -12.427  10.715  70.116  1.00  0.00     0.000 HD 
HETATM    4  H1  UNL     1     -12.624  11.273  68.537  1.00  0.00     0.000 HD 
ENDROOT
BRANCH   2   5
HETATM    5  C   UNL     1     -10.402   9.019  69.722  1.00  0.00    -0.211 C  
HETATM    6  N   UNL     1     -10.535   9.341  71.143  1.00  0.00    -0.309 NA 
HETATM    7  H2  UNL     1     -11.492   9.607  71.378  1.00  0.00     0.000 HD 
HETATM    8  H1  UNL     1     -10.204   8.577  71.733  1.00  0.00     0.000 HD 
ENDBRANCH   2   5
TORSDOF 1
ENDMDL
MODEL       83
REMARK 921   NORMALIZED FREE ENERGY PREDICTED BY IDOCK:   -1.40 KCAL/MOL
REMARK 922        TOTAL FREE ENERGY PREDICTED BY IDOCK:   -1.48 KCAL/MOL
REMARK 923 INTER-LIGAND FREE ENERGY PREDICTED BY IDOCK:   -1.48 KCAL/MOL
REMARK 924 INTRA-LIGAND FREE ENERGY PREDICTED BY IDOCK:    0.00 KCAL/MOL
REMARK 927      BINDING AFFINITY PREDICTED BY RF-SCORE:    0.00 PKD
ROOT
HETATM    1  N   UNL     1      -9.559  16.658  65.813  1.00  0.00    -0.528 NA 
HETATM    2  C   UNL     1      -8.764  15.793  66.686  1.00  0.00    -0.288 C  
HETATM    3  H2  UNL     1     -10.550  16.616  66.048  1.00  0.00     0.000 HD 
HETATM    4  H1  UNL     1      -9.213  17.618  65.822  1.00  0.00     0.000 HD 
ENDROOT
BRANCH   2   5
HETATM    5  C   UNL     1      -9.286  14.347  66.672  1.00  0.00    -0.261 C  
HETATM    6  N   UNL     1      -8.201  13.384  66.865  1.00  0.00    -0.406 NA 
HETATM    7  H2  UNL     1      -7.673  13.582  67.715  1.00  0.00     0.000 HD 
HETATM    8  H1  UNL     1      -8.547  12.424  66.855  1.00  0.00     0.000 HD 
ENDBRANCH   2   5
TORSDOF 1
ENDMDL
MODEL       84
REMARK 921   NORMALIZED FREE ENERGY PREDICTED BY IDOCK:   -1.38 KCAL/MOL
REMARK 922        TOTAL FREE ENERGY PREDICTED BY IDOCK:   -1.46 KCAL/MOL
REMARK 923 INTER-LIGAND FREE ENERGY PREDICTED BY IDOCK:   -1.46 KCAL/MOL
REMARK 924 INTRA-LIGAND FREE ENERGY PREDICTED BY IDOCK:    0.00 KCAL/MOL
REMARK 927      BINDING AFFINITY PREDICTED BY RF-SCORE:    0.00 PKD
ROOT
HETATM    1  N   UNL     1     -10.458  14.192  69.334  1.00  0.00    -0.435 NA 
HETATM    2  C   UNL     1     -10.653  14.393  67.898  1.00  0.00    -0.240 C  
HETATM    3  H2  UNL     1      -9.516  14.453  69.623  1.00  0.00     0.000 HD 
HETATM    4  H1  UNL     1     -11.166  14.684  69.880  1.00  0.00     0.000 HD 
ENDROOT
BRANCH   2   5
HETATM    5  C   UNL     1      -9.587  13.652  67.075  1.00  0.00    -0.251 C  
HETATM    6  N   UNL     1      -9.537  14.140  65.697  1.00  0.00    -0.533 NA 
HETATM    7  H2  UNL     1      -9.400  15.150  65.663  1.00  0.00     0.000 HD 
HETATM    8  H1  UNL     1      -8.830  13.648  65.151  1.00  0.00     0.000 HD 
ENDBRANCH   2   5
TORSDOF 1
ENDMDL
MODEL       85
REMARK 921   NORMALIZED FREE ENERGY PREDICTED BY IDOCK:   -1.37 KCAL/MOL
REMARK 922        TOTAL FREE ENERGY PREDICTED BY IDOCK:   -1.45 KCAL/MOL
REMARK 923 INTER-LIGAND FREE ENERGY PREDICTED BY IDOCK:   -1.45 KCAL/MOL
REMARK 924 INTRA-LIGAND FREE ENERGY PREDICTED BY IDOCK:    0.00 KCAL/MOL
REMARK 927      BINDING AFFINITY PREDICTED BY RF-SCORE:    0.00 PKD
ROOT
HETATM    1  N   UNL     1     -11.097   6.769  67.599  1.00  0.00    -0.547 NA 
HETATM    2  C   UNL     1      -9.691   6.384  67.472  1.00  0.00    -0.121 C  
HETATM    3  H2  UNL     1     -11.676   5.981  67.887  1.00  0.00     0.000 HD 
HETATM    4  H1  UNL     1     -11.211   7.566  68.226  1.00  0.00     0.000 HD 
ENDROOT
BRANCH   2   5
HETATM    5  C   UNL     1      -9.519   5.184  66.527  1.00  0.00    -0.148 C  
HETATM    6  N   UNL     1     -10.712   4.972  65.708  1.00  0.00    -0.631 NA 
HETATM    7  H2  UNL     1     -10.970   5.816  65.196  1.00  0.00     0.000 HD 
HETATM    8  H1  UNL     1     -10.599   4.175  65.080  1.00  0.00     0.000 HD 
ENDBRANCH   2   5
TORSDOF 1
ENDMDL
MODEL       86
REMARK 921   NORMALIZED FREE ENERGY PREDICTED BY IDOCK:   -1.36 KCAL/MOL
REMARK 922        TOTAL FREE ENERGY PREDICTED BY IDOCK:   -1.44 KCAL/MOL
REMARK 923 INTER-LIGAND FREE ENERGY PREDICTED BY IDOCK:   -1.44 KCAL/MOL
REMARK 924 INTRA-LIGAND FREE ENERGY PREDICTED BY IDOCK:    0.00 KCAL/MOL
REMARK 927      BINDING AFFINITY PREDICTED BY RF-SCORE:    0.00 PKD
ROOT
HETATM    1  N   UNL     1     -11.369  11.233  69.835  1.00  0.00    -0.415 NA 
HETATM    2  C   UNL     1     -11.554  12.226  68.776  1.00  0.00    -0.330 C  
HETATM    3  H2  UNL     1     -10.423  10.852  69.828  1.00  0.00     0.000 HD 
HETATM    4  H1  UNL     1     -11.611  11.614  70.750  1.00  0.00     0.000 HD 
ENDROOT
BRANCH   2   5
HETATM    5  C   UNL     1     -11.188  11.652  67.397  1.00  0.00    -0.298 C  
HETATM    6  N   UNL     1     -11.434  10.212  67.333  1.00  0.00    -0.398 NA 
HETATM    7  H2  UNL     1     -12.395   9.985  67.588  1.00  0.00     0.000 HD 
HETATM    8  H1  UNL     1     -11.191   9.831  66.418  1.00  0.00     0.000 HD 
ENDBRANCH   2   5
TORSDOF 1
ENDMDL
MODEL       87
REMARK 921   NORMALIZED FREE ENERGY PREDICTED BY IDOCK:   -1.36 KCAL/MOL
REMARK 922        TOTAL FREE ENERGY PREDICTED BY IDOCK:   -1.44 KCAL/MOL
REMARK 923 INTER-LIGAND FREE ENERGY PREDICTED BY IDOCK:   -1.44 KCAL/MOL
REMARK 924 INTRA-LIGAND FREE ENERGY PREDICTED BY IDOCK:    0.00 KCAL/MOL
REMARK 927      BINDING AFFINITY PREDICTED BY RF-SCORE:    0.00 PKD
ROOT
HETATM    1  N   UNL     1     -10.184   7.029  66.482  1.00  0.00    -0.458 NA 
HETATM    2  C   UNL     1     -10.293   8.440  66.856  1.00  0.00    -0.307 C  
HETATM    3  H2  UNL     1      -9.213   6.718  66.476  1.00  0.00     0.000 HD 
HETATM    4  H1  UNL     1     -10.762   6.438  67.080  1.00  0.00     0.000 HD 
ENDROOT
BRANCH   2   5
HETATM    5  C   UNL     1      -9.422   9.330  65.954  1.00  0.00    -0.259 C  
HETATM    6  N   UNL     1      -8.949   8.601  64.777  1.00  0.00    -0.415 NA 
HETATM    7  H2  UNL     1      -9.723   8.187  64.257  1.00  0.00     0.000 HD 
HETATM    8  H1  UNL     1      -8.371   9.191  64.178  1.00  0.00     0.000 HD 
ENDBRANCH   2   5
TORSDOF 1
ENDMDL
MODEL       88
REMARK 921   NORMALIZED FREE ENERGY PREDICTED BY IDOCK:   -1.35 KCAL/MOL
REMARK 922        TOTAL FREE ENERGY PREDICTED BY IDOCK:   -1.43 KCAL/MOL
REMARK 923 INTER-LIGAND FREE ENERGY PREDICTED BY IDOCK:   -1.43 KCAL/MOL
REMARK 924 INTRA-LIGAND FREE ENERGY PREDICTED BY IDOCK:    0.00 KCAL/MOL
REMARK 927      BINDING AFFINITY PREDICTED BY RF-SCORE:    0.00 PKD
ROOT
HETATM    1  N   UNL     1      -5.904  18.986  64.007  1.00  0.00    -0.430 NA 
HETATM    2  C   UNL     1      -5.830  18.930  65.467  1.00  0.00    -0.202 C  
HETATM    3  H2  UNL     1      -6.871  18.995  63.682  1.00  0.00     0.000 HD 
HETATM    4  H1  UNL     1      -5.378  19.778  63.636  1.00  0.00     0.000 HD 
ENDROOT
BRANCH   2   5
HETATM    5  C   UNL     1      -6.623  17.737  66.026  1.00  0.00    -0.270 C  
HETATM    6  N   UNL     1      -8.048  17.846  65.711  1.00  0.00    -0.526 NA 
HETATM    7  H2  UNL     1      -8.202  17.960  64.709  1.00  0.00     0.000 HD 
HETATM    8  H1  UNL     1      -8.575  17.054  66.082  1.00  0.00     0.000 HD 
ENDBRANCH   2   5
TORSDOF 1
ENDMDL
MODEL       89
REMARK 921   NORMALIZED FREE ENERGY PREDICTED BY IDOCK:   -1.34 KCAL/MOL
REMARK 922        TOTAL FREE ENERGY PREDICTED BY IDOCK:   -1.41 KCAL/MOL
REMARK 923 INTER-LIGAND FREE ENERGY PREDICTED BY IDOCK:   -1.41 KCAL/MOL
REMARK 924 INTRA-LIGAND FREE ENERGY PREDICTED BY IDOCK:    0.00 KCAL/MOL
REMARK 927      BINDING AFFINITY PREDICTED BY RF-SCORE:    0.00 PKD
ROOT
HETATM    1  N   UNL     1      -7.333  17.786  68.769  1.00  0.00    -0.271 NA 
HETATM    2  C   UNL     1      -8.417  18.678  68.356  1.00  0.00    -0.338 C  
HETATM    3  H2  UNL     1      -6.420  18.174  68.533  1.00  0.00     0.000 HD 
HETATM    4  H1  UNL     1      -7.396  17.556  69.762  1.00  0.00     0.000 HD 
ENDROOT
BRANCH   2   5
HETATM    5  C   UNL     1      -8.322  19.024  66.861  1.00  0.00    -0.277 C  
HETATM    6  N   UNL     1      -8.274  17.819  66.034  1.00  0.00    -0.527 NA 
HETATM    7  H2  UNL     1      -9.064  17.203  66.224  1.00  0.00     0.000 HD 
HETATM    8  H1  UNL     1      -8.211  18.049  65.041  1.00  0.00     0.000 HD 
ENDBRANCH   2   5
TORSDOF 1
ENDMDL
MODEL       90
REMARK 921   NORMALIZED FREE ENERGY PREDICTED BY IDOCK:   -1.32 KCAL/MOL
REMARK 922        TOTAL FREE ENERGY PREDICTED BY IDOCK:   -1.40 KCAL/MOL
REMARK 923 INTER-LIGAND FREE ENERGY PREDICTED BY IDOCK:   -1.40 KCAL/MOL
REMARK 924 INTRA-LIGAND FREE ENERGY PREDICTED BY IDOCK:    0.00 KCAL/MOL
REMARK 927      BINDING AFFINITY PREDICTED BY RF-SCORE:    0.00 PKD
ROOT
HETATM    1  N   UNL     1     -11.217  13.349  66.426  1.00  0.00    -0.299 NA 
HETATM    2  C   UNL     1     -11.494  14.612  67.111  1.00  0.00    -0.368 C  
HETATM    3  H2  UNL     1     -11.892  12.629  66.682  1.00  0.00     0.000 HD 
HETATM    4  H1  UNL     1     -11.170  13.475  65.414  1.00  0.00     0.000 HD 
ENDROOT
BRANCH   2   5
HETATM    5  C   UNL     1     -11.564  14.421  68.635  1.00  0.00    -0.314 C  
HETATM    6  N   UNL     1     -10.231  14.418  69.237  1.00  0.00    -0.415 NA 
HETATM    7  H2  UNL     1      -9.707  15.258  68.989  1.00  0.00     0.000 HD 
HETATM    8  H1  UNL     1     -10.277  14.292  70.249  1.00  0.00     0.000 HD 
ENDBRANCH   2   5
TORSDOF 1
ENDMDL
MODEL       91
REMARK 921   NORMALIZED FREE ENERGY PREDICTED BY IDOCK:   -1.32 KCAL/MOL
REMARK 922        TOTAL FREE ENERGY PREDICTED BY IDOCK:   -1.39 KCAL/MOL
REMARK 923 INTER-LIGAND FREE ENERGY PREDICTED BY IDOCK:   -1.39 KCAL/MOL
REMARK 924 INTRA-LIGAND FREE ENERGY PREDICTED BY IDOCK:    0.00 KCAL/MOL
REMARK 927      BINDING AFFINITY PREDICTED BY RF-SCORE:    0.00 PKD
ROOT
HETATM    1  N   UNL     1      -6.187  17.838  65.840  1.00  0.00    -0.221 NA 
HETATM    2  C   UNL     1      -6.497  19.224  65.489  1.00  0.00    -0.264 C  
HETATM    3  H2  UNL     1      -7.021  17.334  66.145  1.00  0.00     0.000 HD 
HETATM    4  H1  UNL     1      -5.718  17.353  65.074  1.00  0.00     0.000 HD 
ENDROOT
BRANCH   2   5
HETATM    5  C   UNL     1      -7.205  19.953  66.642  1.00  0.00    -0.241 C  
HETATM    6  N   UNL     1      -6.712  21.322  66.794  1.00  0.00    -0.668 NA 
HETATM    7  H2  UNL     1      -6.785  21.844  65.922  1.00  0.00     0.000 HD 
HETATM    8  H1  UNL     1      -7.181  21.806  67.560  1.00  0.00     0.000 HD 
ENDBRANCH   2   5
TORSDOF 1
ENDMDL
MODEL       92
REMARK 921   NORMALIZED FREE ENERGY PREDICTED BY IDOCK:   -1.30 KCAL/MOL
REMARK 922        TOTAL FREE ENERGY PREDICTED BY IDOCK:   -1.38 KCAL/MOL
REMARK 923 INTER-LIGAND FREE ENERGY PREDICTED BY IDOCK:   -1.38 KCAL/MOL
REMARK 924 INTRA-LIGAND FREE ENERGY PREDICTED BY IDOCK:    0.00 KCAL/MOL
REMARK 927      BINDING AFFINITY PREDICTED BY RF-SCORE:    0.00 PKD
ROOT
HETATM    1  N   UNL     1     -11.806  12.560  69.247  1.00  0.00    -0.313 NA 
HETATM    2  C   UNL     1     -12.032  14.005  69.217  1.00  0.00    -0.353 C  
HETATM    3  H2  UNL     1     -12.557  12.075  69.737  1.00  0.00     0.000 HD 
HETATM    4  H1  UNL     1     -11.668  12.184  68.309  1.00  0.00     0.000 HD 
ENDROOT
BRANCH   2   5
HETATM    5  C   UNL     1     -12.240  14.572  70.631  1.00  0.00    -0.331 C  
HETATM    6  N   UNL     1     -11.567  15.861  70.796  1.00  0.00    -0.381 NA 
HETATM    7  H2  UNL     1     -11.856  16.528  70.081  1.00  0.00     0.000 HD 
HETATM    8  H1  UNL     1     -11.705  16.237  71.735  1.00  0.00     0.000 HD 
ENDBRANCH   2   5
TORSDOF 1
ENDMDL
MODEL       93
REMARK 921   NORMALIZED FREE ENERGY PREDICTED BY IDOCK:   -1.28 KCAL/MOL
REMARK 922        TOTAL FREE ENERGY PREDICTED BY IDOCK:   -1.36 KCAL/MOL
REMARK 923 INTER-LIGAND FREE ENERGY PREDICTED BY IDOCK:   -1.36 KCAL/MOL
REMARK 924 INTRA-LIGAND FREE ENERGY PREDICTED BY IDOCK:    0.00 KCAL/MOL
REMARK 927      BINDING AFFINITY PREDICTED BY RF-SCORE:    0.00 PKD
ROOT
HETATM    1  N   UNL     1      -8.435   5.846  68.008  1.00  0.00    -0.111 NA 
HETATM    2  C   UNL     1      -9.485   6.767  68.443  1.00  0.00    -0.126 C  
HETATM    3  H2  UNL     1      -8.568   5.559  67.038  1.00  0.00     0.000 HD 
HETATM    4  H1  UNL     1      -7.506   6.240  68.157  1.00  0.00     0.000 HD 
ENDROOT
BRANCH   2   5
HETATM    5  C   UNL     1     -10.884   6.172  68.219  1.00  0.00    -0.306 C  
HETATM    6  N   UNL     1     -11.389   6.478  66.880  1.00  0.00    -0.817 NA 
HETATM    7  H2  UNL     1     -10.735   6.177  66.157  1.00  0.00     0.000 HD 
HETATM    8  H1  UNL     1     -12.318   6.083  66.731  1.00  0.00     0.000 HD 
ENDBRANCH   2   5
TORSDOF 1
ENDMDL
MODEL       94
REMARK 921   NORMALIZED FREE ENERGY PREDICTED BY IDOCK:   -1.28 KCAL/MOL
REMARK 922        TOTAL FREE ENERGY PREDICTED BY IDOCK:   -1.35 KCAL/MOL
REMARK 923 INTER-LIGAND FREE ENERGY PREDICTED BY IDOCK:   -1.35 KCAL/MOL
REMARK 924 INTRA-LIGAND FREE ENERGY PREDICTED BY IDOCK:    0.00 KCAL/MOL
REMARK 927      BINDING AFFINITY PREDICTED BY RF-SCORE:    0.00 PKD
ROOT
HETATM    1  N   UNL     1      -9.382  14.226  65.999  1.00  0.00    -0.521 NA 
HETATM    2  C   UNL     1      -8.581  14.860  67.047  1.00  0.00    -0.238 C  
HETATM    3  H2  UNL     1     -10.371  14.207  66.245  1.00  0.00     0.000 HD 
HETATM    4  H1  UNL     1      -9.230  14.670  65.093  1.00  0.00     0.000 HD 
ENDROOT
BRANCH   2   5
HETATM    5  C   UNL     1      -8.810  14.191  68.412  1.00  0.00    -0.187 C  
HETATM    6  N   UNL     1      -8.609  15.135  69.512  1.00  0.00    -0.407 NA 
HETATM    7  H2  UNL     1      -9.190  15.966  69.402  1.00  0.00     0.000 HD 
HETATM    8  H1  UNL     1      -8.760  14.691  70.418  1.00  0.00     0.000 HD 
ENDBRANCH   2   5
TORSDOF 1
ENDMDL
MODEL       95
REMARK 921   NORMALIZED FREE ENERGY PREDICTED BY IDOCK:   -1.26 KCAL/MOL
REMARK 922        TOTAL FREE ENERGY PREDICTED BY IDOCK:   -1.33 KCAL/MOL
REMARK 923 INTER-LIGAND FREE ENERGY PREDICTED BY IDOCK:   -1.33 KCAL/MOL
REMARK 924 INTRA-LIGAND FREE ENERGY PREDICTED BY IDOCK:    0.00 KCAL/MOL
REMARK 927      BINDING AFFINITY PREDICTED BY RF-SCORE:    0.00 PKD
ROOT
HETATM    1  N   UNL     1     -10.820   7.911  69.486  1.00  0.00    -0.382 NA 
HETATM    2  C   UNL     1     -11.611   8.354  70.634  1.00  0.00    -0.191 C  
HETATM    3  H2  UNL     1      -9.834   7.811  69.728  1.00  0.00     0.000 HD 
HETATM    4  H1  UNL     1     -11.195   7.052  69.083  1.00  0.00     0.000 HD 
ENDROOT
BRANCH   2   5
HETATM    5  C   UNL     1     -11.046   9.649  71.241  1.00  0.00    -0.355 C  
HETATM    6  N   UNL     1     -10.240  10.389  70.269  1.00  0.00    -0.400 NA 
HETATM    7  H2  UNL     1     -10.763  10.575  69.414  1.00  0.00     0.000 HD 
HETATM    8  H1  UNL     1      -9.865  11.248  70.672  1.00  0.00     0.000 HD 
ENDBRANCH   2   5
TORSDOF 1
ENDMDL
MODEL       96
REMARK 921   NORMALIZED FREE ENERGY PREDICTED BY IDOCK:   -1.25 KCAL/MOL
REMARK 922        TOTAL FREE ENERGY PREDICTED BY IDOCK:   -1.33 KCAL/MOL
REMARK 923 INTER-LIGAND FREE ENERGY PREDICTED BY IDOCK:   -1.33 KCAL/MOL
REMARK 924 INTRA-LIGAND FREE ENERGY PREDICTED BY IDOCK:    0.00 KCAL/MOL
REMARK 927      BINDING AFFINITY PREDICTED BY RF-SCORE:    0.00 PKD
ROOT
HETATM    1  N   UNL     1      -7.546  14.986  66.822  1.00  0.00    -0.275 NA 
HETATM    2  C   UNL     1      -8.544  13.969  67.153  1.00  0.00    -0.205 C  
HETATM    3  H2  UNL     1      -7.853  15.916  67.104  1.00  0.00     0.000 HD 
HETATM    4  H1  UNL     1      -6.634  14.757  67.218  1.00  0.00     0.000 HD 
ENDROOT
BRANCH   2   5
HETATM    5  C   UNL     1      -9.918  14.313  66.557  1.00  0.00    -0.281 C  
HETATM    6  N   UNL     1      -9.887  14.301  65.094  1.00  0.00    -0.565 NA 
HETATM    7  H2  UNL     1      -9.536  13.413  64.735  1.00  0.00     0.000 HD 
HETATM    8  H1  UNL     1     -10.799  14.530  64.698  1.00  0.00     0.000 HD 
ENDBRANCH   2   5
TORSDOF 1
ENDMDL
MODEL       97
REMARK 921   NORMALIZED FREE ENERGY PREDICTED BY IDOCK:   -1.25 KCAL/MOL
REMARK 922        TOTAL FREE ENERGY PREDICTED BY IDOCK:   -1.32 KCAL/MOL
REMARK 923 INTER-LIGAND FREE ENERGY PREDICTED BY IDOCK:   -1.32 KCAL/MOL
REMARK 924 INTRA-LIGAND FREE ENERGY PREDICTED BY IDOCK:    0.00 KCAL/MOL
REMARK 927      BINDING AFFINITY PREDICTED BY RF-SCORE:    0.00 PKD
ROOT
HETATM    1  N   UNL     1      -6.343  15.569  67.165  1.00  0.00    -0.293 NA 
HETATM    2  C   UNL     1      -7.095  16.681  66.583  1.00  0.00    -0.222 C  
HETATM    3  H2  UNL     1      -6.515  14.698  66.663  1.00  0.00     0.000 HD 
HETATM    4  H1  UNL     1      -5.346  15.779  67.218  1.00  0.00     0.000 HD 
ENDROOT
BRANCH   2   5
HETATM    5  C   UNL     1      -8.597  16.364  66.503  1.00  0.00    -0.294 C  
HETATM    6  N   UNL     1      -9.367  17.525  66.057  1.00  0.00    -0.510 NA 
HETATM    7  H2  UNL     1      -9.015  17.890  65.172  1.00  0.00     0.000 HD 
HETATM    8  H1  UNL     1     -10.364  17.315  66.005  1.00  0.00     0.000 HD 
ENDBRANCH   2   5
TORSDOF 1
ENDMDL
MODEL       98
REMARK 921   NORMALIZED FREE ENERGY PREDICTED BY IDOCK:   -1.24 KCAL/MOL
REMARK 922        TOTAL FREE ENERGY PREDICTED BY IDOCK:   -1.31 KCAL/MOL
REMARK 923 INTER-LIGAND FREE ENERGY PREDICTED BY IDOCK:   -1.31 KCAL/MOL
REMARK 924 INTRA-LIGAND FREE ENERGY PREDICTED BY IDOCK:    0.00 KCAL/MOL
REMARK 927      BINDING AFFINITY PREDICTED BY RF-SCORE:    0.00 PKD
ROOT
HETATM    1  N   UNL     1     -12.079   7.359  72.680  1.00  0.00    -0.541 NA 
HETATM    2  C   UNL     1     -10.894   6.631  72.226  1.00  0.00    -0.229 C  
HETATM    3  H2  UNL     1     -11.914   7.819  73.575  1.00  0.00     0.000 HD 
HETATM    4  H1  UNL     1     -12.404   8.021  71.974  1.00  0.00     0.000 HD 
ENDROOT
BRANCH   2   5
HETATM    5  C   UNL     1     -10.404   5.634  73.289  1.00  0.00    -0.211 C  
HETATM    6  N   UNL     1     -11.511   4.853  73.841  1.00  0.00    -0.330 NA 
HETATM    7  H2  UNL     1     -12.041   4.384  73.107  1.00  0.00     0.000 HD 
HETATM    8  H1  UNL     1     -11.186   4.191  74.547  1.00  0.00     0.000 HD 
ENDBRANCH   2   5
TORSDOF 1
ENDMDL
MODEL       99
REMARK 921   NORMALIZED FREE ENERGY PREDICTED BY IDOCK:   -1.24 KCAL/MOL
REMARK 922        TOTAL FREE ENERGY PREDICTED BY IDOCK:   -1.31 KCAL/MOL
REMARK 923 INTER-LIGAND FREE ENERGY PREDICTED BY IDOCK:   -1.31 KCAL/MOL
REMARK 924 INTRA-LIGAND FREE ENERGY PREDICTED BY IDOCK:    0.00 KCAL/MOL
REMARK 927      BINDING AFFINITY PREDICTED BY RF-SCORE:    0.00 PKD
ROOT
HETATM    1  N   UNL     1     -10.287   8.803  69.778  1.00  0.00    -0.206 NA 
HETATM    2  C   UNL     1     -10.377  10.261  69.697  1.00  0.00    -0.248 C  
HETATM    3  H2  UNL     1     -10.981   8.352  69.181  1.00  0.00     0.000 HD 
HETATM    4  H1  UNL     1      -9.344   8.474  69.568  1.00  0.00     0.000 HD 
ENDROOT
BRANCH   2   5
HETATM    5  C   UNL     1     -11.798  10.756  70.012  1.00  0.00    -0.344 C  
HETATM    6  N   UNL     1     -11.793  12.148  70.461  1.00  0.00    -0.512 NA 
HETATM    7  H2  UNL     1     -11.327  12.757  69.787  1.00  0.00     0.000 HD 
HETATM    8  H1  UNL     1     -12.736  12.477  70.670  1.00  0.00     0.000 HD 
ENDBRANCH   2   5
TORSDOF 1
ENDMDL
MODEL      100
REMARK 921   NORMALIZED FREE ENERGY PREDICTED BY IDOCK:   -1.20 KCAL/MOL
REMARK 922        TOTAL FREE ENERGY PREDICTED BY IDOCK:   -1.27 KCAL/MOL
REMARK 923 INTER-LIGAND FREE ENERGY PREDICTED BY IDOCK:   -1.27 KCAL/MOL
REMARK 924 INTRA-LIGAND FREE ENERGY PREDICTED BY IDOCK:    0.00 KCAL/MOL
REMARK 927      BINDING AFFINITY PREDICTED BY RF-SCORE:    0.00 PKD
ROOT
HETATM    1  N   UNL     1      -7.358  18.748  66.189  1.00  0.00    -0.256 NA 
HETATM    2  C   UNL     1      -8.619  19.285  66.703  1.00  0.00    -0.322 C  
HETATM    3  H2  UNL     1      -7.251  17.761  66.419  1.00  0.00     0.000 HD 
HETATM    4  H1  UNL     1      -7.265  18.910  65.186  1.00  0.00     0.000 HD 
ENDROOT
BRANCH   2   5
HETATM    5  C   UNL     1      -8.759  19.041  68.214  1.00  0.00    -0.331 C  
HETATM    6  N   UNL     1      -7.562  19.465  68.940  1.00  0.00    -0.364 NA 
HETATM    7  H2  UNL     1      -7.328  20.438  68.739  1.00  0.00     0.000 HD 
HETATM    8  H1  UNL     1      -7.655  19.304  69.943  1.00  0.00     0.000 HD 
ENDBRANCH   2   5
TORSDOF 1
ENDMDL
MODEL      101
REMARK 921   NORMALIZED FREE ENERGY PREDICTED BY IDOCK:   -1.20 KCAL/MOL
REMARK 922        TOTAL FREE ENERGY PREDICTED BY IDOCK:   -1.27 KCAL/MOL
REMARK 923 INTER-LIGAND FREE ENERGY PREDICTED BY IDOCK:   -1.27 KCAL/MOL
REMARK 924 INTRA-LIGAND FREE ENERGY PREDICTED BY IDOCK:    0.00 KCAL/MOL
REMARK 927      BINDING AFFINITY PREDICTED BY RF-SCORE:    0.00 PKD
ROOT
HETATM    1  N   UNL     1     -10.973   7.291  73.542  1.00  0.00    -0.555 NA 
HETATM    2  C   UNL     1     -11.677   7.493  72.276  1.00  0.00    -0.304 C  
HETATM    3  H2  UNL     1     -10.173   7.917  73.629  1.00  0.00     0.000 HD 
HETATM    4  H1  UNL     1     -11.604   7.379  74.340  1.00  0.00     0.000 HD 
ENDROOT
BRANCH   2   5
HETATM    5  C   UNL     1     -10.726   7.361  71.076  1.00  0.00    -0.231 C  
HETATM    6  N   UNL     1      -9.670   8.373  71.114  1.00  0.00    -0.175 NA 
HETATM    7  H2  UNL     1      -9.161   8.349  71.997  1.00  0.00     0.000 HD 
HETATM    8  H1  UNL     1      -9.039   8.285  70.317  1.00  0.00     0.000 HD 
ENDBRANCH   2   5
TORSDOF 1
ENDMDL
MODEL      102
REMARK 921   NORMALIZED FREE ENERGY PREDICTED BY IDOCK:   -1.19 KCAL/MOL
REMARK 922        TOTAL FREE ENERGY PREDICTED BY IDOCK:   -1.26 KCAL/MOL
REMARK 923 INTER-LIGAND FREE ENERGY PREDICTED BY IDOCK:   -1.26 KCAL/MOL
REMARK 924 INTRA-LIGAND FREE ENERGY PREDICTED BY IDOCK:    0.00 KCAL/MOL
REMARK 927      BINDING AFFINITY PREDICTED BY RF-SCORE:    0.00 PKD
ROOT
HETATM    1  N   UNL     1     -11.368  14.452  69.045  1.00  0.00    -0.254 NA 
HETATM    2  C   UNL     1     -11.590  15.888  68.872  1.00  0.00    -0.388 C  
HETATM    3  H2  UNL     1     -10.578  14.268  69.664  1.00  0.00     0.000 HD 
HETATM    4  H1  UNL     1     -12.213  13.979  69.367  1.00  0.00     0.000 HD 
ENDROOT
BRANCH   2   5
HETATM    5  C   UNL     1     -10.317  16.600  68.387  1.00  0.00    -0.299 C  
HETATM    6  N   UNL     1     -10.526  17.252  67.095  1.00  0.00    -0.319 NA 
HETATM    7  H2  UNL     1     -11.323  17.889  67.122  1.00  0.00     0.000 HD 
HETATM    8  H1  UNL     1      -9.681  17.725  66.772  1.00  0.00     0.000 HD 
ENDBRANCH   2   5
TORSDOF 1
ENDMDL
MODEL      103
REMARK 921   NORMALIZED FREE ENERGY PREDICTED BY IDOCK:   -1.18 KCAL/MOL
REMARK 922        TOTAL FREE ENERGY PREDICTED BY IDOCK:   -1.25 KCAL/MOL
REMARK 923 INTER-LIGAND FREE ENERGY PREDICTED BY IDOCK:   -1.25 KCAL/MOL
REMARK 924 INTRA-LIGAND FREE ENERGY PREDICTED BY IDOCK:    0.00 KCAL/MOL
REMARK 927      BINDING AFFINITY PREDICTED BY RF-SCORE:    0.00 PKD
ROOT
HETATM    1  N   UNL     1     -11.986   6.902  70.091  1.00  0.00    -0.637 NA 
HETATM    2  C   UNL     1     -11.152   6.228  71.087  1.00  0.00    -0.298 C  
HETATM    3  H2  UNL     1     -11.491   7.021  69.208  1.00  0.00     0.000 HD 
HETATM    4  H1  UNL     1     -12.875   6.419  69.959  1.00  0.00     0.000 HD 
ENDROOT
BRANCH   2   5
HETATM    5  C   UNL     1      -9.814   6.957  71.286  1.00  0.00    -0.175 C  
HETATM    6  N   UNL     1      -8.704   6.213  70.690  1.00  0.00    -0.138 NA 
HETATM    7  H2  UNL     1      -8.876   6.012  69.705  1.00  0.00     0.000 HD 
HETATM    8  H1  UNL     1      -7.815   6.697  70.822  1.00  0.00     0.000 HD 
ENDBRANCH   2   5
TORSDOF 1
ENDMDL
MODEL      104
REMARK 921   NORMALIZED FREE ENERGY PREDICTED BY IDOCK:   -1.17 KCAL/MOL
REMARK 922        TOTAL FREE ENERGY PREDICTED BY IDOCK:   -1.24 KCAL/MOL
REMARK 923 INTER-LIGAND FREE ENERGY PREDICTED BY IDOCK:   -1.24 KCAL/MOL
REMARK 924 INTRA-LIGAND FREE ENERGY PREDICTED BY IDOCK:    0.00 KCAL/MOL
REMARK 927      BINDING AFFINITY PREDICTED BY RF-SCORE:    0.00 PKD
ROOT
HETATM    1  N   UNL     1     -10.240   4.484  71.427  1.00  0.00    -0.156 NA 
HETATM    2  C   UNL     1     -10.338   5.937  71.566  1.00  0.00    -0.222 C  
HETATM    3  H2  UNL     1     -11.140   4.032  71.588  1.00  0.00     0.000 HD 
HETATM    4  H1  UNL     1      -9.846   4.221  70.523  1.00  0.00     0.000 HD 
ENDROOT
BRANCH   2   5
HETATM    5  C   UNL     1     -10.932   6.334  72.928  1.00  0.00    -0.254 C  
HETATM    6  N   UNL     1     -11.662   7.599  72.847  1.00  0.00    -0.610 NA 
HETATM    7  H2  UNL     1     -12.378   7.571  72.121  1.00  0.00     0.000 HD 
HETATM    8  H1  UNL     1     -12.056   7.862  73.750  1.00  0.00     0.000 HD 
ENDBRANCH   2   5
TORSDOF 1
ENDMDL
MODEL      105
REMARK 921   NORMALIZED FREE ENERGY PREDICTED BY IDOCK:   -1.13 KCAL/MOL
REMARK 922        TOTAL FREE ENERGY PREDICTED BY IDOCK:   -1.19 KCAL/MOL
REMARK 923 INTER-LIGAND FREE ENERGY PREDICTED BY IDOCK:   -1.19 KCAL/MOL
REMARK 924 INTRA-LIGAND FREE ENERGY PREDICTED BY IDOCK:    0.00 KCAL/MOL
REMARK 927      BINDING AFFINITY PREDICTED BY RF-SCORE:    0.00 PKD
ROOT
HETATM    1  N   UNL     1      -8.578   7.048  71.034  1.00  0.00    -0.133 NA 
HETATM    2  C   UNL     1     -10.039   7.012  71.107  1.00  0.00    -0.187 C  
HETATM    3  H2  UNL     1      -8.242   7.961  70.726  1.00  0.00     0.000 HD 
HETATM    4  H1  UNL     1      -8.152   6.773  71.920  1.00  0.00     0.000 HD 
ENDROOT
BRANCH   2   5
HETATM    5  C   UNL     1     -10.679   7.427  69.772  1.00  0.00    -0.241 C  
HETATM    6  N   UNL     1     -11.877   6.638  69.484  1.00  0.00    -0.632 NA 
HETATM    7  H2  UNL     1     -12.548   6.684  70.251  1.00  0.00     0.000 HD 
HETATM    8  H1  UNL     1     -12.302   6.913  68.598  1.00  0.00     0.000 HD 
ENDBRANCH   2   5
TORSDOF 1
ENDMDL
MODEL      106
REMARK 921   NORMALIZED FREE ENERGY PREDICTED BY IDOCK:   -1.13 KCAL/MOL
REMARK 922        TOTAL FREE ENERGY PREDICTED BY IDOCK:   -1.19 KCAL/MOL
REMARK 923 INTER-LIGAND FREE ENERGY PREDICTED BY IDOCK:   -1.19 KCAL/MOL
REMARK 924 INTRA-LIGAND FREE ENERGY PREDICTED BY IDOCK:    0.00 KCAL/MOL
REMARK 927      BINDING AFFINITY PREDICTED BY RF-SCORE:    0.00 PKD
ROOT
HETATM    1  N   UNL     1      -8.971  12.300  65.841  1.00  0.00    -0.425 NA 
HETATM    2  C   UNL     1      -9.285  12.373  67.268  1.00  0.00    -0.187 C  
HETATM    3  H2  UNL     1      -9.762  11.949  65.302  1.00  0.00     0.000 HD 
HETATM    4  H1  UNL     1      -8.646  13.199  65.483  1.00  0.00     0.000 HD 
ENDROOT
BRANCH   2   5
HETATM    5  C   UNL     1      -9.776  11.019  67.806  1.00  0.00    -0.170 C  
HETATM    6  N   UNL     1      -9.465  10.863  69.227  1.00  0.00    -0.410 NA 
HETATM    7  H2  UNL     1      -9.833  11.639  69.778  1.00  0.00     0.000 HD 
HETATM    8  H1  UNL     1      -9.790   9.964  69.584  1.00  0.00     0.000 HD 
ENDBRANCH   2   5
TORSDOF 1
ENDMDL
MODEL      107
REMARK 921   NORMALIZED FREE ENERGY PREDICTED BY IDOCK:   -1.12 KCAL/MOL
REMARK 922        TOTAL FREE ENERGY PREDICTED BY IDOCK:   -1.19 KCAL/MOL
REMARK 923 INTER-LIGAND FREE ENERGY PREDICTED BY IDOCK:   -1.19 KCAL/MOL
REMARK 924 INTRA-LIGAND FREE ENERGY PREDICTED BY IDOCK:    0.00 KCAL/MOL
REMARK 927      BINDING AFFINITY PREDICTED BY RF-SCORE:    0.00 PKD
ROOT
HETATM    1  N   UNL     1     -10.049   8.177  67.038  1.00  0.00    -0.251 NA 
HETATM    2  C   UNL     1     -10.586   9.451  67.516  1.00  0.00    -0.267 C  
HETATM    3  H2  UNL     1     -10.562   7.386  67.426  1.00  0.00     0.000 HD 
HETATM    4  H1  UNL     1     -10.023   8.140  66.018  1.00  0.00     0.000 HD 
ENDROOT
BRANCH   2   5
HETATM    5  C   UNL     1     -10.625   9.505  69.051  1.00  0.00    -0.219 C  
HETATM    6  N   UNL     1     -11.175   8.273  69.618  1.00  0.00    -0.452 NA 
HETATM    7  H2  UNL     1     -10.670   7.451  69.286  1.00  0.00     0.000 HD 
HETATM    8  H1  UNL     1     -11.201   8.309  70.637  1.00  0.00     0.000 HD 
ENDBRANCH   2   5
TORSDOF 1
ENDMDL
MODEL      108
REMARK 921   NORMALIZED FREE ENERGY PREDICTED BY IDOCK:   -1.10 KCAL/MOL
REMARK 922        TOTAL FREE ENERGY PREDICTED BY IDOCK:   -1.17 KCAL/MOL
REMARK 923 INTER-LIGAND FREE ENERGY PREDICTED BY IDOCK:   -1.17 KCAL/MOL
REMARK 924 INTRA-LIGAND FREE ENERGY PREDICTED BY IDOCK:    0.00 KCAL/MOL
REMARK 927      BINDING AFFINITY PREDICTED BY RF-SCORE:    0.00 PKD
ROOT
HETATM    1  N   UNL     1      -9.617   6.409  70.369  1.00  0.00    -0.165 NA 
HETATM    2  C   UNL     1     -10.633   5.982  71.331  1.00  0.00    -0.246 C  
HETATM    3  H2  UNL     1      -8.773   6.737  70.838  1.00  0.00     0.000 HD 
HETATM    4  H1  UNL     1      -9.407   5.673  69.694  1.00  0.00     0.000 HD 
ENDROOT
BRANCH   2   5
HETATM    5  C   UNL     1     -10.948   7.091  72.347  1.00  0.00    -0.248 C  
HETATM    6  N   UNL     1     -12.382   7.378  72.401  1.00  0.00    -0.511 NA 
HETATM    7  H2  UNL     1     -12.924   6.534  72.589  1.00  0.00     0.000 HD 
HETATM    8  H1  UNL     1     -12.591   8.114  73.075  1.00  0.00     0.000 HD 
ENDBRANCH   2   5
TORSDOF 1
ENDMDL
MODEL      109
REMARK 921   NORMALIZED FREE ENERGY PREDICTED BY IDOCK:   -1.10 KCAL/MOL
REMARK 922        TOTAL FREE ENERGY PREDICTED BY IDOCK:   -1.16 KCAL/MOL
REMARK 923 INTER-LIGAND FREE ENERGY PREDICTED BY IDOCK:   -1.16 KCAL/MOL
REMARK 924 INTRA-LIGAND FREE ENERGY PREDICTED BY IDOCK:    0.00 KCAL/MOL
REMARK 927      BINDING AFFINITY PREDICTED BY RF-SCORE:    0.00 PKD
ROOT
HETATM    1  N   UNL     1      -5.527  20.551  65.426  1.00  0.00    -0.177 NA 
HETATM    2  C   UNL     1      -5.877  21.345  66.604  1.00  0.00    -0.320 C  
HETATM    3  H2  UNL     1      -6.310  20.484  64.775  1.00  0.00     0.000 HD 
HETATM    4  H1  UNL     1      -4.690  20.912  64.967  1.00  0.00     0.000 HD 
ENDROOT
BRANCH   2   5
HETATM    5  C   UNL     1      -7.138  20.801  67.295  1.00  0.00    -0.362 C  
HETATM    6  N   UNL     1      -6.801  19.982  68.460  1.00  0.00    -0.306 NA 
HETATM    7  H2  UNL     1      -6.206  20.490  69.115  1.00  0.00     0.000 HD 
HETATM    8  H1  UNL     1      -7.638  19.621  68.918  1.00  0.00     0.000 HD 
ENDBRANCH   2   5
TORSDOF 1
ENDMDL
MODEL      110
REMARK 921   NORMALIZED FREE ENERGY PREDICTED BY IDOCK:   -1.06 KCAL/MOL
REMARK 922        TOTAL FREE ENERGY PREDICTED BY IDOCK:   -1.12 KCAL/MOL
REMARK 923 INTER-LIGAND FREE ENERGY PREDICTED BY IDOCK:   -1.12 KCAL/MOL
REMARK 924 INTRA-LIGAND FREE ENERGY PREDICTED BY IDOCK:    0.00 KCAL/MOL
REMARK 927      BINDING AFFINITY PREDICTED BY RF-SCORE:    0.00 PKD
ROOT
HETATM    1  N   UNL     1      -9.322  11.648  65.074  1.00  0.00    -0.412 NA 
HETATM    2  C   UNL     1      -8.444  10.478  65.039  1.00  0.00    -0.163 C  
HETATM    3  H2  UNL     1      -9.328  12.083  65.996  1.00  0.00     0.000 HD 
HETATM    4  H1  UNL     1      -9.078  12.320  64.345  1.00  0.00     0.000 HD 
ENDROOT
BRANCH   2   5
HETATM    5  C   UNL     1      -8.811   9.466  66.137  1.00  0.00    -0.151 C  
HETATM    6  N   UNL     1      -9.988   8.679  65.769  1.00  0.00    -0.395 NA 
HETATM    7  H2  UNL     1      -9.863   8.221  64.866  1.00  0.00     0.000 HD 
HETATM    8  H1  UNL     1     -10.232   8.007  66.497  1.00  0.00     0.000 HD 
ENDBRANCH   2   5
TORSDOF 1
ENDMDL
MODEL      111
REMARK 921   NORMALIZED FREE ENERGY PREDICTED BY IDOCK:   -1.05 KCAL/MOL
REMARK 922        TOTAL FREE ENERGY PREDICTED BY IDOCK:   -1.11 KCAL/MOL
REMARK 923 INTER-LIGAND FREE ENERGY PREDICTED BY IDOCK:   -1.11 KCAL/MOL
REMARK 924 INTRA-LIGAND FREE ENERGY PREDICTED BY IDOCK:    0.00 KCAL/MOL
REMARK 927      BINDING AFFINITY PREDICTED BY RF-SCORE:    0.00 PKD
ROOT
HETATM    1  N   UNL     1     -10.006   5.622  70.569  1.00  0.00    -0.193 NA 
HETATM    2  C   UNL     1     -11.387   6.105  70.600  1.00  0.00    -0.298 C  
HETATM    3  H2  UNL     1      -9.508   5.860  71.427  1.00  0.00     0.000 HD 
HETATM    4  H1  UNL     1      -9.965   4.621  70.379  1.00  0.00     0.000 HD 
ENDROOT
BRANCH   2   5
HETATM    5  C   UNL     1     -11.449   7.614  70.887  1.00  0.00    -0.282 C  
HETATM    6  N   UNL     1     -10.857   8.392  69.799  1.00  0.00    -0.340 NA 
HETATM    7  H2  UNL     1     -11.286   8.165  68.901  1.00  0.00     0.000 HD 
HETATM    8  H1  UNL     1     -10.898   9.394  69.989  1.00  0.00     0.000 HD 
ENDBRANCH   2   5
TORSDOF 1
ENDMDL
MODEL      112
REMARK 921   NORMALIZED FREE ENERGY PREDICTED BY IDOCK:   -1.02 KCAL/MOL
REMARK 922        TOTAL FREE ENERGY PREDICTED BY IDOCK:   -1.08 KCAL/MOL
REMARK 923 INTER-LIGAND FREE ENERGY PREDICTED BY IDOCK:   -1.08 KCAL/MOL
REMARK 924 INTRA-LIGAND FREE ENERGY PREDICTED BY IDOCK:    0.00 KCAL/MOL
REMARK 927      BINDING AFFINITY PREDICTED BY RF-SCORE:    0.00 PKD
ROOT
HETATM    1  N   UNL     1     -11.595   7.094  69.989  1.00  0.00    -0.520 NA 
HETATM    2  C   UNL     1     -10.530   7.494  69.068  1.00  0.00    -0.208 C  
HETATM    3  H2  UNL     1     -12.468   7.579  69.782  1.00  0.00     0.000 HD 
HETATM    4  H1  UNL     1     -11.722   6.082  69.996  1.00  0.00     0.000 HD 
ENDROOT
BRANCH   2   5
HETATM    5  C   UNL     1     -10.339   9.020  69.057  1.00  0.00    -0.219 C  
HETATM    6  N   UNL     1      -8.987   9.388  68.636  1.00  0.00    -0.131 NA 
HETATM    7  H2  UNL     1      -8.752   8.976  67.733  1.00  0.00     0.000 HD 
HETATM    8  H1  UNL     1      -8.860  10.400  68.629  1.00  0.00     0.000 HD 
ENDBRANCH   2   5
TORSDOF 1
ENDMDL
MODEL      113
REMARK 921   NORMALIZED FREE ENERGY PREDICTED BY IDOCK:   -1.01 KCAL/MOL
REMARK 922        TOTAL FREE ENERGY PREDICTED BY IDOCK:   -1.07 KCAL/MOL
REMARK 923 INTER-LIGAND FREE ENERGY PREDICTED BY IDOCK:   -1.07 KCAL/MOL
REMARK 924 INTRA-LIGAND FREE ENERGY PREDICTED BY IDOCK:    0.00 KCAL/MOL
REMARK 927      BINDING AFFINITY PREDICTED BY RF-SCORE:    0.00 PKD
ROOT
HETATM    1  N   UNL     1      -6.617  13.258  70.195  1.00  0.00    -0.365 NA 
HETATM    2  C   UNL     1      -5.823  12.508  69.221  1.00  0.00    -0.086 C  
HETATM    3  H2  UNL     1      -7.588  13.344  69.897  1.00  0.00     0.000 HD 
HETATM    4  H1  UNL     1      -6.547  12.850  71.128  1.00  0.00     0.000 HD 
ENDROOT
BRANCH   2   5
HETATM    5  C   UNL     1      -5.929  13.123  67.816  1.00  0.00    -0.148 C  
HETATM    6  N   UNL     1      -6.160  12.098  66.798  1.00  0.00    -0.473 NA 
HETATM    7  H2  UNL     1      -6.978  11.529  67.020  1.00  0.00     0.000 HD 
HETATM    8  H1  UNL     1      -6.230  12.505  65.865  1.00  0.00     0.000 HD 
ENDBRANCH   2   5
TORSDOF 1
ENDMDL
MODEL      114
REMARK 921   NORMALIZED FREE ENERGY PREDICTED BY IDOCK:   -0.99 KCAL/MOL
REMARK 922        TOTAL FREE ENERGY PREDICTED BY IDOCK:   -1.04 KCAL/MOL
REMARK 923 INTER-LIGAND FREE ENERGY PREDICTED BY IDOCK:   -1.04 KCAL/MOL
REMARK 924 INTRA-LIGAND FREE ENERGY PREDICTED BY IDOCK:    0.00 KCAL/MOL
REMARK 927      BINDING AFFINITY PREDICTED BY RF-SCORE:    0.00 PKD
ROOT
HETATM    1  N   UNL     1      -9.906   3.210  71.287  1.00  0.00    -0.141 NA 
HETATM    2  C   UNL     1      -9.853   4.618  71.681  1.00  0.00    -0.187 C  
HETATM    3  H2  UNL     1     -10.855   2.840  71.351  1.00  0.00     0.000 HD 
HETATM    4  H1  UNL     1      -9.512   3.067  70.356  1.00  0.00     0.000 HD 
ENDROOT
BRANCH   2   5
HETATM    5  C   UNL     1     -10.447   4.832  73.083  1.00  0.00    -0.201 C  
HETATM    6  N   UNL     1     -11.852   5.234  73.013  1.00  0.00    -0.515 NA 
HETATM    7  H2  UNL     1     -12.404   4.569  72.472  1.00  0.00     0.000 HD 
HETATM    8  H1  UNL     1     -12.247   5.376  73.944  1.00  0.00     0.000 HD 
ENDBRANCH   2   5
TORSDOF 1
ENDMDL
MODEL      115
REMARK 921   NORMALIZED FREE ENERGY PREDICTED BY IDOCK:   -0.98 KCAL/MOL
REMARK 922        TOTAL FREE ENERGY PREDICTED BY IDOCK:   -1.04 KCAL/MOL
REMARK 923 INTER-LIGAND FREE ENERGY PREDICTED BY IDOCK:   -1.04 KCAL/MOL
REMARK 924 INTRA-LIGAND FREE ENERGY PREDICTED BY IDOCK:    0.00 KCAL/MOL
REMARK 927      BINDING AFFINITY PREDICTED BY RF-SCORE:    0.00 PKD
ROOT
HETATM    1  N   UNL     1     -10.128   9.548  65.957  1.00  0.00    -0.283 NA 
HETATM    2  C   UNL     1      -9.877  10.969  66.202  1.00  0.00    -0.225 C  
HETATM    3  H2  UNL     1     -10.176   9.022  66.829  1.00  0.00     0.000 HD 
HETATM    4  H1  UNL     1     -10.965   9.409  65.391  1.00  0.00     0.000 HD 
ENDROOT
BRANCH   2   5
HETATM    5  C   UNL     1      -8.616  11.179  67.056  1.00  0.00    -0.147 C  
HETATM    6  N   UNL     1      -7.829  12.317  66.580  1.00  0.00    -0.380 NA 
HETATM    7  H2  UNL     1      -8.392  13.166  66.531  1.00  0.00     0.000 HD 
HETATM    8  H1  UNL     1      -6.992  12.456  67.147  1.00  0.00     0.000 HD 
ENDBRANCH   2   5
TORSDOF 1
ENDMDL
MODEL      116
REMARK 921   NORMALIZED FREE ENERGY PREDICTED BY IDOCK:   -0.96 KCAL/MOL
REMARK 922        TOTAL FREE ENERGY PREDICTED BY IDOCK:   -1.01 KCAL/MOL
REMARK 923 INTER-LIGAND FREE ENERGY PREDICTED BY IDOCK:   -1.01 KCAL/MOL
REMARK 924 INTRA-LIGAND FREE ENERGY PREDICTED BY IDOCK:    0.00 KCAL/MOL
REMARK 927      BINDING AFFINITY PREDICTED BY RF-SCORE:    0.00 PKD
ROOT
HETATM    1  N   UNL     1      -5.831  18.177  69.319  1.00  0.00    -0.218 NA 
HETATM    2  C   UNL     1      -5.910  18.760  67.980  1.00  0.00    -0.202 C  
HETATM    3  H2  UNL     1      -6.315  17.280  69.365  1.00  0.00     0.000 HD 
HETATM    4  H1  UNL     1      -4.864  18.096  69.635  1.00  0.00     0.000 HD 
ENDROOT
BRANCH   2   5
HETATM    5  C   UNL     1      -7.367  18.882  67.504  1.00  0.00    -0.226 C  
HETATM    6  N   UNL     1      -8.255  19.286  68.594  1.00  0.00    -0.368 NA 
HETATM    7  H2  UNL     1      -7.934  20.147  69.037  1.00  0.00     0.000 HD 
HETATM    8  H1  UNL     1      -9.222  19.367  68.278  1.00  0.00     0.000 HD 
ENDBRANCH   2   5
TORSDOF 1
ENDMDL
MODEL      117
REMARK 921   NORMALIZED FREE ENERGY PREDICTED BY IDOCK:   -0.93 KCAL/MOL
REMARK 922        TOTAL FREE ENERGY PREDICTED BY IDOCK:   -0.99 KCAL/MOL
REMARK 923 INTER-LIGAND FREE ENERGY PREDICTED BY IDOCK:   -0.99 KCAL/MOL
REMARK 924 INTRA-LIGAND FREE ENERGY PREDICTED BY IDOCK:    0.00 KCAL/MOL
REMARK 927      BINDING AFFINITY PREDICTED BY RF-SCORE:    0.00 PKD
ROOT
HETATM    1  N   UNL     1      -9.840   7.967  66.256  1.00  0.00    -0.450 NA 
HETATM    2  C   UNL     1      -8.999   8.606  65.244  1.00  0.00    -0.098 C  
HETATM    3  H2  UNL     1      -9.280   7.571  67.011  1.00  0.00     0.000 HD 
HETATM    4  H1  UNL     1     -10.548   8.610  66.615  1.00  0.00     0.000 HD 
ENDROOT
BRANCH   2   5
HETATM    5  C   UNL     1      -7.934   7.638  64.705  1.00  0.00    -0.136 C  
HETATM    6  N   UNL     1      -8.543   6.489  64.035  1.00  0.00    -0.302 NA 
HETATM    7  H2  UNL     1      -9.186   6.783  63.300  1.00  0.00     0.000 HD 
HETATM    8  H1  UNL     1      -7.835   5.846  63.677  1.00  0.00     0.000 HD 
ENDBRANCH   2   5
TORSDOF 1
ENDMDL
MODEL      118
REMARK 921   NORMALIZED FREE ENERGY PREDICTED BY IDOCK:   -0.93 KCAL/MOL
REMARK 922        TOTAL FREE ENERGY PREDICTED BY IDOCK:   -0.98 KCAL/MOL
REMARK 923 INTER-LIGAND FREE ENERGY PREDICTED BY IDOCK:   -0.98 KCAL/MOL
REMARK 924 INTRA-LIGAND FREE ENERGY PREDICTED BY IDOCK:    0.00 KCAL/MOL
REMARK 927      BINDING AFFINITY PREDICTED BY RF-SCORE:    0.00 PKD
ROOT
HETATM    1  N   UNL     1     -10.856   5.778  69.342  1.00  0.00    -0.333 NA 
HETATM    2  C   UNL     1     -10.762   7.235  69.429  1.00  0.00    -0.225 C  
HETATM    3  H2  UNL     1     -11.577   5.413  69.964  1.00  0.00     0.000 HD 
HETATM    4  H1  UNL     1     -11.002   5.470  68.380  1.00  0.00     0.000 HD 
ENDROOT
BRANCH   2   5
HETATM    5  C   UNL     1     -10.542   7.700  70.878  1.00  0.00    -0.213 C  
HETATM    6  N   UNL     1     -10.618   6.580  71.817  1.00  0.00    -0.212 NA 
HETATM    7  H2  UNL     1      -9.971   5.834  71.562  1.00  0.00     0.000 HD 
HETATM    8  H1  UNL     1     -10.473   6.889  72.779  1.00  0.00     0.000 HD 
ENDBRANCH   2   5
TORSDOF 1
ENDMDL
MODEL      119
REMARK 921   NORMALIZED FREE ENERGY PREDICTED BY IDOCK:   -0.93 KCAL/MOL
REMARK 922        TOTAL FREE ENERGY PREDICTED BY IDOCK:   -0.98 KCAL/MOL
REMARK 923 INTER-LIGAND FREE ENERGY PREDICTED BY IDOCK:   -0.98 KCAL/MOL
REMARK 924 INTRA-LIGAND FREE ENERGY PREDICTED BY IDOCK:    0.00 KCAL/MOL
REMARK 927      BINDING AFFINITY PREDICTED BY RF-SCORE:    0.00 PKD
ROOT
HETATM    1  N   UNL     1      -5.682  14.680  70.664  1.00  0.00    -0.154 NA 
HETATM    2  C   UNL     1      -5.507  13.259  70.965  1.00  0.00    -0.196 C  
HETATM    3  H2  UNL     1      -6.665  14.912  70.519  1.00  0.00     0.000 HD 
HETATM    4  H1  UNL     1      -5.261  15.269  71.383  1.00  0.00     0.000 HD 
ENDROOT
BRANCH   2   5
HETATM    5  C   UNL     1      -6.142  12.371  69.882  1.00  0.00    -0.135 C  
HETATM    6  N   UNL     1      -6.676  11.133  70.448  1.00  0.00    -0.496 NA 
HETATM    7  H2  UNL     1      -7.331  11.321  71.207  1.00  0.00     0.000 HD 
HETATM    8  H1  UNL     1      -7.097  10.544  69.729  1.00  0.00     0.000 HD 
ENDBRANCH   2   5
TORSDOF 1
ENDMDL
MODEL      120
REMARK 921   NORMALIZED FREE ENERGY PREDICTED BY IDOCK:   -0.91 KCAL/MOL
REMARK 922        TOTAL FREE ENERGY PREDICTED BY IDOCK:   -0.97 KCAL/MOL
REMARK 923 INTER-LIGAND FREE ENERGY PREDICTED BY IDOCK:   -0.97 KCAL/MOL
REMARK 924 INTRA-LIGAND FREE ENERGY PREDICTED BY IDOCK:    0.00 KCAL/MOL
REMARK 927      BINDING AFFINITY PREDICTED BY RF-SCORE:    0.00 PKD
ROOT
HETATM    1  N   UNL     1     -10.930   8.136  67.588  1.00  0.00    -0.502 NA 
HETATM    2  C   UNL     1      -9.699   8.271  66.807  1.00  0.00    -0.239 C  
HETATM    3  H2  UNL     1     -11.549   8.934  67.449  1.00  0.00     0.000 HD 
HETATM    4  H1  UNL     1     -11.405   7.255  67.388  1.00  0.00     0.000 HD 
ENDROOT
BRANCH   2   5
HETATM    5  C   UNL     1      -8.984   9.598  67.108  1.00  0.00    -0.134 C  
HETATM    6  N   UNL     1      -7.538   9.412  67.228  1.00  0.00    -0.091 NA 
HETATM    7  H2  UNL     1      -7.150   8.958  66.401  1.00  0.00     0.000 HD 
HETATM    8  H1  UNL     1      -7.063  10.293  67.428  1.00  0.00     0.000 HD 
ENDBRANCH   2   5
TORSDOF 1
ENDMDL
MODEL      121
REMARK 921   NORMALIZED FREE ENERGY PREDICTED BY IDOCK:   -0.90 KCAL/MOL
REMARK 922        TOTAL FREE ENERGY PREDICTED BY IDOCK:   -0.95 KCAL/MOL
REMARK 923 INTER-LIGAND FREE ENERGY PREDICTED BY IDOCK:   -0.95 KCAL/MOL
REMARK 924 INTRA-LIGAND FREE ENERGY PREDICTED BY IDOCK:    0.00 KCAL/MOL
REMARK 927      BINDING AFFINITY PREDICTED BY RF-SCORE:    0.00 PKD
ROOT
HETATM    1  N   UNL     1      -7.803  13.972  69.166  1.00  0.00    -0.335 NA 
HETATM    2  C   UNL     1      -7.770  15.415  69.409  1.00  0.00    -0.227 C  
HETATM    3  H2  UNL     1      -7.028  13.498  69.629  1.00  0.00     0.000 HD 
HETATM    4  H1  UNL     1      -8.702  13.568  69.434  1.00  0.00     0.000 HD 
ENDROOT
BRANCH   2   5
HETATM    5  C   UNL     1      -6.417  16.022  69.006  1.00  0.00    -0.146 C  
HETATM    6  N   UNL     1      -6.178  17.297  69.684  1.00  0.00    -0.247 NA 
HETATM    7  H2  UNL     1      -6.258  17.202  70.696  1.00  0.00     0.000 HD 
HETATM    8  H1  UNL     1      -5.280  17.700  69.416  1.00  0.00     0.000 HD 
ENDBRANCH   2   5
TORSDOF 1
ENDMDL
MODEL      122
REMARK 921   NORMALIZED FREE ENERGY PREDICTED BY IDOCK:   -0.90 KCAL/MOL
REMARK 922        TOTAL FREE ENERGY PREDICTED BY IDOCK:   -0.95 KCAL/MOL
REMARK 923 INTER-LIGAND FREE ENERGY PREDICTED BY IDOCK:   -0.95 KCAL/MOL
REMARK 924 INTRA-LIGAND FREE ENERGY PREDICTED BY IDOCK:    0.00 KCAL/MOL
REMARK 927      BINDING AFFINITY PREDICTED BY RF-SCORE:    0.00 PKD
ROOT
HETATM    1  N   UNL     1      -7.821   8.914  68.457  1.00  0.00    -0.102 NA 
HETATM    2  C   UNL     1      -9.150   9.248  68.968  1.00  0.00    -0.147 C  
HETATM    3  H2  UNL     1      -7.849   8.689  67.462  1.00  0.00     0.000 HD 
HETATM    4  H1  UNL     1      -7.147   9.654  68.653  1.00  0.00     0.000 HD 
ENDROOT
BRANCH   2   5
HETATM    5  C   UNL     1     -10.165   8.132  68.672  1.00  0.00    -0.207 C  
HETATM    6  N   UNL     1     -10.800   8.317  67.367  1.00  0.00    -0.497 NA 
HETATM    7  H2  UNL     1     -10.107   8.398  66.623  1.00  0.00     0.000 HD 
HETATM    8  H1  UNL     1     -11.473   7.576  67.170  1.00  0.00     0.000 HD 
ENDBRANCH   2   5
TORSDOF 1
ENDMDL
MODEL      123
REMARK 921   NORMALIZED FREE ENERGY PREDICTED BY IDOCK:   -0.89 KCAL/MOL
REMARK 922        TOTAL FREE ENERGY PREDICTED BY IDOCK:   -0.95 KCAL/MOL
REMARK 923 INTER-LIGAND FREE ENERGY PREDICTED BY IDOCK:   -0.95 KCAL/MOL
REMARK 924 INTRA-LIGAND FREE ENERGY PREDICTED BY IDOCK:    0.00 KCAL/MOL
REMARK 927      BINDING AFFINITY PREDICTED BY RF-SCORE:    0.00 PKD
ROOT
HETATM    1  N   UNL     1      -6.041  14.803  67.695  1.00  0.00    -0.309 NA 
HETATM    2  C   UNL     1      -7.362  15.270  67.274  1.00  0.00    -0.195 C  
HETATM    3  H2  UNL     1      -5.895  13.825  67.447  1.00  0.00     0.000 HD 
HETATM    4  H1  UNL     1      -5.299  15.397  67.326  1.00  0.00     0.000 HD 
ENDROOT
BRANCH   2   5
HETATM    5  C   UNL     1      -8.481  14.374  67.830  1.00  0.00    -0.173 C  
HETATM    6  N   UNL     1      -9.361  13.892  66.765  1.00  0.00    -0.269 NA 
HETATM    7  H2  UNL     1      -8.834  13.419  66.031  1.00  0.00     0.000 HD 
HETATM    8  H1  UNL     1     -10.103  13.297  67.134  1.00  0.00     0.000 HD 
ENDBRANCH   2   5
TORSDOF 1
ENDMDL
MODEL      124
REMARK 921   NORMALIZED FREE ENERGY PREDICTED BY IDOCK:   -0.87 KCAL/MOL
REMARK 922        TOTAL FREE ENERGY PREDICTED BY IDOCK:   -0.93 KCAL/MOL
REMARK 923 INTER-LIGAND FREE ENERGY PREDICTED BY IDOCK:   -0.93 KCAL/MOL
REMARK 924 INTRA-LIGAND FREE ENERGY PREDICTED BY IDOCK:    0.00 KCAL/MOL
REMARK 927      BINDING AFFINITY PREDICTED BY RF-SCORE:    0.00 PKD
ROOT
HETATM    1  N   UNL     1      -8.764   6.788  71.097  1.00  0.00    -0.136 NA 
HETATM    2  C   UNL     1      -9.270   7.521  72.258  1.00  0.00    -0.138 C  
HETATM    3  H2  UNL     1      -9.328   5.961  70.903  1.00  0.00     0.000 HD 
HETATM    4  H1  UNL     1      -8.691   7.391  70.277  1.00  0.00     0.000 HD 
ENDROOT
BRANCH   2   5
HETATM    5  C   UNL     1      -9.379   6.612  73.493  1.00  0.00    -0.145 C  
HETATM    6  N   UNL     1     -10.434   7.065  74.401  1.00  0.00    -0.506 NA 
HETATM    7  H2  UNL     1     -11.330   7.151  73.920  1.00  0.00     0.000 HD 
HETATM    8  H1  UNL     1     -10.507   6.463  75.221  1.00  0.00     0.000 HD 
ENDBRANCH   2   5
TORSDOF 1
ENDMDL
MODEL      125
REMARK 921   NORMALIZED FREE ENERGY PREDICTED BY IDOCK:   -0.87 KCAL/MOL
REMARK 922        TOTAL FREE ENERGY PREDICTED BY IDOCK:   -0.92 KCAL/MOL
REMARK 923 INTER-LIGAND FREE ENERGY PREDICTED BY IDOCK:   -0.92 KCAL/MOL
REMARK 924 INTRA-LIGAND FREE ENERGY PREDICTED BY IDOCK:    0.00 KCAL/MOL
REMARK 927      BINDING AFFINITY PREDICTED BY RF-SCORE:    0.00 PKD
ROOT
HETATM    1  N   UNL     1      -8.818   6.579  66.645  1.00  0.00    -0.127 NA 
HETATM    2  C   UNL     1      -9.025   7.880  67.281  1.00  0.00    -0.127 C  
HETATM    3  H2  UNL     1      -9.682   6.221  66.239  1.00  0.00     0.000 HD 
HETATM    4  H1  UNL     1      -8.068   6.616  65.954  1.00  0.00     0.000 HD 
ENDROOT
BRANCH   2   5
HETATM    5  C   UNL     1     -10.155   7.824  68.322  1.00  0.00    -0.192 C  
HETATM    6  N   UNL     1     -10.997   9.019  68.263  1.00  0.00    -0.475 NA 
HETATM    7  H2  UNL     1     -11.363   9.173  67.323  1.00  0.00     0.000 HD 
HETATM    8  H1  UNL     1     -11.748   8.982  68.954  1.00  0.00     0.000 HD 
ENDBRANCH   2   5
TORSDOF 1
ENDMDL
MODEL      126
REMARK 921   NORMALIZED FREE ENERGY PREDICTED BY IDOCK:   -0.84 KCAL/MOL
REMARK 922        TOTAL FREE ENERGY PREDICTED BY IDOCK:   -0.89 KCAL/MOL
REMARK 923 INTER-LIGAND FREE ENERGY PREDICTED BY IDOCK:   -0.89 KCAL/MOL
REMARK 924 INTRA-LIGAND FREE ENERGY PREDICTED BY IDOCK:    0.00 KCAL/MOL
REMARK 927      BINDING AFFINITY PREDICTED BY RF-SCORE:    0.00 PKD
ROOT
HETATM    1  N   UNL     1      -8.552   9.160  64.080  1.00  0.00    -0.288 NA 
HETATM    2  C   UNL     1      -7.702   8.891  62.920  1.00  0.00    -0.116 C  
HETATM    3  H2  UNL     1      -8.842  10.137  64.112  1.00  0.00     0.000 HD 
HETATM    4  H1  UNL     1      -9.356   8.531  64.108  1.00  0.00     0.000 HD 
ENDROOT
BRANCH   2   5
HETATM    5  C   UNL     1      -6.493   9.839  62.876  1.00  0.00    -0.110 C  
HETATM    6  N   UNL     1      -6.873  11.172  62.409  1.00  0.00    -0.379 NA 
HETATM    7  H2  UNL     1      -7.632  11.562  62.968  1.00  0.00     0.000 HD 
HETATM    8  H1  UNL     1      -6.070  11.801  62.380  1.00  0.00     0.000 HD 
ENDBRANCH   2   5
TORSDOF 1
ENDMDL
MODEL      127
REMARK 921   NORMALIZED FREE ENERGY PREDICTED BY IDOCK:   -0.84 KCAL/MOL
REMARK 922        TOTAL FREE ENERGY PREDICTED BY IDOCK:   -0.89 KCAL/MOL
REMARK 923 INTER-LIGAND FREE ENERGY PREDICTED BY IDOCK:   -0.89 KCAL/MOL
REMARK 924 INTRA-LIGAND FREE ENERGY PREDICTED BY IDOCK:    0.00 KCAL/MOL
REMARK 927      BINDING AFFINITY PREDICTED BY RF-SCORE:    0.00 PKD
ROOT
HETATM    1  N   UNL     1      -8.253  10.803  68.032  1.00  0.00    -0.112 NA 
HETATM    2  C   UNL     1      -7.698  11.957  67.324  1.00  0.00    -0.164 C  
HETATM    3  H2  UNL     1      -7.715  10.585  68.870  1.00  0.00     0.000 HD 
HETATM    4  H1  UNL     1      -9.242  10.937  68.248  1.00  0.00     0.000 HD 
ENDROOT
BRANCH   2   5
HETATM    5  C   UNL     1      -6.209  11.755  67.000  1.00  0.00    -0.152 C  
HETATM    6  N   UNL     1      -6.014  11.350  65.607  1.00  0.00    -0.460 NA 
HETATM    7  H2  UNL     1      -6.451  12.008  64.962  1.00  0.00     0.000 HD 
HETATM    8  H1  UNL     1      -5.026  11.215  65.392  1.00  0.00     0.000 HD 
ENDBRANCH   2   5
TORSDOF 1
ENDMDL
MODEL      128
REMARK 921   NORMALIZED FREE ENERGY PREDICTED BY IDOCK:   -0.79 KCAL/MOL
REMARK 922        TOTAL FREE ENERGY PREDICTED BY IDOCK:   -0.84 KCAL/MOL
REMARK 923 INTER-LIGAND FREE ENERGY PREDICTED BY IDOCK:   -0.84 KCAL/MOL
REMARK 924 INTRA-LIGAND FREE ENERGY PREDICTED BY IDOCK:    0.00 KCAL/MOL
REMARK 927      BINDING AFFINITY PREDICTED BY RF-SCORE:    0.00 PKD
ROOT
HETATM    1  N   UNL     1      -9.855   8.913  72.164  1.00  0.00    -0.274 NA 
HETATM    2  C   UNL     1      -9.724   9.142  70.724  1.00  0.00    -0.273 C  
HETATM    3  H2  UNL     1      -8.946   8.770  72.603  1.00  0.00     0.000 HD 
HETATM    4  H1  UNL     1     -10.374   9.666  72.616  1.00  0.00     0.000 HD 
ENDROOT
BRANCH   2   5
HETATM    5  C   UNL     1      -8.942   8.007  70.043  1.00  0.00    -0.144 C  
HETATM    6  N   UNL     1      -8.995   6.773  70.827  1.00  0.00    -0.150 NA 
HETATM    7  H2  UNL     1      -9.956   6.497  71.025  1.00  0.00     0.000 HD 
HETATM    8  H1  UNL     1      -8.475   6.020  70.375  1.00  0.00     0.000 HD 
ENDBRANCH   2   5
TORSDOF 1
ENDMDL
MODEL      129
REMARK 921   NORMALIZED FREE ENERGY PREDICTED BY IDOCK:   -0.78 KCAL/MOL
REMARK 922        TOTAL FREE ENERGY PREDICTED BY IDOCK:   -0.83 KCAL/MOL
REMARK 923 INTER-LIGAND FREE ENERGY PREDICTED BY IDOCK:   -0.83 KCAL/MOL
REMARK 924 INTRA-LIGAND FREE ENERGY PREDICTED BY IDOCK:    0.00 KCAL/MOL
REMARK 927      BINDING AFFINITY PREDICTED BY RF-SCORE:    0.00 PKD
ROOT
HETATM    1  N   UNL     1      -7.573  10.425  66.100  1.00  0.00    -0.125 NA 
HETATM    2  C   UNL     1      -8.570   9.647  66.835  1.00  0.00    -0.128 C  
HETATM    3  H2  UNL     1      -7.829  10.528  65.118  1.00  0.00     0.000 HD 
HETATM    4  H1  UNL     1      -7.407  11.331  66.539  1.00  0.00     0.000 HD 
ENDROOT
BRANCH   2   5
HETATM    5  C   UNL     1      -8.819   8.282  66.172  1.00  0.00    -0.167 C  
HETATM    6  N   UNL     1      -8.907   8.401  64.717  1.00  0.00    -0.411 NA 
HETATM    7  H2  UNL     1      -8.082   8.859  64.329  1.00  0.00     0.000 HD 
HETATM    8  H1  UNL     1      -9.073   7.495  64.277  1.00  0.00     0.000 HD 
ENDBRANCH   2   5
TORSDOF 1
ENDMDL
MODEL      130
REMARK 921   NORMALIZED FREE ENERGY PREDICTED BY IDOCK:   -0.78 KCAL/MOL
REMARK 922        TOTAL FREE ENERGY PREDICTED BY IDOCK:   -0.82 KCAL/MOL
REMARK 923 INTER-LIGAND FREE ENERGY PREDICTED BY IDOCK:   -0.82 KCAL/MOL
REMARK 924 INTRA-LIGAND FREE ENERGY PREDICTED BY IDOCK:    0.00 KCAL/MOL
REMARK 927      BINDING AFFINITY PREDICTED BY RF-SCORE:    0.00 PKD
ROOT
HETATM    1  N   UNL     1      -7.028  10.730  67.325  1.00  0.00    -0.083 NA 
HETATM    2  C   UNL     1      -7.462  12.127  67.324  1.00  0.00    -0.152 C  
HETATM    3  H2  UNL     1      -7.478  10.198  66.580  1.00  0.00     0.000 HD 
HETATM    4  H1  UNL     1      -6.012  10.654  67.276  1.00  0.00     0.000 HD 
ENDROOT
BRANCH   2   5
HETATM    5  C   UNL     1      -8.993  12.241  67.397  1.00  0.00    -0.183 C  
HETATM    6  N   UNL     1      -9.426  12.843  68.658  1.00  0.00    -0.407 NA 
HETATM    7  H2  UNL     1      -8.977  13.745  68.816  1.00  0.00     0.000 HD 
HETATM    8  H1  UNL     1     -10.443  12.919  68.707  1.00  0.00     0.000 HD 
ENDBRANCH   2   5
TORSDOF 1
ENDMDL
MODEL      131
REMARK 921   NORMALIZED FREE ENERGY PREDICTED BY IDOCK:   -0.76 KCAL/MOL
REMARK 922        TOTAL FREE ENERGY PREDICTED BY IDOCK:   -0.81 KCAL/MOL
REMARK 923 INTER-LIGAND FREE ENERGY PREDICTED BY IDOCK:   -0.81 KCAL/MOL
REMARK 924 INTRA-LIGAND FREE ENERGY PREDICTED BY IDOCK:    0.00 KCAL/MOL
REMARK 927      BINDING AFFINITY PREDICTED BY RF-SCORE:    0.00 PKD
ROOT
HETATM    1  N   UNL     1      -9.009  10.360  68.186  1.00  0.00    -0.130 NA 
HETATM    2  C   UNL     1      -8.011  11.366  68.551  1.00  0.00    -0.143 C  
HETATM    3  H2  UNL     1      -9.377   9.883  69.009  1.00  0.00     0.000 HD 
HETATM    4  H1  UNL     1      -9.757  10.764  67.622  1.00  0.00     0.000 HD 
ENDROOT
BRANCH   2   5
HETATM    5  C   UNL     1      -6.884  10.757  69.401  1.00  0.00    -0.109 C  
HETATM    6  N   UNL     1      -7.401  10.170  70.637  1.00  0.00    -0.424 NA 
HETATM    7  H2  UNL     1      -8.136   9.488  70.448  1.00  0.00     0.000 HD 
HETATM    8  H1  UNL     1      -6.653   9.766  71.202  1.00  0.00     0.000 HD 
ENDBRANCH   2   5
TORSDOF 1
ENDMDL
MODEL      132
REMARK 921   NORMALIZED FREE ENERGY PREDICTED BY IDOCK:   -0.75 KCAL/MOL
REMARK 922        TOTAL FREE ENERGY PREDICTED BY IDOCK:   -0.80 KCAL/MOL
REMARK 923 INTER-LIGAND FREE ENERGY PREDICTED BY IDOCK:   -0.80 KCAL/MOL
REMARK 924 INTRA-LIGAND FREE ENERGY PREDICTED BY IDOCK:    0.00 KCAL/MOL
REMARK 927      BINDING AFFINITY PREDICTED BY RF-SCORE:    0.00 PKD
ROOT
HETATM    1  N   UNL     1     -10.802   6.276  72.069  1.00  0.00    -0.235 NA 
HETATM    2  C   UNL     1      -9.947   5.108  72.280  1.00  0.00    -0.180 C  
HETATM    3  H2  UNL     1     -10.455   7.090  72.576  1.00  0.00     0.000 HD 
HETATM    4  H1  UNL     1     -10.921   6.478  71.075  1.00  0.00     0.000 HD 
ENDROOT
BRANCH   2   5
HETATM    5  C   UNL     1      -9.768   4.805  73.777  1.00  0.00    -0.134 C  
HETATM    6  N   UNL     1     -11.026   4.382  74.392  1.00  0.00    -0.249 NA 
HETATM    7  H2  UNL     1     -11.437   3.590  73.898  1.00  0.00     0.000 HD 
HETATM    8  H1  UNL     1     -10.908   4.181  75.386  1.00  0.00     0.000 HD 
ENDBRANCH   2   5
TORSDOF 1
ENDMDL
MODEL      133
REMARK 921   NORMALIZED FREE ENERGY PREDICTED BY IDOCK:   -0.75 KCAL/MOL
REMARK 922        TOTAL FREE ENERGY PREDICTED BY IDOCK:   -0.79 KCAL/MOL
REMARK 923 INTER-LIGAND FREE ENERGY PREDICTED BY IDOCK:   -0.79 KCAL/MOL
REMARK 924 INTRA-LIGAND FREE ENERGY PREDICTED BY IDOCK:    0.00 KCAL/MOL
REMARK 927      BINDING AFFINITY PREDICTED BY RF-SCORE:    0.00 PKD
ROOT
HETATM    1  N   UNL     1      -8.856   6.794  68.382  1.00  0.00    -0.123 NA 
HETATM    2  C   UNL     1      -8.947   8.253  68.354  1.00  0.00    -0.136 C  
HETATM    3  H2  UNL     1      -9.423   6.398  69.132  1.00  0.00     0.000 HD 
HETATM    4  H1  UNL     1      -9.097   6.387  67.477  1.00  0.00     0.000 HD 
ENDROOT
BRANCH   2   5
HETATM    5  C   UNL     1      -8.584   8.866  69.716  1.00  0.00    -0.134 C  
HETATM    6  N   UNL     1      -9.072  10.240  69.833  1.00  0.00    -0.400 NA 
HETATM    7  H2  UNL     1     -10.075  10.298  69.654  1.00  0.00     0.000 HD 
HETATM    8  H1  UNL     1      -8.831  10.647  70.738  1.00  0.00     0.000 HD 
ENDBRANCH   2   5
TORSDOF 1
ENDMDL
MODEL      134
REMARK 921   NORMALIZED FREE ENERGY PREDICTED BY IDOCK:   -0.74 KCAL/MOL
REMARK 922        TOTAL FREE ENERGY PREDICTED BY IDOCK:   -0.79 KCAL/MOL
REMARK 923 INTER-LIGAND FREE ENERGY PREDICTED BY IDOCK:   -0.79 KCAL/MOL
REMARK 924 INTRA-LIGAND FREE ENERGY PREDICTED BY IDOCK:    0.00 KCAL/MOL
REMARK 927      BINDING AFFINITY PREDICTED BY RF-SCORE:    0.00 PKD
ROOT
HETATM    1  N   UNL     1     -10.738   5.633  69.587  1.00  0.00    -0.335 NA 
HETATM    2  C   UNL     1      -9.696   4.637  69.334  1.00  0.00    -0.202 C  
HETATM    3  H2  UNL     1     -10.382   6.414  70.139  1.00  0.00     0.000 HD 
HETATM    4  H1  UNL     1     -11.166   5.955  68.718  1.00  0.00     0.000 HD 
ENDROOT
BRANCH   2   5
HETATM    5  C   UNL     1      -9.051   4.153  70.642  1.00  0.00    -0.111 C  
HETATM    6  N   UNL     1      -9.233   5.124  71.722  1.00  0.00    -0.140 NA 
HETATM    7  H2  UNL     1     -10.218   5.355  71.854  1.00  0.00     0.000 HD 
HETATM    8  H1  UNL     1      -8.804   4.803  72.590  1.00  0.00     0.000 HD 
ENDBRANCH   2   5
TORSDOF 1
ENDMDL
MODEL      135
REMARK 921   NORMALIZED FREE ENERGY PREDICTED BY IDOCK:   -0.73 KCAL/MOL
REMARK 922        TOTAL FREE ENERGY PREDICTED BY IDOCK:   -0.77 KCAL/MOL
REMARK 923 INTER-LIGAND FREE ENERGY PREDICTED BY IDOCK:   -0.77 KCAL/MOL
REMARK 924 INTRA-LIGAND FREE ENERGY PREDICTED BY IDOCK:    0.00 KCAL/MOL
REMARK 927      BINDING AFFINITY PREDICTED BY RF-SCORE:    0.00 PKD
ROOT
HETATM    1  N   UNL     1      -9.830   7.057  72.060  1.00  0.00    -0.160 NA 
HETATM    2  C   UNL     1      -9.231   7.050  70.725  1.00  0.00    -0.157 C  
HETATM    3  H2  UNL     1     -10.783   7.420  72.039  1.00  0.00     0.000 HD 
HETATM    4  H1  UNL     1      -9.791   6.133  72.492  1.00  0.00     0.000 HD 
ENDROOT
BRANCH   2   5
HETATM    5  C   UNL     1      -9.290   8.441  70.074  1.00  0.00    -0.159 C  
HETATM    6  N   UNL     1     -10.044   9.387  70.897  1.00  0.00    -0.296 NA 
HETATM    7  H2  UNL     1      -9.673   9.434  71.846  1.00  0.00     0.000 HD 
HETATM    8  H1  UNL     1     -10.083  10.310  70.465  1.00  0.00     0.000 HD 
ENDBRANCH   2   5
TORSDOF 1
ENDMDL
MODEL      136
REMARK 921   NORMALIZED FREE ENERGY PREDICTED BY IDOCK:   -0.70 KCAL/MOL
REMARK 922        TOTAL FREE ENERGY PREDICTED BY IDOCK:   -0.74 KCAL/MOL
REMARK 923 INTER-LIGAND FREE ENERGY PREDICTED BY IDOCK:   -0.74 KCAL/MOL
REMARK 924 INTRA-LIGAND FREE ENERGY PREDICTED BY IDOCK:    0.00 KCAL/MOL
REMARK 927      BINDING AFFINITY PREDICTED BY RF-SCORE:    0.00 PKD
ROOT
HETATM    1  N   UNL     1      -6.827   9.771  67.707  1.00  0.00    -0.080 NA 
HETATM    2  C   UNL     1      -7.166  10.690  68.793  1.00  0.00    -0.087 C  
HETATM    3  H2  UNL     1      -7.650   9.518  67.160  1.00  0.00     0.000 HD 
HETATM    4  H1  UNL     1      -6.087  10.148  67.114  1.00  0.00     0.000 HD 
ENDROOT
BRANCH   2   5
HETATM    5  C   UNL     1      -8.282  10.121  69.685  1.00  0.00    -0.165 C  
HETATM    6  N   UNL     1      -9.509  10.910  69.579  1.00  0.00    -0.410 NA 
HETATM    7  H2  UNL     1      -9.814  10.998  68.609  1.00  0.00     0.000 HD 
HETATM    8  H1  UNL     1     -10.249  10.533  70.171  1.00  0.00     0.000 HD 
ENDBRANCH   2   5
TORSDOF 1
ENDMDL
MODEL      137
REMARK 921   NORMALIZED FREE ENERGY PREDICTED BY IDOCK:   -0.70 KCAL/MOL
REMARK 922        TOTAL FREE ENERGY PREDICTED BY IDOCK:   -0.74 KCAL/MOL
REMARK 923 INTER-LIGAND FREE ENERGY PREDICTED BY IDOCK:   -0.74 KCAL/MOL
REMARK 924 INTRA-LIGAND FREE ENERGY PREDICTED BY IDOCK:    0.00 KCAL/MOL
REMARK 927      BINDING AFFINITY PREDICTED BY RF-SCORE:    0.00 PKD
ROOT
HETATM    1  N   UNL     1      -8.212   9.212  68.730  1.00  0.00    -0.108 NA 
HETATM    2  C   UNL     1      -9.423   9.629  69.438  1.00  0.00    -0.192 C  
HETATM    3  H2  UNL     1      -8.410   8.982  67.756  1.00  0.00     0.000 HD 
HETATM    4  H1  UNL     1      -7.475   9.913  68.805  1.00  0.00     0.000 HD 
ENDROOT
BRANCH   2   5
HETATM    5  C   UNL     1     -10.534   8.572  69.323  1.00  0.00    -0.215 C  
HETATM    6  N   UNL     1     -10.561   7.694  70.493  1.00  0.00    -0.222 NA 
HETATM    7  H2  UNL     1     -10.640   8.226  71.359  1.00  0.00     0.000 HD 
HETATM    8  H1  UNL     1     -11.298   6.992  70.417  1.00  0.00     0.000 HD 
ENDBRANCH   2   5
TORSDOF 1
ENDMDL
MODEL      138
REMARK 921   NORMALIZED FREE ENERGY PREDICTED BY IDOCK:   -0.69 KCAL/MOL
REMARK 922        TOTAL FREE ENERGY PREDICTED BY IDOCK:   -0.73 KCAL/MOL
REMARK 923 INTER-LIGAND FREE ENERGY PREDICTED BY IDOCK:   -0.73 KCAL/MOL
REMARK 924 INTRA-LIGAND FREE ENERGY PREDICTED BY IDOCK:    0.00 KCAL/MOL
REMARK 927      BINDING AFFINITY PREDICTED BY RF-SCORE:    0.00 PKD
ROOT
HETATM    1  N   UNL     1      -9.652   6.846  66.060  1.00  0.00    -0.399 NA 
HETATM    2  C   UNL     1      -8.294   6.789  65.518  1.00  0.00    -0.142 C  
HETATM    3  H2  UNL     1     -10.119   7.716  65.805  1.00  0.00     0.000 HD 
HETATM    4  H1  UNL     1     -10.200   6.032  65.781  1.00  0.00     0.000 HD 
ENDROOT
BRANCH   2   5
HETATM    5  C   UNL     1      -7.468   8.016  65.938  1.00  0.00    -0.081 C  
HETATM    6  N   UNL     1      -8.311   9.049  66.540  1.00  0.00    -0.114 NA 
HETATM    7  H2  UNL     1      -8.855   8.680  67.320  1.00  0.00     0.000 HD 
HETATM    8  H1  UNL     1      -7.763   9.864  66.819  1.00  0.00     0.000 HD 
ENDBRANCH   2   5
TORSDOF 1
ENDMDL
MODEL      139
REMARK 921   NORMALIZED FREE ENERGY PREDICTED BY IDOCK:   -0.69 KCAL/MOL
REMARK 922        TOTAL FREE ENERGY PREDICTED BY IDOCK:   -0.73 KCAL/MOL
REMARK 923 INTER-LIGAND FREE ENERGY PREDICTED BY IDOCK:   -0.73 KCAL/MOL
REMARK 924 INTRA-LIGAND FREE ENERGY PREDICTED BY IDOCK:    0.00 KCAL/MOL
REMARK 927      BINDING AFFINITY PREDICTED BY RF-SCORE:    0.00 PKD
ROOT
HETATM    1  N   UNL     1     -10.219   4.418  63.193  1.00  0.00    -0.393 NA 
HETATM    2  C   UNL     1      -9.608   4.213  64.506  1.00  0.00    -0.168 C  
HETATM    3  H2  UNL     1     -10.231   3.556  62.648  1.00  0.00     0.000 HD 
HETATM    4  H1  UNL     1     -11.153   4.822  63.274  1.00  0.00     0.000 HD 
ENDROOT
BRANCH   2   5
HETATM    5  C   UNL     1      -8.201   3.606  64.384  1.00  0.00    -0.090 C  
HETATM    6  N   UNL     1      -7.901   2.719  65.508  1.00  0.00    -0.077 NA 
HETATM    7  H2  UNL     1      -8.612   1.995  65.613  1.00  0.00     0.000 HD 
HETATM    8  H1  UNL     1      -6.967   2.315  65.427  1.00  0.00     0.000 HD 
ENDBRANCH   2   5
TORSDOF 1
ENDMDL
MODEL      140
REMARK 921   NORMALIZED FREE ENERGY PREDICTED BY IDOCK:   -0.69 KCAL/MOL
REMARK 922        TOTAL FREE ENERGY PREDICTED BY IDOCK:   -0.73 KCAL/MOL
REMARK 923 INTER-LIGAND FREE ENERGY PREDICTED BY IDOCK:   -0.73 KCAL/MOL
REMARK 924 INTRA-LIGAND FREE ENERGY PREDICTED BY IDOCK:    0.00 KCAL/MOL
REMARK 927      BINDING AFFINITY PREDICTED BY RF-SCORE:    0.00 PKD
ROOT
HETATM    1  N   UNL     1      -8.774   8.727  72.441  1.00  0.00    -0.403 NA 
HETATM    2  C   UNL     1      -8.172   7.860  71.428  1.00  0.00    -0.107 C  
HETATM    3  H2  UNL     1      -8.124   8.919  73.203  1.00  0.00     0.000 HD 
HETATM    4  H1  UNL     1      -9.132   9.590  72.030  1.00  0.00     0.000 HD 
ENDROOT
BRANCH   2   5
HETATM    5  C   UNL     1      -7.633   6.560  72.049  1.00  0.00    -0.093 C  
HETATM    6  N   UNL     1      -8.559   6.017  73.043  1.00  0.00    -0.123 NA 
HETATM    7  H2  UNL     1      -9.492   5.885  72.652  1.00  0.00     0.000 HD 
HETATM    8  H1  UNL     1      -8.201   5.154  73.455  1.00  0.00     0.000 HD 
ENDBRANCH   2   5
TORSDOF 1
ENDMDL
MODEL      141
REMARK 921   NORMALIZED FREE ENERGY PREDICTED BY IDOCK:   -0.68 KCAL/MOL
REMARK 922        TOTAL FREE ENERGY PREDICTED BY IDOCK:   -0.72 KCAL/MOL
REMARK 923 INTER-LIGAND FREE ENERGY PREDICTED BY IDOCK:   -0.72 KCAL/MOL
REMARK 924 INTRA-LIGAND FREE ENERGY PREDICTED BY IDOCK:    0.00 KCAL/MOL
REMARK 927      BINDING AFFINITY PREDICTED BY RF-SCORE:    0.00 PKD
ROOT
HETATM    1  N   UNL     1      -7.477   7.594  62.712  1.00  0.00    -0.099 NA 
HETATM    2  C   UNL     1      -7.430   8.661  63.711  1.00  0.00    -0.116 C  
HETATM    3  H2  UNL     1      -8.377   7.113  62.721  1.00  0.00     0.000 HD 
HETATM    4  H1  UNL     1      -7.251   7.943  61.780  1.00  0.00     0.000 HD 
ENDROOT
BRANCH   2   5
HETATM    5  C   UNL     1      -7.772   8.135  65.114  1.00  0.00    -0.107 C  
HETATM    6  N   UNL     1      -9.216   8.140  65.352  1.00  0.00    -0.399 NA 
HETATM    7  H2  UNL     1      -9.716   7.624  64.628  1.00  0.00     0.000 HD 
HETATM    8  H1  UNL     1      -9.443   7.791  66.284  1.00  0.00     0.000 HD 
ENDBRANCH   2   5
TORSDOF 1
ENDMDL
MODEL      142
REMARK 921   NORMALIZED FREE ENERGY PREDICTED BY IDOCK:   -0.66 KCAL/MOL
REMARK 922        TOTAL FREE ENERGY PREDICTED BY IDOCK:   -0.70 KCAL/MOL
REMARK 923 INTER-LIGAND FREE ENERGY PREDICTED BY IDOCK:   -0.70 KCAL/MOL
REMARK 924 INTRA-LIGAND FREE ENERGY PREDICTED BY IDOCK:    0.00 KCAL/MOL
REMARK 927      BINDING AFFINITY PREDICTED BY RF-SCORE:    0.00 PKD
ROOT
HETATM    1  N   UNL     1      -7.460   5.829  70.916  1.00  0.00    -0.088 NA 
HETATM    2  C   UNL     1      -8.769   6.400  70.601  1.00  0.00    -0.144 C  
HETATM    3  H2  UNL     1      -7.434   4.827  70.728  1.00  0.00     0.000 HD 
HETATM    4  H1  UNL     1      -6.710   6.320  70.427  1.00  0.00     0.000 HD 
ENDROOT
BRANCH   2   5
HETATM    5  C   UNL     1      -9.898   5.661  71.338  1.00  0.00    -0.173 C  
HETATM    6  N   UNL     1     -11.210   5.997  70.785  1.00  0.00    -0.295 NA 
HETATM    7  H2  UNL     1     -11.246   5.826  69.780  1.00  0.00     0.000 HD 
HETATM    8  H1  UNL     1     -11.959   5.506  71.274  1.00  0.00     0.000 HD 
ENDBRANCH   2   5
TORSDOF 1
ENDMDL
MODEL      143
REMARK 921   NORMALIZED FREE ENERGY PREDICTED BY IDOCK:   -0.64 KCAL/MOL
REMARK 922        TOTAL FREE ENERGY PREDICTED BY IDOCK:   -0.68 KCAL/MOL
REMARK 923 INTER-LIGAND FREE ENERGY PREDICTED BY IDOCK:   -0.68 KCAL/MOL
REMARK 924 INTRA-LIGAND FREE ENERGY PREDICTED BY IDOCK:    0.00 KCAL/MOL
REMARK 927      BINDING AFFINITY PREDICTED BY RF-SCORE:    0.00 PKD
ROOT
HETATM    1  N   UNL     1      -9.138   8.365  65.061  1.00  0.00    -0.400 NA 
HETATM    2  C   UNL     1      -8.130   8.194  64.015  1.00  0.00    -0.122 C  
HETATM    3  H2  UNL     1      -9.488   9.323  65.090  1.00  0.00     0.000 HD 
HETATM    4  H1  UNL     1      -9.899   7.692  64.961  1.00  0.00     0.000 HD 
ENDROOT
BRANCH   2   5
HETATM    5  C   UNL     1      -6.984   9.208  64.166  1.00  0.00    -0.092 C  
HETATM    6  N   UNL     1      -6.395   9.155  65.504  1.00  0.00    -0.066 NA 
HETATM    7  H2  UNL     1      -6.091   8.210  65.742  1.00  0.00     0.000 HD 
HETATM    8  H1  UNL     1      -5.634   9.828  65.605  1.00  0.00     0.000 HD 
ENDBRANCH   2   5
TORSDOF 1
ENDMDL
MODEL      144
REMARK 921   NORMALIZED FREE ENERGY PREDICTED BY IDOCK:   -0.63 KCAL/MOL
REMARK 922        TOTAL FREE ENERGY PREDICTED BY IDOCK:   -0.67 KCAL/MOL
REMARK 923 INTER-LIGAND FREE ENERGY PREDICTED BY IDOCK:   -0.67 KCAL/MOL
REMARK 924 INTRA-LIGAND FREE ENERGY PREDICTED BY IDOCK:    0.00 KCAL/MOL
REMARK 927      BINDING AFFINITY PREDICTED BY RF-SCORE:    0.00 PKD
ROOT
HETATM    1  N   UNL     1     -10.108   5.095  71.813  1.00  0.00    -0.193 NA 
HETATM    2  C   UNL     1      -9.194   4.842  70.699  1.00  0.00    -0.136 C  
HETATM    3  H2  UNL     1     -11.067   5.221  71.489  1.00  0.00     0.000 HD 
HETATM    4  H1  UNL     1     -10.046   4.363  72.521  1.00  0.00     0.000 HD 
ENDROOT
BRANCH   2   5
HETATM    5  C   UNL     1      -9.287   5.946  69.633  1.00  0.00    -0.140 C  
HETATM    6  N   UNL     1     -10.314   5.642  68.635  1.00  0.00    -0.201 NA 
HETATM    7  H2  UNL     1     -11.219   5.468  69.071  1.00  0.00     0.000 HD 
HETATM    8  H1  UNL     1     -10.375   6.375  67.927  1.00  0.00     0.000 HD 
ENDBRANCH   2   5
TORSDOF 1
ENDMDL
MODEL      145
REMARK 921   NORMALIZED FREE ENERGY PREDICTED BY IDOCK:   -0.63 KCAL/MOL
REMARK 922        TOTAL FREE ENERGY PREDICTED BY IDOCK:   -0.67 KCAL/MOL
REMARK 923 INTER-LIGAND FREE ENERGY PREDICTED BY IDOCK:   -0.67 KCAL/MOL
REMARK 924 INTRA-LIGAND FREE ENERGY PREDICTED BY IDOCK:    0.00 KCAL/MOL
REMARK 927      BINDING AFFINITY PREDICTED BY RF-SCORE:    0.00 PKD
ROOT
HETATM    1  N   UNL     1      -8.256   4.326  70.268  1.00  0.00    -0.061 NA 
HETATM    2  C   UNL     1      -9.167   4.712  69.190  1.00  0.00    -0.128 C  
HETATM    3  H2  UNL     1      -7.299   4.620  70.071  1.00  0.00     0.000 HD 
HETATM    4  H1  UNL     1      -8.576   4.675  71.171  1.00  0.00     0.000 HD 
ENDROOT
BRANCH   2   5
HETATM    5  C   UNL     1      -8.685   4.185  67.829  1.00  0.00    -0.107 C  
HETATM    6  N   UNL     1      -9.607   3.190  67.281  1.00  0.00    -0.371 NA 
HETATM    7  H2  UNL     1     -10.559   3.554  67.225  1.00  0.00     0.000 HD 
HETATM    8  H1  UNL     1      -9.287   2.840  66.378  1.00  0.00     0.000 HD 
ENDBRANCH   2   5
TORSDOF 1
ENDMDL
MODEL      146
REMARK 921   NORMALIZED FREE ENERGY PREDICTED BY IDOCK:   -0.61 KCAL/MOL
REMARK 922        TOTAL FREE ENERGY PREDICTED BY IDOCK:   -0.64 KCAL/MOL
REMARK 923 INTER-LIGAND FREE ENERGY PREDICTED BY IDOCK:   -0.64 KCAL/MOL
REMARK 924 INTRA-LIGAND FREE ENERGY PREDICTED BY IDOCK:    0.00 KCAL/MOL
REMARK 927      BINDING AFFINITY PREDICTED BY RF-SCORE:    0.00 PKD
ROOT
HETATM    1  N   UNL     1      -9.720   7.327  73.382  1.00  0.00    -0.223 NA 
HETATM    2  C   UNL     1      -9.355   7.155  71.975  1.00  0.00    -0.137 C  
HETATM    3  H2  UNL     1      -8.912   7.211  73.994  1.00  0.00     0.000 HD 
HETATM    4  H1  UNL     1     -10.184   8.221  73.542  1.00  0.00     0.000 HD 
ENDROOT
BRANCH   2   5
HETATM    5  C   UNL     1      -8.656   5.807  71.735  1.00  0.00    -0.131 C  
HETATM    6  N   UNL     1      -9.618   4.707  71.677  1.00  0.00    -0.153 NA 
HETATM    7  H2  UNL     1     -10.343   4.881  70.980  1.00  0.00     0.000 HD 
HETATM    8  H1  UNL     1      -9.154   3.812  71.518  1.00  0.00     0.000 HD 
ENDBRANCH   2   5
TORSDOF 1
ENDMDL
MODEL      147
REMARK 921   NORMALIZED FREE ENERGY PREDICTED BY IDOCK:   -0.60 KCAL/MOL
REMARK 922        TOTAL FREE ENERGY PREDICTED BY IDOCK:   -0.64 KCAL/MOL
REMARK 923 INTER-LIGAND FREE ENERGY PREDICTED BY IDOCK:   -0.64 KCAL/MOL
REMARK 924 INTRA-LIGAND FREE ENERGY PREDICTED BY IDOCK:    0.00 KCAL/MOL
REMARK 927      BINDING AFFINITY PREDICTED BY RF-SCORE:    0.00 PKD
ROOT
HETATM    1  N   UNL     1      -7.368  10.966  70.134  1.00  0.00    -0.433 NA 
HETATM    2  C   UNL     1      -6.546   9.763  70.001  1.00  0.00    -0.081 C  
HETATM    3  H2  UNL     1      -8.356  10.761  69.984  1.00  0.00     0.000 HD 
HETATM    4  H1  UNL     1      -7.215  11.426  71.032  1.00  0.00     0.000 HD 
ENDROOT
BRANCH   2   5
HETATM    5  C   UNL     1      -6.778   9.070  68.649  1.00  0.00    -0.058 C  
HETATM    6  N   UNL     1      -7.030   7.638  68.816  1.00  0.00    -0.069 NA 
HETATM    7  H2  UNL     1      -7.803   7.468  69.460  1.00  0.00     0.000 HD 
HETATM    8  H1  UNL     1      -7.184   7.178  67.919  1.00  0.00     0.000 HD 
ENDBRANCH   2   5
TORSDOF 1
ENDMDL
MODEL      148
REMARK 921   NORMALIZED FREE ENERGY PREDICTED BY IDOCK:   -0.59 KCAL/MOL
REMARK 922        TOTAL FREE ENERGY PREDICTED BY IDOCK:   -0.62 KCAL/MOL
REMARK 923 INTER-LIGAND FREE ENERGY PREDICTED BY IDOCK:   -0.62 KCAL/MOL
REMARK 924 INTRA-LIGAND FREE ENERGY PREDICTED BY IDOCK:    0.00 KCAL/MOL
REMARK 927      BINDING AFFINITY PREDICTED BY RF-SCORE:    0.00 PKD
ROOT
HETATM    1  N   UNL     1      -6.503  11.284  66.066  1.00  0.00    -0.369 NA 
HETATM    2  C   UNL     1      -7.255  10.384  66.942  1.00  0.00    -0.099 C  
HETATM    3  H2  UNL     1      -6.829  11.223  65.101  1.00  0.00     0.000 HD 
HETATM    4  H1  UNL     1      -6.527  12.245  66.408  1.00  0.00     0.000 HD 
ENDROOT
BRANCH   2   5
HETATM    5  C   UNL     1      -7.219   8.937  66.426  1.00  0.00    -0.084 C  
HETATM    6  N   UNL     1      -6.846   7.999  67.485  1.00  0.00    -0.069 NA 
HETATM    7  H2  UNL     1      -7.456   8.091  68.298  1.00  0.00     0.000 HD 
HETATM    8  H1  UNL     1      -6.822   7.038  67.143  1.00  0.00     0.000 HD 
ENDBRANCH   2   5
TORSDOF 1
ENDMDL
MODEL      149
REMARK 921   NORMALIZED FREE ENERGY PREDICTED BY IDOCK:   -0.56 KCAL/MOL
REMARK 922        TOTAL FREE ENERGY PREDICTED BY IDOCK:   -0.60 KCAL/MOL
REMARK 923 INTER-LIGAND FREE ENERGY PREDICTED BY IDOCK:   -0.60 KCAL/MOL
REMARK 924 INTRA-LIGAND FREE ENERGY PREDICTED BY IDOCK:    0.00 KCAL/MOL
REMARK 927      BINDING AFFINITY PREDICTED BY RF-SCORE:    0.00 PKD
ROOT
HETATM    1  N   UNL     1      -9.233   5.032  64.048  1.00  0.00    -0.358 NA 
HETATM    2  C   UNL     1      -8.529   5.690  65.149  1.00  0.00    -0.144 C  
HETATM    3  H2  UNL     1      -8.962   4.052  63.964  1.00  0.00     0.000 HD 
HETATM    4  H1  UNL     1     -10.244   5.134  64.137  1.00  0.00     0.000 HD 
ENDROOT
BRANCH   2   5
HETATM    5  C   UNL     1      -7.005   5.536  65.015  1.00  0.00    -0.053 C  
HETATM    6  N   UNL     1      -6.315   6.801  65.269  1.00  0.00    -0.041 NA 
HETATM    7  H2  UNL     1      -6.572   7.192  66.176  1.00  0.00     0.000 HD 
HETATM    8  H1  UNL     1      -5.303   6.699  65.180  1.00  0.00     0.000 HD 
ENDBRANCH   2   5
TORSDOF 1
ENDMDL
MODEL      150
REMARK 921   NORMALIZED FREE ENERGY PREDICTED BY IDOCK:   -0.55 KCAL/MOL
REMARK 922        TOTAL FREE ENERGY PREDICTED BY IDOCK:   -0.59 KCAL/MOL
REMARK 923 INTER-LIGAND FREE ENERGY PREDICTED BY IDOCK:   -0.59 KCAL/MOL
REMARK 924 INTRA-LIGAND FREE ENERGY PREDICTED BY IDOCK:    0.00 KCAL/MOL
REMARK 927      BINDING AFFINITY PREDICTED BY RF-SCORE:    0.00 PKD
ROOT
HETATM    1  N   UNL     1      -8.665   4.278  67.325  1.00  0.00    -0.104 NA 
HETATM    2  C   UNL     1      -8.358   5.407  68.203  1.00  0.00    -0.098 C  
HETATM    3  H2  UNL     1      -9.667   4.092  67.293  1.00  0.00     0.000 HD 
HETATM    4  H1  UNL     1      -8.281   4.416  66.390  1.00  0.00     0.000 HD 
ENDROOT
BRANCH   2   5
HETATM    5  C   UNL     1      -8.936   5.198  69.612  1.00  0.00    -0.106 C  
HETATM    6  N   UNL     1     -10.398   5.270  69.608  1.00  0.00    -0.278 NA 
HETATM    7  H2  UNL     1     -10.802   4.615  68.937  1.00  0.00     0.000 HD 
HETATM    8  H1  UNL     1     -10.782   5.132  70.543  1.00  0.00     0.000 HD 
ENDBRANCH   2   5
TORSDOF 1
ENDMDL
MODEL      151
REMARK 921   NORMALIZED FREE ENERGY PREDICTED BY IDOCK:   -0.54 KCAL/MOL
REMARK 922        TOTAL FREE ENERGY PREDICTED BY IDOCK:   -0.58 KCAL/MOL
REMARK 923 INTER-LIGAND FREE ENERGY PREDICTED BY IDOCK:   -0.58 KCAL/MOL
REMARK 924 INTRA-LIGAND FREE ENERGY PREDICTED BY IDOCK:    0.00 KCAL/MOL
REMARK 927      BINDING AFFINITY PREDICTED BY RF-SCORE:    0.00 PKD
ROOT
HETATM    1  N   UNL     1      -5.565   6.618  73.123  1.00  0.00    -0.038 NA 
HETATM    2  C   UNL     1      -6.495   7.598  72.562  1.00  0.00    -0.060 C  
HETATM    3  H2  UNL     1      -5.917   5.666  73.016  1.00  0.00     0.000 HD 
HETATM    4  H1  UNL     1      -4.631   6.718  72.724  1.00  0.00     0.000 HD 
ENDROOT
BRANCH   2   5
HETATM    5  C   UNL     1      -7.902   7.447  73.163  1.00  0.00    -0.096 C  
HETATM    6  N   UNL     1      -8.724   8.630  72.907  1.00  0.00    -0.381 NA 
HETATM    7  H2  UNL     1      -8.765   8.849  71.912  1.00  0.00     0.000 HD 
HETATM    8  H1  UNL     1      -9.658   8.530  73.306  1.00  0.00     0.000 HD 
ENDBRANCH   2   5
TORSDOF 1
ENDMDL
MODEL      152
REMARK 921   NORMALIZED FREE ENERGY PREDICTED BY IDOCK:   -0.54 KCAL/MOL
REMARK 922        TOTAL FREE ENERGY PREDICTED BY IDOCK:   -0.57 KCAL/MOL
REMARK 923 INTER-LIGAND FREE ENERGY PREDICTED BY IDOCK:   -0.57 KCAL/MOL
REMARK 924 INTRA-LIGAND FREE ENERGY PREDICTED BY IDOCK:    0.00 KCAL/MOL
REMARK 927      BINDING AFFINITY PREDICTED BY RF-SCORE:    0.00 PKD
ROOT
HETATM    1  N   UNL     1      -8.894   4.999  73.563  1.00  0.00    -0.116 NA 
HETATM    2  C   UNL     1      -8.844   4.021  72.476  1.00  0.00    -0.106 C  
HETATM    3  H2  UNL     1      -9.708   5.607  73.482  1.00  0.00     0.000 HD 
HETATM    4  H1  UNL     1      -8.856   4.545  74.476  1.00  0.00     0.000 HD 
ENDROOT
BRANCH   2   5
HETATM    5  C   UNL     1      -8.901   4.706  71.100  1.00  0.00    -0.118 C  
HETATM    6  N   UNL     1     -10.280   4.952  70.680  1.00  0.00    -0.234 NA 
HETATM    7  H2  UNL     1     -10.796   5.482  71.382  1.00  0.00     0.000 HD 
HETATM    8  H1  UNL     1     -10.318   5.406  69.767  1.00  0.00     0.000 HD 
ENDBRANCH   2   5
TORSDOF 1
ENDMDL
MODEL      153
REMARK 921   NORMALIZED FREE ENERGY PREDICTED BY IDOCK:   -0.54 KCAL/MOL
REMARK 922        TOTAL FREE ENERGY PREDICTED BY IDOCK:   -0.57 KCAL/MOL
REMARK 923 INTER-LIGAND FREE ENERGY PREDICTED BY IDOCK:   -0.57 KCAL/MOL
REMARK 924 INTRA-LIGAND FREE ENERGY PREDICTED BY IDOCK:    0.00 KCAL/MOL
REMARK 927      BINDING AFFINITY PREDICTED BY RF-SCORE:    0.00 PKD
ROOT
HETATM    1  N   UNL     1      -9.869   3.793  66.994  1.00  0.00    -0.327 NA 
HETATM    2  C   UNL     1      -8.536   3.970  67.572  1.00  0.00    -0.101 C  
HETATM    3  H2  UNL     1     -10.089   2.807  66.857  1.00  0.00     0.000 HD 
HETATM    4  H1  UNL     1     -10.583   4.261  67.552  1.00  0.00     0.000 HD 
ENDROOT
BRANCH   2   5
HETATM    5  C   UNL     1      -7.460   3.265  66.731  1.00  0.00    -0.075 C  
HETATM    6  N   UNL     1      -7.274   3.922  65.438  1.00  0.00    -0.066 NA 
HETATM    7  H2  UNL     1      -7.070   4.915  65.549  1.00  0.00     0.000 HD 
HETATM    8  H1  UNL     1      -6.560   3.454  64.879  1.00  0.00     0.000 HD 
ENDBRANCH   2   5
TORSDOF 1
ENDMDL
MODEL      154
REMARK 921   NORMALIZED FREE ENERGY PREDICTED BY IDOCK:   -0.52 KCAL/MOL
REMARK 922        TOTAL FREE ENERGY PREDICTED BY IDOCK:   -0.55 KCAL/MOL
REMARK 923 INTER-LIGAND FREE ENERGY PREDICTED BY IDOCK:   -0.55 KCAL/MOL
REMARK 924 INTRA-LIGAND FREE ENERGY PREDICTED BY IDOCK:    0.00 KCAL/MOL
REMARK 927      BINDING AFFINITY PREDICTED BY RF-SCORE:    0.00 PKD
ROOT
HETATM    1  N   UNL     1      -9.195   5.742  65.699  1.00  0.00    -0.328 NA 
HETATM    2  C   UNL     1      -8.510   6.453  66.778  1.00  0.00    -0.112 C  
HETATM    3  H2  UNL     1      -8.899   4.768  65.646  1.00  0.00     0.000 HD 
HETATM    4  H1  UNL     1     -10.209   5.820  65.785  1.00  0.00     0.000 HD 
ENDROOT
BRANCH   2   5
HETATM    5  C   UNL     1      -6.982   6.336  66.648  1.00  0.00    -0.067 C  
HETATM    6  N   UNL     1      -6.428   5.422  67.647  1.00  0.00    -0.046 NA 
HETATM    7  H2  UNL     1      -6.877   4.507  67.606  1.00  0.00     0.000 HD 
HETATM    8  H1  UNL     1      -5.414   5.344  67.561  1.00  0.00     0.000 HD 
ENDBRANCH   2   5
TORSDOF 1
ENDMDL
MODEL      155
REMARK 921   NORMALIZED FREE ENERGY PREDICTED BY IDOCK:   -0.51 KCAL/MOL
REMARK 922        TOTAL FREE ENERGY PREDICTED BY IDOCK:   -0.54 KCAL/MOL
REMARK 923 INTER-LIGAND FREE ENERGY PREDICTED BY IDOCK:   -0.54 KCAL/MOL
REMARK 924 INTRA-LIGAND FREE ENERGY PREDICTED BY IDOCK:    0.00 KCAL/MOL
REMARK 927      BINDING AFFINITY PREDICTED BY RF-SCORE:    0.00 PKD
ROOT
HETATM    1  N   UNL     1      -9.738   7.688  68.611  1.00  0.00    -0.153 NA 
HETATM    2  C   UNL     1      -8.987   6.463  68.339  1.00  0.00    -0.120 C  
HETATM    3  H2  UNL     1     -10.745   7.523  68.585  1.00  0.00     0.000 HD 
HETATM    4  H1  UNL     1      -9.453   8.114  69.494  1.00  0.00     0.000 HD 
ENDROOT
BRANCH   2   5
HETATM    5  C   UNL     1      -9.418   5.822  67.010  1.00  0.00    -0.124 C  
HETATM    6  N   UNL     1      -8.541   6.226  65.911  1.00  0.00    -0.145 NA 
HETATM    7  H2  UNL     1      -7.562   6.027  66.121  1.00  0.00     0.000 HD 
HETATM    8  H1  UNL     1      -8.826   5.801  65.028  1.00  0.00     0.000 HD 
ENDBRANCH   2   5
TORSDOF 1
ENDMDL
MODEL      156
REMARK 921   NORMALIZED FREE ENERGY PREDICTED BY IDOCK:   -0.50 KCAL/MOL
REMARK 922        TOTAL FREE ENERGY PREDICTED BY IDOCK:   -0.53 KCAL/MOL
REMARK 923 INTER-LIGAND FREE ENERGY PREDICTED BY IDOCK:   -0.53 KCAL/MOL
REMARK 924 INTRA-LIGAND FREE ENERGY PREDICTED BY IDOCK:    0.00 KCAL/MOL
REMARK 927      BINDING AFFINITY PREDICTED BY RF-SCORE:    0.00 PKD
ROOT
HETATM    1  N   UNL     1      -8.743   8.555  70.568  1.00  0.00    -0.143 NA 
HETATM    2  C   UNL     1      -8.948   9.002  69.190  1.00  0.00    -0.140 C  
HETATM    3  H2  UNL     1      -7.754   8.418  70.773  1.00  0.00     0.000 HD 
HETATM    4  H1  UNL     1      -9.178   9.191  71.237  1.00  0.00     0.000 HD 
ENDROOT
BRANCH   2   5
HETATM    5  C   UNL     1      -8.293   8.042  68.184  1.00  0.00    -0.127 C  
HETATM    6  N   UNL     1      -7.964   6.758  68.803  1.00  0.00    -0.117 NA 
HETATM    7  H2  UNL     1      -8.782   6.335  69.243  1.00  0.00     0.000 HD 
HETATM    8  H1  UNL     1      -7.529   6.121  68.135  1.00  0.00     0.000 HD 
ENDBRANCH   2   5
TORSDOF 1
ENDMDL
MODEL      157
REMARK 921   NORMALIZED FREE ENERGY PREDICTED BY IDOCK:   -0.47 KCAL/MOL
REMARK 922        TOTAL FREE ENERGY PREDICTED BY IDOCK:   -0.50 KCAL/MOL
REMARK 923 INTER-LIGAND FREE ENERGY PREDICTED BY IDOCK:   -0.50 KCAL/MOL
REMARK 924 INTRA-LIGAND FREE ENERGY PREDICTED BY IDOCK:    0.00 KCAL/MOL
REMARK 927      BINDING AFFINITY PREDICTED BY RF-SCORE:    0.00 PKD
ROOT
HETATM    1  N   UNL     1      -9.050   5.274  70.826  1.00  0.00    -0.134 NA 
HETATM    2  C   UNL     1      -9.264   6.093  69.633  1.00  0.00    -0.143 C  
HETATM    3  H2  UNL     1      -8.264   5.615  71.377  1.00  0.00     0.000 HD 
HETATM    4  H1  UNL     1      -9.899   5.204  71.388  1.00  0.00     0.000 HD 
ENDROOT
BRANCH   2   5
HETATM    5  C   UNL     1      -7.986   6.197  68.785  1.00  0.00    -0.101 C  
HETATM    6  N   UNL     1      -7.907   7.482  68.089  1.00  0.00    -0.120 NA 
HETATM    7  H2  UNL     1      -7.989   8.264  68.739  1.00  0.00     0.000 HD 
HETATM    8  H1  UNL     1      -7.058   7.551  67.526  1.00  0.00     0.000 HD 
ENDBRANCH   2   5
TORSDOF 1
ENDMDL
MODEL      158
REMARK 921   NORMALIZED FREE ENERGY PREDICTED BY IDOCK:   -0.45 KCAL/MOL
REMARK 922        TOTAL FREE ENERGY PREDICTED BY IDOCK:   -0.48 KCAL/MOL
REMARK 923 INTER-LIGAND FREE ENERGY PREDICTED BY IDOCK:   -0.48 KCAL/MOL
REMARK 924 INTRA-LIGAND FREE ENERGY PREDICTED BY IDOCK:    0.00 KCAL/MOL
REMARK 927      BINDING AFFINITY PREDICTED BY RF-SCORE:    0.00 PKD
ROOT
HETATM    1  N   UNL     1      -9.704   2.750  71.484  1.00  0.00    -0.155 NA 
HETATM    2  C   UNL     1      -9.665   4.063  72.129  1.00  0.00    -0.157 C  
HETATM    3  H2  UNL     1     -10.301   2.101  71.996  1.00  0.00     0.000 HD 
HETATM    4  H1  UNL     1      -9.983   2.822  70.505  1.00  0.00     0.000 HD 
ENDROOT
BRANCH   2   5
HETATM    5  C   UNL     1      -9.245   3.954  73.603  1.00  0.00    -0.096 C  
HETATM    6  N   UNL     1      -8.297   2.860  73.812  1.00  0.00    -0.072 NA 
HETATM    7  H2  UNL     1      -7.486   2.946  73.198  1.00  0.00     0.000 HD 
HETATM    8  H1  UNL     1      -8.018   2.787  74.791  1.00  0.00     0.000 HD 
ENDBRANCH   2   5
TORSDOF 1
ENDMDL
MODEL      159
REMARK 921   NORMALIZED FREE ENERGY PREDICTED BY IDOCK:   -0.40 KCAL/MOL
REMARK 922        TOTAL FREE ENERGY PREDICTED BY IDOCK:   -0.42 KCAL/MOL
REMARK 923 INTER-LIGAND FREE ENERGY PREDICTED BY IDOCK:   -0.42 KCAL/MOL
REMARK 924 INTRA-LIGAND FREE ENERGY PREDICTED BY IDOCK:    0.00 KCAL/MOL
REMARK 927      BINDING AFFINITY PREDICTED BY RF-SCORE:    0.00 PKD
ROOT
HETATM    1  N   UNL     1      -6.575   6.000  72.701  1.00  0.00    -0.066 NA 
HETATM    2  C   UNL     1      -7.704   6.779  72.193  1.00  0.00    -0.095 C  
HETATM    3  H2  UNL     1      -6.703   5.003  72.532  1.00  0.00     0.000 HD 
HETATM    4  H1  UNL     1      -5.689   6.332  72.319  1.00  0.00     0.000 HD 
ENDROOT
BRANCH   2   5
HETATM    5  C   UNL     1      -9.038   6.279  72.769  1.00  0.00    -0.131 C  
HETATM    6  N   UNL     1      -9.275   4.875  72.430  1.00  0.00    -0.132 NA 
HETATM    7  H2  UNL     1      -8.497   4.284  72.723  1.00  0.00     0.000 HD 
HETATM    8  H1  UNL     1     -10.161   4.542  72.812  1.00  0.00     0.000 HD 
ENDBRANCH   2   5
TORSDOF 1
ENDMDL
MODEL      160
REMARK 921   NORMALIZED FREE ENERGY PREDICTED BY IDOCK:   -0.36 KCAL/MOL
REMARK 922        TOTAL FREE ENERGY PREDICTED BY IDOCK:   -0.38 KCAL/MOL
REMARK 923 INTER-LIGAND FREE ENERGY PREDICTED BY IDOCK:   -0.38 KCAL/MOL
REMARK 924 INTRA-LIGAND FREE ENERGY PREDICTED BY IDOCK:    0.00 KCAL/MOL
REMARK 927      BINDING AFFINITY PREDICTED BY RF-SCORE:    0.00 PKD
ROOT
HETATM    1  N   UNL     1      -7.423   4.997  67.692  1.00  0.00    -0.078 NA 
HETATM    2  C   UNL     1      -7.408   6.246  68.454  1.00  0.00    -0.086 C  
HETATM    3  H2  UNL     1      -8.375   4.713  67.460  1.00  0.00     0.000 HD 
HETATM    4  H1  UNL     1      -6.839   5.061  66.857  1.00  0.00     0.000 HD 
ENDROOT
BRANCH   2   5
HETATM    5  C   UNL     1      -8.288   6.150  69.710  1.00  0.00    -0.124 C  
HETATM    6  N   UNL     1      -7.582   6.630  70.898  1.00  0.00    -0.087 NA 
HETATM    7  H2  UNL     1      -7.225   7.576  70.764  1.00  0.00     0.000 HD 
HETATM    8  H1  UNL     1      -8.166   6.566  71.732  1.00  0.00     0.000 HD 
ENDBRANCH   2   5
TORSDOF 1
ENDMDL
MODEL      161
REMARK 921   NORMALIZED FREE ENERGY PREDICTED BY IDOCK:   -0.33 KCAL/MOL
REMARK 922        TOTAL FREE ENERGY PREDICTED BY IDOCK:   -0.35 KCAL/MOL
REMARK 923 INTER-LIGAND FREE ENERGY PREDICTED BY IDOCK:   -0.35 KCAL/MOL
REMARK 924 INTRA-LIGAND FREE ENERGY PREDICTED BY IDOCK:    0.00 KCAL/MOL
REMARK 927      BINDING AFFINITY PREDICTED BY RF-SCORE:    0.00 PKD
ROOT
HETATM    1  N   UNL     1      -9.672   5.793  69.029  1.00  0.00    -0.133 NA 
HETATM    2  C   UNL     1      -8.267   5.739  68.622  1.00  0.00    -0.105 C  
HETATM    3  H2  UNL     1      -9.813   5.364  69.943  1.00  0.00     0.000 HD 
HETATM    4  H1  UNL     1     -10.032   6.748  69.005  1.00  0.00     0.000 HD 
ENDROOT
BRANCH   2   5
HETATM    5  C   UNL     1      -7.726   4.301  68.658  1.00  0.00    -0.066 C  
HETATM    6  N   UNL     1      -7.492   3.850  70.030  1.00  0.00    -0.045 NA 
HETATM    7  H2  UNL     1      -8.330   3.948  70.604  1.00  0.00     0.000 HD 
HETATM    8  H1  UNL     1      -7.132   2.896  70.055  1.00  0.00     0.000 HD 
ENDBRANCH   2   5
TORSDOF 1
ENDMDL
MODEL      162
REMARK 921   NORMALIZED FREE ENERGY PREDICTED BY IDOCK:   -0.31 KCAL/MOL
REMARK 922        TOTAL FREE ENERGY PREDICTED BY IDOCK:   -0.33 KCAL/MOL
REMARK 923 INTER-LIGAND FREE ENERGY PREDICTED BY IDOCK:   -0.33 KCAL/MOL
REMARK 924 INTRA-LIGAND FREE ENERGY PREDICTED BY IDOCK:    0.00 KCAL/MOL
REMARK 927      BINDING AFFINITY PREDICTED BY RF-SCORE:    0.00 PKD
ROOT
HETATM    1  N   UNL     1      -7.405   6.766  65.589  1.00  0.00    -0.076 NA 
HETATM    2  C   UNL     1      -8.018   7.228  64.343  1.00  0.00    -0.106 C  
HETATM    3  H2  UNL     1      -6.509   7.224  65.756  1.00  0.00     0.000 HD 
HETATM    4  H1  UNL     1      -8.036   6.881  66.382  1.00  0.00     0.000 HD 
ENDROOT
BRANCH   2   5
HETATM    5  C   UNL     1      -7.066   7.055  63.149  1.00  0.00    -0.064 C  
HETATM    6  N   UNL     1      -6.342   8.292  62.856  1.00  0.00    -0.085 NA 
HETATM    7  H2  UNL     1      -5.849   8.640  63.679  1.00  0.00     0.000 HD 
HETATM    8  H1  UNL     1      -5.711   8.178  62.063  1.00  0.00     0.000 HD 
ENDBRANCH   2   5
TORSDOF 1
ENDMDL
MODEL      163
REMARK 921   NORMALIZED FREE ENERGY PREDICTED BY IDOCK:   -0.29 KCAL/MOL
REMARK 922        TOTAL FREE ENERGY PREDICTED BY IDOCK:   -0.30 KCAL/MOL
REMARK 923 INTER-LIGAND FREE ENERGY PREDICTED BY IDOCK:   -0.30 KCAL/MOL
REMARK 924 INTRA-LIGAND FREE ENERGY PREDICTED BY IDOCK:    0.00 KCAL/MOL
REMARK 927      BINDING AFFINITY PREDICTED BY RF-SCORE:    0.00 PKD
ROOT
HETATM    1  N   UNL     1      -7.189   7.637  64.485  1.00  0.00    -0.072 NA 
HETATM    2  C   UNL     1      -7.047   8.710  65.468  1.00  0.00    -0.083 C  
HETATM    3  H2  UNL     1      -8.105   7.193  64.546  1.00  0.00     0.000 HD 
HETATM    4  H1  UNL     1      -6.998   7.969  63.539  1.00  0.00     0.000 HD 
ENDROOT
BRANCH   2   5
HETATM    5  C   UNL     1      -7.336   8.210  66.893  1.00  0.00    -0.087 C  
HETATM    6  N   UNL     1      -6.723   6.904  67.138  1.00  0.00    -0.061 NA 
HETATM    7  H2  UNL     1      -5.721   6.919  66.943  1.00  0.00     0.000 HD 
HETATM    8  H1  UNL     1      -6.914   6.572  68.083  1.00  0.00     0.000 HD 
ENDBRANCH   2   5
TORSDOF 1
ENDMDL
