MODEL        1
REMARK 921   NORMALIZED FREE ENERGY PREDICTED BY IDOCK:   -6.27 KCAL/MOL
REMARK 922        TOTAL FREE ENERGY PREDICTED BY IDOCK:  -11.64 KCAL/MOL
REMARK 923 INTER-LIGAND FREE ENERGY PREDICTED BY IDOCK:   -9.57 KCAL/MOL
REMARK 924 INTRA-LIGAND FREE ENERGY PREDICTED BY IDOCK:   -2.07 KCAL/MOL
REMARK 927      BINDING AFFINITY PREDICTED BY RF-SCORE:    0.00 PKD
ROOT
HETATM    1  C   UNL     1     -13.926   7.684  71.581  1.00  0.00    -0.510 C  
HETATM    2  C   UNL     1     -13.134   8.768  72.299  1.00  0.00    -0.458 C  
ENDROOT
BRANCH   2   3
HETATM    3  C   UNL     1     -12.950   9.982  71.394  1.00  0.00    -0.517 C  
BRANCH   3   4
HETATM    4  C   UNL     1     -11.495  10.169  70.952  1.00  0.00    -0.444 C  
HETATM    5  C   UNL     1     -11.380  10.528  69.456  1.00  0.00    -0.341 C  
HETATM    6  C   UNL     1     -12.184  11.791  69.061  1.00  0.00    -0.132 C  
HETATM    7  C   UNL     1      -9.902  10.612  69.029  1.00  0.00    -0.205 C  
HETATM    8  C   UNL     1     -11.749  13.078  69.749  1.00  0.00    -0.346 C  
BRANCH   7   9
HETATM    9  O   UNL     1      -9.861  10.915  67.626  1.00  0.00    -0.168 OA 
BRANCH   9  10
HETATM   10  C   UNL     1      -8.839  11.652  67.138  1.00  0.00    -0.172 C  
HETATM   11  O   UNL     1      -7.928  11.235  66.440  1.00  0.00    -0.164 OA 
BRANCH  10  12
HETATM   12  C   UNL     1      -9.101  13.099  67.379  1.00  0.00    -0.208 C  
HETATM   13  C   UNL     1      -9.884  13.911  66.610  1.00  0.00    -0.288 C  
BRANCH  12  14
HETATM   14  C   UNL     1      -8.271  13.686  68.509  1.00  0.00    -0.112 C  
HETATM   15  H1  UNL     1      -7.025  14.567  70.204  1.00  0.00     0.000 HD 
HETATM   16  N   UNL     1      -7.582  14.173  69.446  1.00  0.00    -0.342 NA 
HETATM   17  H2  UNL     1      -6.576  14.337  69.424  1.00  0.00     0.000 HD 
ENDBRANCH  12  14
BRANCH  13  18
HETATM   18  C   UNL     1     -10.735  13.357  65.524  1.00  0.00    -0.301 A  
HETATM   19  C   UNL     1     -12.116  13.227  65.708  1.00  0.00    -0.491 A  
HETATM   20  C   UNL     1     -10.167  12.920  64.319  1.00  0.00    -0.337 A  
HETATM   21  C   UNL     1     -10.949  12.277  63.358  1.00  0.00    -0.467 A  
HETATM   22  C   UNL     1     -12.313  12.104  63.573  1.00  0.00    -0.682 A  
HETATM   23  C   UNL     1     -12.900  12.604  64.733  1.00  0.00    -0.349 A  
ENDBRANCH  13  18
BRANCH  13  24
HETATM   24  C   UNL     1      -9.829  15.385  66.818  1.00  0.00    -0.255 A  
HETATM   25  C   UNL     1     -10.658  17.366  67.962  1.00  0.00    -0.389 A  
HETATM   26  C   UNL     1     -10.679  15.984  67.762  1.00  0.00    -0.323 A  
HETATM   27  C   UNL     1      -9.770  18.165  67.250  1.00  0.00    -0.297 A  
HETATM   28  C   UNL     1      -8.927  17.583  66.302  1.00  0.00    -0.220 A  
HETATM   29  C   UNL     1      -8.957  16.195  66.085  1.00  0.00    -0.372 A  
BRANCH  27  30
HETATM   30  O   UNL     1      -9.858  19.508  67.512  1.00  0.00    -0.324 OA 
HETATM   31  C   UNL     1      -8.690  20.278  67.252  1.00  0.00    -0.352 C  
ENDBRANCH  27  30
ENDBRANCH  13  24
ENDBRANCH  10  12
ENDBRANCH   9  10
ENDBRANCH   7   9
ENDBRANCH   3   4
ENDBRANCH   2   3
TORSDOF 9
ENDMDL
MODEL        2
REMARK 921   NORMALIZED FREE ENERGY PREDICTED BY IDOCK:   -5.88 KCAL/MOL
REMARK 922        TOTAL FREE ENERGY PREDICTED BY IDOCK:  -11.04 KCAL/MOL
REMARK 923 INTER-LIGAND FREE ENERGY PREDICTED BY IDOCK:   -8.74 KCAL/MOL
REMARK 924 INTRA-LIGAND FREE ENERGY PREDICTED BY IDOCK:   -2.31 KCAL/MOL
REMARK 927      BINDING AFFINITY PREDICTED BY RF-SCORE:    0.00 PKD
ROOT
HETATM    1  C   UNL     1      -6.932   8.088  67.828  1.00  0.00    -0.078 C  
HETATM    2  C   UNL     1      -6.984   9.104  66.696  1.00  0.00    -0.081 C  
ENDROOT
BRANCH   2   3
HETATM    3  C   UNL     1      -7.699   8.516  65.483  1.00  0.00    -0.093 C  
BRANCH   3   4
HETATM    4  C   UNL     1      -9.162   8.961  65.392  1.00  0.00    -0.202 C  
HETATM    5  C   UNL     1      -9.301  10.407  64.873  1.00  0.00    -0.294 C  
HETATM    6  C   UNL     1      -8.625  10.638  63.498  1.00  0.00    -0.124 C  
HETATM    7  C   UNL     1     -10.777  10.851  64.886  1.00  0.00    -0.170 C  
HETATM    8  C   UNL     1      -9.194   9.813  62.351  1.00  0.00    -0.294 C  
BRANCH   7   9
HETATM    9  O   UNL     1     -10.836  12.210  64.427  1.00  0.00    -0.290 OA 
BRANCH   9  10
HETATM   10  C   UNL     1     -11.747  13.051  64.967  1.00  0.00    -0.339 C  
HETATM   11  O   UNL     1     -12.920  12.790  65.179  1.00  0.00    -0.768 OA 
BRANCH  10  12
HETATM   12  C   UNL     1     -11.063  14.270  65.485  1.00  0.00    -0.323 C  
HETATM   13  C   UNL     1     -10.450  14.391  66.698  1.00  0.00    -0.274 C  
BRANCH  12  14
HETATM   14  C   UNL     1     -11.235  15.487  64.591  1.00  0.00    -0.371 C  
HETATM   15  H1  UNL     1     -11.494  17.314  63.250  1.00  0.00     0.000 HD 
HETATM   16  N   UNL     1     -11.378  16.497  63.850  1.00  0.00    -1.559 NA 
HETATM   17  H2  UNL     1     -11.182  17.463  64.112  1.00  0.00     0.000 HD 
ENDBRANCH  12  14
BRANCH  13  18
HETATM   18  C   UNL     1     -10.234  13.210  67.574  1.00  0.00    -0.225 A  
HETATM   19  C   UNL     1      -8.942  12.711  67.780  1.00  0.00    -0.189 A  
HETATM   20  C   UNL     1     -11.318  12.552  68.172  1.00  0.00    -0.343 A  
HETATM   21  C   UNL     1     -11.124  11.365  68.881  1.00  0.00    -0.290 A  
HETATM   22  C   UNL     1      -9.842  10.848  69.036  1.00  0.00    -0.196 A  
HETATM   23  C   UNL     1      -8.749  11.536  68.510  1.00  0.00    -0.138 A  
ENDBRANCH  13  18
BRANCH  13  24
HETATM   24  C   UNL     1     -10.056  15.744  67.182  1.00  0.00    -0.251 A  
HETATM   25  C   UNL     1     -10.603  17.756  68.437  1.00  0.00    -0.297 A  
HETATM   26  C   UNL     1     -10.944  16.478  67.986  1.00  0.00    -0.320 A  
HETATM   27  C   UNL     1      -9.364  18.304  68.123  1.00  0.00    -0.296 A  
HETATM   28  C   UNL     1      -8.477  17.588  67.317  1.00  0.00    -0.224 A  
HETATM   29  C   UNL     1      -8.823  16.310  66.846  1.00  0.00    -0.242 A  
BRANCH  27  30
HETATM   30  O   UNL     1      -9.152  19.572  68.600  1.00  0.00    -0.360 OA 
HETATM   31  C   UNL     1      -8.101  20.308  67.986  1.00  0.00    -0.107 C  
ENDBRANCH  27  30
ENDBRANCH  13  24
ENDBRANCH  10  12
ENDBRANCH   9  10
ENDBRANCH   7   9
ENDBRANCH   3   4
ENDBRANCH   2   3
TORSDOF 9
ENDMDL
MODEL        3
REMARK 921   NORMALIZED FREE ENERGY PREDICTED BY IDOCK:   -5.88 KCAL/MOL
REMARK 922        TOTAL FREE ENERGY PREDICTED BY IDOCK:  -11.04 KCAL/MOL
REMARK 923 INTER-LIGAND FREE ENERGY PREDICTED BY IDOCK:   -9.87 KCAL/MOL
REMARK 924 INTRA-LIGAND FREE ENERGY PREDICTED BY IDOCK:   -1.17 KCAL/MOL
REMARK 927      BINDING AFFINITY PREDICTED BY RF-SCORE:    0.00 PKD
ROOT
HETATM    1  C   UNL     1     -10.128   5.677  71.651  1.00  0.00    -0.245 C  
HETATM    2  C   UNL     1     -11.442   6.117  72.282  1.00  0.00    -0.360 C  
ENDROOT
BRANCH   2   3
HETATM    3  C   UNL     1     -11.367   7.581  72.705  1.00  0.00    -0.388 C  
BRANCH   3   4
HETATM    4  C   UNL     1     -12.284   8.480  71.870  1.00  0.00    -0.411 C  
HETATM    5  C   UNL     1     -11.569   9.762  71.393  1.00  0.00    -0.452 C  
HETATM    6  C   UNL     1     -10.276   9.484  70.586  1.00  0.00    -0.364 C  
HETATM    7  C   UNL     1     -12.548  10.683  70.641  1.00  0.00    -0.365 C  
HETATM    8  C   UNL     1     -10.476   8.710  69.290  1.00  0.00    -0.226 C  
BRANCH   7   9
HETATM    9  O   UNL     1     -11.835  11.868  70.254  1.00  0.00    -0.331 OA 
BRANCH   9  10
HETATM   10  C   UNL     1     -11.834  12.246  68.956  1.00  0.00    -0.305 C  
HETATM   11  O   UNL     1     -12.280  11.595  68.024  1.00  0.00    -0.551 OA 
BRANCH  10  12
HETATM   12  C   UNL     1     -11.421  13.674  68.847  1.00  0.00    -0.344 C  
HETATM   13  C   UNL     1     -11.022  14.308  67.707  1.00  0.00    -0.275 C  
BRANCH  12  14
HETATM   14  C   UNL     1     -11.314  14.378  70.190  1.00  0.00    -0.165 C  
HETATM   15  H1  UNL     1     -11.155  15.435  72.205  1.00  0.00     0.000 HD 
HETATM   16  N   UNL     1     -11.226  14.962  71.304  1.00  0.00    -0.559 NA 
HETATM   17  H2  UNL     1     -11.994  15.408  71.807  1.00  0.00     0.000 HD 
ENDBRANCH  12  14
BRANCH  13  18
HETATM   18  C   UNL     1     -11.151  13.656  66.377  1.00  0.00    -0.307 A  
HETATM   19  C   UNL     1     -12.351  13.748  65.661  1.00  0.00    -0.517 A  
HETATM   20  C   UNL     1     -10.095  12.908  65.838  1.00  0.00    -0.295 A  
HETATM   21  C   UNL     1     -10.268  12.186  64.655  1.00  0.00    -0.312 A  
HETATM   22  C   UNL     1     -11.482  12.241  63.978  1.00  0.00    -0.483 A  
HETATM   23  C   UNL     1     -12.512  13.043  64.465  1.00  0.00    -0.427 A  
ENDBRANCH  13  18
BRANCH  13  24
HETATM   24  C   UNL     1     -10.380  15.649  67.806  1.00  0.00    -0.266 A  
HETATM   25  C   UNL     1      -8.354  16.997  67.861  1.00  0.00    -0.201 A  
HETATM   26  C   UNL     1      -8.980  15.752  67.752  1.00  0.00    -0.176 A  
HETATM   27  C   UNL     1      -9.113  18.155  67.991  1.00  0.00    -0.283 A  
HETATM   28  C   UNL     1     -10.505  18.064  68.055  1.00  0.00    -0.388 A  
HETATM   29  C   UNL     1     -11.137  16.812  67.964  1.00  0.00    -0.220 A  
BRANCH  27  30
HETATM   30  O   UNL     1      -8.390  19.313  68.113  1.00  0.00    -0.300 OA 
HETATM   31  C   UNL     1      -7.183  19.226  68.860  1.00  0.00    -0.358 C  
ENDBRANCH  27  30
ENDBRANCH  13  24
ENDBRANCH  10  12
ENDBRANCH   9  10
ENDBRANCH   7   9
ENDBRANCH   3   4
ENDBRANCH   2   3
TORSDOF 9
ENDMDL
MODEL        4
REMARK 921   NORMALIZED FREE ENERGY PREDICTED BY IDOCK:   -5.87 KCAL/MOL
REMARK 922        TOTAL FREE ENERGY PREDICTED BY IDOCK:  -11.03 KCAL/MOL
REMARK 923 INTER-LIGAND FREE ENERGY PREDICTED BY IDOCK:   -9.93 KCAL/MOL
REMARK 924 INTRA-LIGAND FREE ENERGY PREDICTED BY IDOCK:   -1.11 KCAL/MOL
REMARK 927      BINDING AFFINITY PREDICTED BY RF-SCORE:    0.00 PKD
ROOT
HETATM    1  C   UNL     1     -10.351   5.676  71.772  1.00  0.00    -0.268 C  
HETATM    2  C   UNL     1     -11.687   6.307  72.141  1.00  0.00    -0.368 C  
ENDROOT
BRANCH   2   3
HETATM    3  C   UNL     1     -11.485   7.739  72.625  1.00  0.00    -0.430 C  
BRANCH   3   4
HETATM    4  C   UNL     1     -12.316   8.750  71.829  1.00  0.00    -0.412 C  
HETATM    5  C   UNL     1     -11.469   9.936  71.324  1.00  0.00    -0.435 C  
HETATM    6  C   UNL     1     -10.254   9.505  70.464  1.00  0.00    -0.349 C  
HETATM    7  C   UNL     1     -12.356  10.975  70.612  1.00  0.00    -0.386 C  
HETATM    8  C   UNL     1     -10.601   8.769  69.177  1.00  0.00    -0.200 C  
BRANCH   7   9
HETATM    9  O   UNL     1     -11.518  12.065  70.198  1.00  0.00    -0.192 OA 
BRANCH   9  10
HETATM   10  C   UNL     1     -11.553  12.472  68.909  1.00  0.00    -0.318 C  
HETATM   11  O   UNL     1     -12.278  12.020  68.038  1.00  0.00    -0.454 OA 
BRANCH  10  12
HETATM   12  C   UNL     1     -10.744  13.714  68.751  1.00  0.00    -0.265 C  
HETATM   13  C   UNL     1     -10.927  14.882  69.432  1.00  0.00    -0.284 C  
BRANCH  12  14
HETATM   14  C   UNL     1      -9.746  13.646  67.607  1.00  0.00    -0.228 C  
HETATM   15  H1  UNL     1      -8.248  13.542  65.889  1.00  0.00     0.000 HD 
HETATM   16  N   UNL     1      -8.917  13.588  66.657  1.00  0.00    -0.421 NA 
HETATM   17  H2  UNL     1      -8.288  12.810  66.460  1.00  0.00     0.000 HD 
ENDBRANCH  12  14
BRANCH  13  18
HETATM   18  C   UNL     1     -11.869  14.966  70.580  1.00  0.00    -0.358 A  
HETATM   19  C   UNL     1     -13.251  14.953  70.360  1.00  0.00    -0.124 A  
HETATM   20  C   UNL     1     -11.392  15.100  71.891  1.00  0.00    -0.381 A  
HETATM   21  C   UNL     1     -12.277  15.315  72.950  1.00  0.00    -0.516 A  
HETATM   22  C   UNL     1     -13.647  15.355  72.714  1.00  0.00    -0.628 A  
HETATM   23  C   UNL     1     -14.135  15.146  71.425  1.00  0.00    -0.598 A  
ENDBRANCH  13  18
BRANCH  13  24
HETATM   24  C   UNL     1     -10.223  16.112  68.972  1.00  0.00    -0.250 A  
HETATM   25  C   UNL     1     -10.319  18.304  67.919  1.00  0.00    -0.417 A  
HETATM   26  C   UNL     1     -10.959  17.149  68.375  1.00  0.00    -0.221 A  
HETATM   27  C   UNL     1      -8.946  18.456  68.080  1.00  0.00    -0.309 A  
HETATM   28  C   UNL     1      -8.202  17.428  68.664  1.00  0.00    -0.264 A  
HETATM   29  C   UNL     1      -8.840  16.257  69.107  1.00  0.00    -0.217 A  
BRANCH  27  30
HETATM   30  O   UNL     1      -8.426  19.618  67.573  1.00  0.00    -0.290 OA 
HETATM   31  C   UNL     1      -9.333  20.461  66.872  1.00  0.00    -0.342 C  
ENDBRANCH  27  30
ENDBRANCH  13  24
ENDBRANCH  10  12
ENDBRANCH   9  10
ENDBRANCH   7   9
ENDBRANCH   3   4
ENDBRANCH   2   3
TORSDOF 9
ENDMDL
MODEL        5
REMARK 921   NORMALIZED FREE ENERGY PREDICTED BY IDOCK:   -5.87 KCAL/MOL
REMARK 922        TOTAL FREE ENERGY PREDICTED BY IDOCK:  -11.03 KCAL/MOL
REMARK 923 INTER-LIGAND FREE ENERGY PREDICTED BY IDOCK:   -9.83 KCAL/MOL
REMARK 924 INTRA-LIGAND FREE ENERGY PREDICTED BY IDOCK:   -1.20 KCAL/MOL
REMARK 927      BINDING AFFINITY PREDICTED BY RF-SCORE:    0.00 PKD
ROOT
HETATM    1  C   UNL     1      -5.991  19.210  64.779  1.00  0.00    -0.317 C  
HETATM    2  C   UNL     1      -6.357  20.533  65.439  1.00  0.00    -0.295 C  
ENDROOT
BRANCH   2   3
HETATM    3  C   UNL     1      -7.323  20.302  66.597  1.00  0.00    -0.316 C  
BRANCH   3   4
HETATM    4  C   UNL     1      -8.647  19.682  66.142  1.00  0.00    -0.357 C  
HETATM    5  C   UNL     1      -8.970  18.374  66.893  1.00  0.00    -0.280 C  
HETATM    6  C   UNL     1      -9.003  18.539  68.433  1.00  0.00    -0.346 C  
HETATM    7  C   UNL     1     -10.257  17.732  66.341  1.00  0.00    -0.365 C  
HETATM    8  C   UNL     1     -10.063  19.498  68.959  1.00  0.00    -0.444 C  
BRANCH   7   9
HETATM    9  O   UNL     1     -10.483  16.507  67.054  1.00  0.00    -0.304 OA 
BRANCH   9  10
HETATM   10  C   UNL     1     -10.207  15.329  66.449  1.00  0.00    -0.277 C  
HETATM   11  O   UNL     1      -9.826  15.191  65.298  1.00  0.00    -0.313 OA 
BRANCH  10  12
HETATM   12  C   UNL     1     -10.211  14.232  67.458  1.00  0.00    -0.240 C  
HETATM   13  C   UNL     1     -10.628  12.950  67.247  1.00  0.00    -0.243 C  
BRANCH  12  14
HETATM   14  C   UNL     1      -9.850  14.696  68.860  1.00  0.00    -0.211 C  
HETATM   15  H1  UNL     1      -9.308  15.393  70.964  1.00  0.00     0.000 HD 
HETATM   16  N   UNL     1      -9.550  15.082  70.023  1.00  0.00    -0.453 NA 
HETATM   17  H2  UNL     1     -10.212  15.348  70.752  1.00  0.00     0.000 HD 
ENDBRANCH  12  14
BRANCH  13  18
HETATM   18  C   UNL     1     -10.950  12.460  65.881  1.00  0.00    -0.323 A  
HETATM   19  C   UNL     1     -10.004  11.727  65.153  1.00  0.00    -0.285 A  
HETATM   20  C   UNL     1     -12.184  12.756  65.284  1.00  0.00    -0.535 A  
HETATM   21  C   UNL     1     -12.429  12.412  63.953  1.00  0.00    -0.573 A  
HETATM   22  C   UNL     1     -11.462  11.730  63.221  1.00  0.00    -0.332 A  
HETATM   23  C   UNL     1     -10.263  11.364  63.829  1.00  0.00    -0.433 A  
ENDBRANCH  13  18
BRANCH  13  24
HETATM   24  C   UNL     1     -10.830  12.048  68.415  1.00  0.00    -0.266 A  
HETATM   25  C   UNL     1     -12.170  11.386  70.336  1.00  0.00    -0.450 A  
HETATM   26  C   UNL     1     -11.968  12.208  69.225  1.00  0.00    -0.318 A  
HETATM   27  C   UNL     1     -11.263  10.376  70.637  1.00  0.00    -0.275 A  
HETATM   28  C   UNL     1     -10.124  10.213  69.845  1.00  0.00    -0.268 A  
HETATM   29  C   UNL     1      -9.907  11.049  68.737  1.00  0.00    -0.206 A  
BRANCH  27  30
HETATM   30  O   UNL     1     -11.553   9.650  71.763  1.00  0.00    -0.378 OA 
HETATM   31  C   UNL     1     -12.920   9.307  71.956  1.00  0.00    -0.425 C  
ENDBRANCH  27  30
ENDBRANCH  13  24
ENDBRANCH  10  12
ENDBRANCH   9  10
ENDBRANCH   7   9
ENDBRANCH   3   4
ENDBRANCH   2   3
TORSDOF 9
ENDMDL
MODEL        6
REMARK 921   NORMALIZED FREE ENERGY PREDICTED BY IDOCK:   -5.86 KCAL/MOL
REMARK 922        TOTAL FREE ENERGY PREDICTED BY IDOCK:  -11.02 KCAL/MOL
REMARK 923 INTER-LIGAND FREE ENERGY PREDICTED BY IDOCK:   -9.78 KCAL/MOL
REMARK 924 INTRA-LIGAND FREE ENERGY PREDICTED BY IDOCK:   -1.24 KCAL/MOL
REMARK 927      BINDING AFFINITY PREDICTED BY RF-SCORE:    0.00 PKD
ROOT
HETATM    1  C   UNL     1      -9.896   6.154  71.749  1.00  0.00    -0.185 C  
HETATM    2  C   UNL     1     -11.280   6.579  72.220  1.00  0.00    -0.308 C  
ENDROOT
BRANCH   2   3
HETATM    3  C   UNL     1     -11.278   8.050  72.626  1.00  0.00    -0.462 C  
BRANCH   3   4
HETATM    4  C   UNL     1     -12.182   8.906  71.733  1.00  0.00    -0.429 C  
HETATM    5  C   UNL     1     -11.423  10.083  71.087  1.00  0.00    -0.432 C  
HETATM    6  C   UNL     1     -10.187   9.642  70.264  1.00  0.00    -0.333 C  
HETATM    7  C   UNL     1     -12.384  10.973  70.277  1.00  0.00    -0.328 C  
HETATM    8  C   UNL     1     -10.490   8.743  69.072  1.00  0.00    -0.220 C  
BRANCH   7   9
HETATM    9  O   UNL     1     -11.626  12.064  69.732  1.00  0.00    -0.299 OA 
BRANCH   9  10
HETATM   10  C   UNL     1     -11.607  12.250  68.393  1.00  0.00    -0.326 C  
HETATM   11  O   UNL     1     -12.140  11.530  67.565  1.00  0.00    -0.614 OA 
BRANCH  10  12
HETATM   12  C   UNL     1     -11.035  13.591  68.080  1.00  0.00    -0.271 C  
HETATM   13  C   UNL     1     -10.584  14.005  66.861  1.00  0.00    -0.280 C  
BRANCH  12  14
HETATM   14  C   UNL     1     -10.830  14.464  69.307  1.00  0.00    -0.239 C  
HETATM   15  H1  UNL     1     -10.522  15.774  71.149  1.00  0.00     0.000 HD 
HETATM   16  N   UNL     1     -10.659  15.188  70.325  1.00  0.00    -0.484 NA 
HETATM   17  H2  UNL     1     -11.150  16.059  70.527  1.00  0.00     0.000 HD 
ENDBRANCH  12  14
BRANCH  13  18
HETATM   18  C   UNL     1     -10.806  13.189  65.638  1.00  0.00    -0.294 A  
HETATM   19  C   UNL     1     -11.927  13.418  64.831  1.00  0.00    -0.414 A  
HETATM   20  C   UNL     1      -9.925  12.153  65.296  1.00  0.00    -0.260 A  
HETATM   21  C   UNL     1     -10.211  11.302  64.226  1.00  0.00    -0.383 A  
HETATM   22  C   UNL     1     -11.355  11.505  63.462  1.00  0.00    -0.375 A  
HETATM   23  C   UNL     1     -12.197  12.579  63.747  1.00  0.00    -0.615 A  
ENDBRANCH  13  18
BRANCH  13  24
HETATM   24  C   UNL     1      -9.792  15.264  66.766  1.00  0.00    -0.246 A  
HETATM   25  C   UNL     1      -9.735  17.679  66.476  1.00  0.00    -0.310 A  
HETATM   26  C   UNL     1     -10.457  16.488  66.585  1.00  0.00    -0.266 A  
HETATM   27  C   UNL     1      -8.349  17.672  66.578  1.00  0.00    -0.268 A  
HETATM   28  C   UNL     1      -7.676  16.461  66.749  1.00  0.00    -0.298 A  
HETATM   29  C   UNL     1      -8.397  15.258  66.841  1.00  0.00    -0.278 A  
BRANCH  27  30
HETATM   30  O   UNL     1      -7.748  18.896  66.431  1.00  0.00    -0.253 OA 
HETATM   31  C   UNL     1      -8.241  19.942  67.260  1.00  0.00    -0.313 C  
ENDBRANCH  27  30
ENDBRANCH  13  24
ENDBRANCH  10  12
ENDBRANCH   9  10
ENDBRANCH   7   9
ENDBRANCH   3   4
ENDBRANCH   2   3
TORSDOF 9
ENDMDL
MODEL        7
REMARK 921   NORMALIZED FREE ENERGY PREDICTED BY IDOCK:   -5.84 KCAL/MOL
REMARK 922        TOTAL FREE ENERGY PREDICTED BY IDOCK:  -10.99 KCAL/MOL
REMARK 923 INTER-LIGAND FREE ENERGY PREDICTED BY IDOCK:   -9.94 KCAL/MOL
REMARK 924 INTRA-LIGAND FREE ENERGY PREDICTED BY IDOCK:   -1.05 KCAL/MOL
REMARK 927      BINDING AFFINITY PREDICTED BY RF-SCORE:    0.00 PKD
ROOT
HETATM    1  C   UNL     1     -10.452   5.617  73.316  1.00  0.00    -0.256 C  
HETATM    2  C   UNL     1     -11.297   6.461  72.372  1.00  0.00    -0.324 C  
ENDROOT
BRANCH   2   3
HETATM    3  C   UNL     1     -11.276   7.925  72.801  1.00  0.00    -0.466 C  
BRANCH   3   4
HETATM    4  C   UNL     1     -12.193   8.801  71.942  1.00  0.00    -0.429 C  
HETATM    5  C   UNL     1     -11.427   9.948  71.251  1.00  0.00    -0.435 C  
HETATM    6  C   UNL     1     -10.244   9.461  70.377  1.00  0.00    -0.310 C  
HETATM    7  C   UNL     1     -12.396  10.861  70.476  1.00  0.00    -0.374 C  
HETATM    8  C   UNL     1     -10.629   8.563  69.209  1.00  0.00    -0.193 C  
BRANCH   7   9
HETATM    9  O   UNL     1     -11.630  11.923  69.886  1.00  0.00    -0.296 OA 
BRANCH   9  10
HETATM   10  C   UNL     1     -11.643  12.080  68.543  1.00  0.00    -0.309 C  
HETATM   11  O   UNL     1     -12.148  11.312  67.741  1.00  0.00    -0.631 OA 
BRANCH  10  12
HETATM   12  C   UNL     1     -11.154  13.443  68.191  1.00  0.00    -0.284 C  
HETATM   13  C   UNL     1     -10.806  13.872  66.944  1.00  0.00    -0.286 C  
BRANCH  12  14
HETATM   14  C   UNL     1     -10.903  14.328  69.401  1.00  0.00    -0.168 C  
HETATM   15  H1  UNL     1     -10.527  15.656  71.217  1.00  0.00     0.000 HD 
HETATM   16  N   UNL     1     -10.695  15.063  70.405  1.00  0.00    -0.495 NA 
HETATM   17  H2  UNL     1     -11.393  15.632  70.883  1.00  0.00     0.000 HD 
ENDBRANCH  12  14
BRANCH  13  18
HETATM   18  C   UNL     1     -11.076  13.043  65.740  1.00  0.00    -0.302 A  
HETATM   19  C   UNL     1     -10.102  12.158  65.260  1.00  0.00    -0.291 A  
HETATM   20  C   UNL     1     -12.286  13.161  65.043  1.00  0.00    -0.511 A  
HETATM   21  C   UNL     1     -12.481  12.483  63.838  1.00  0.00    -0.540 A  
HETATM   22  C   UNL     1     -11.486  11.647  63.342  1.00  0.00    -0.360 A  
HETATM   23  C   UNL     1     -10.310  11.463  64.066  1.00  0.00    -0.418 A  
ENDBRANCH  13  18
BRANCH  13  24
HETATM   24  C   UNL     1     -10.079  15.164  66.795  1.00  0.00    -0.261 A  
HETATM   25  C   UNL     1      -7.970  16.374  66.677  1.00  0.00    -0.323 A  
HETATM   26  C   UNL     1      -8.674  15.173  66.797  1.00  0.00    -0.307 A  
HETATM   27  C   UNL     1      -8.653  17.575  66.519  1.00  0.00    -0.263 A  
HETATM   28  C   UNL     1     -10.049  17.580  66.525  1.00  0.00    -0.331 A  
HETATM   29  C   UNL     1     -10.761  16.377  66.664  1.00  0.00    -0.173 A  
BRANCH  27  30
HETATM   30  O   UNL     1      -7.858  18.689  66.436  1.00  0.00    -0.265 OA 
HETATM   31  C   UNL     1      -8.532  19.940  66.384  1.00  0.00    -0.341 C  
ENDBRANCH  27  30
ENDBRANCH  13  24
ENDBRANCH  10  12
ENDBRANCH   9  10
ENDBRANCH   7   9
ENDBRANCH   3   4
ENDBRANCH   2   3
TORSDOF 9
ENDMDL
MODEL        8
REMARK 921   NORMALIZED FREE ENERGY PREDICTED BY IDOCK:   -5.81 KCAL/MOL
REMARK 922        TOTAL FREE ENERGY PREDICTED BY IDOCK:  -10.94 KCAL/MOL
REMARK 923 INTER-LIGAND FREE ENERGY PREDICTED BY IDOCK:   -9.99 KCAL/MOL
REMARK 924 INTRA-LIGAND FREE ENERGY PREDICTED BY IDOCK:   -0.96 KCAL/MOL
REMARK 927      BINDING AFFINITY PREDICTED BY RF-SCORE:    0.00 PKD
ROOT
HETATM    1  C   UNL     1      -7.517  20.076  65.930  1.00  0.00    -0.321 C  
HETATM    2  C   UNL     1      -6.713  18.792  65.777  1.00  0.00    -0.306 C  
ENDROOT
BRANCH   2   3
HETATM    3  C   UNL     1      -7.135  17.770  66.828  1.00  0.00    -0.236 C  
BRANCH   3   4
HETATM    4  C   UNL     1      -8.165  16.770  66.292  1.00  0.00    -0.359 C  
HETATM    5  C   UNL     1      -8.820  15.946  67.419  1.00  0.00    -0.201 C  
HETATM    6  C   UNL     1      -9.493  16.817  68.510  1.00  0.00    -0.245 C  
HETATM    7  C   UNL     1      -9.777  14.889  66.836  1.00  0.00    -0.240 C  
HETATM    8  C   UNL     1     -10.641  17.691  68.022  1.00  0.00    -0.379 C  
BRANCH   7   9
HETATM    9  O   UNL     1     -10.327  14.136  67.927  1.00  0.00    -0.229 OA 
BRANCH   9  10
HETATM   10  C   UNL     1     -11.644  13.831  67.923  1.00  0.00    -0.341 C  
HETATM   11  O   UNL     1     -12.497  14.364  67.232  1.00  0.00    -0.211 OA 
BRANCH  10  12
HETATM   12  C   UNL     1     -11.876  12.589  68.714  1.00  0.00    -0.347 C  
HETATM   13  C   UNL     1     -12.155  12.528  70.048  1.00  0.00    -0.337 C  
BRANCH  12  14
HETATM   14  C   UNL     1     -11.611  11.313  67.930  1.00  0.00    -0.256 C  
HETATM   15  H1  UNL     1     -11.214   9.399  66.754  1.00  0.00     0.000 HD 
HETATM   16  N   UNL     1     -11.392  10.255  67.280  1.00  0.00    -0.378 NA 
HETATM   17  H2  UNL     1     -10.916  10.196  66.379  1.00  0.00     0.000 HD 
ENDBRANCH  12  14
BRANCH  13  18
HETATM   18  C   UNL     1     -12.455  13.757  70.829  1.00  0.00    -0.441 A  
HETATM   19  C   UNL     1     -11.429  14.648  71.164  1.00  0.00    -0.195 A  
HETATM   20  C   UNL     1     -13.757  14.023  71.277  1.00  0.00    -0.227 A  
HETATM   21  C   UNL     1     -14.009  15.104  72.124  1.00  0.00    -0.635 A  
HETATM   22  C   UNL     1     -12.972  15.954  72.495  1.00  0.00    -0.534 A  
HETATM   23  C   UNL     1     -11.689  15.742  71.993  1.00  0.00    -0.572 A  
ENDBRANCH  13  18
BRANCH  13  24
HETATM   24  C   UNL     1     -12.088  11.214  70.747  1.00  0.00    -0.458 A  
HETATM   25  C   UNL     1     -10.852   9.182  71.262  1.00  0.00    -0.402 A  
HETATM   26  C   UNL     1     -10.931  10.426  70.630  1.00  0.00    -0.191 A  
HETATM   27  C   UNL     1     -11.906   8.723  72.044  1.00  0.00    -0.372 A  
HETATM   28  C   UNL     1     -13.065   9.494  72.160  1.00  0.00    -0.522 A  
HETATM   29  C   UNL     1     -13.156  10.737  71.511  1.00  0.00    -0.517 A  
BRANCH  27  30
HETATM   30  O   UNL     1     -11.725   7.481  72.593  1.00  0.00    -0.295 OA 
HETATM   31  C   UNL     1     -10.801   6.627  71.929  1.00  0.00    -0.236 C  
ENDBRANCH  27  30
ENDBRANCH  13  24
ENDBRANCH  10  12
ENDBRANCH   9  10
ENDBRANCH   7   9
ENDBRANCH   3   4
ENDBRANCH   2   3
TORSDOF 9
ENDMDL
MODEL        9
REMARK 921   NORMALIZED FREE ENERGY PREDICTED BY IDOCK:   -5.79 KCAL/MOL
REMARK 922        TOTAL FREE ENERGY PREDICTED BY IDOCK:  -10.90 KCAL/MOL
REMARK 923 INTER-LIGAND FREE ENERGY PREDICTED BY IDOCK:   -8.83 KCAL/MOL
REMARK 924 INTRA-LIGAND FREE ENERGY PREDICTED BY IDOCK:   -2.07 KCAL/MOL
REMARK 927      BINDING AFFINITY PREDICTED BY RF-SCORE:    0.00 PKD
ROOT
HETATM    1  C   UNL     1     -13.625  15.021  71.356  1.00  0.00    -0.538 C  
HETATM    2  C   UNL     1     -12.327  14.603  70.680  1.00  0.00    -0.398 C  
ENDROOT
BRANCH   2   3
HETATM    3  C   UNL     1     -11.567  15.828  70.180  1.00  0.00    -0.364 C  
BRANCH   3   4
HETATM    4  C   UNL     1     -10.104  15.517  69.852  1.00  0.00    -0.282 C  
HETATM    5  C   UNL     1      -9.957  14.686  68.561  1.00  0.00    -0.235 C  
HETATM    6  C   UNL     1     -10.613  15.348  67.323  1.00  0.00    -0.294 C  
HETATM    7  C   UNL     1      -8.483  14.312  68.318  1.00  0.00    -0.167 C  
HETATM    8  C   UNL     1     -10.027  16.696  66.923  1.00  0.00    -0.272 C  
BRANCH   7   9
HETATM    9  O   UNL     1      -8.417  13.515  67.126  1.00  0.00    -0.196 OA 
BRANCH   9  10
HETATM   10  C   UNL     1      -7.788  12.319  67.164  1.00  0.00    -0.149 C  
HETATM   11  O   UNL     1      -6.671  12.087  66.731  1.00  0.00    -0.089 OA 
BRANCH  10  12
HETATM   12  C   UNL     1      -8.558  11.372  68.021  1.00  0.00    -0.147 C  
HETATM   13  C   UNL     1      -9.842  10.963  67.809  1.00  0.00    -0.194 C  
BRANCH  12  14
HETATM   14  C   UNL     1      -7.837  10.993  69.304  1.00  0.00    -0.052 C  
HETATM   15  H1  UNL     1      -6.755  10.423  71.230  1.00  0.00     0.000 HD 
HETATM   16  N   UNL     1      -7.239  10.678  70.369  1.00  0.00    -0.460 NA 
HETATM   17  H2  UNL     1      -6.814  11.329  71.030  1.00  0.00     0.000 HD 
ENDBRANCH  12  14
BRANCH  13  18
HETATM   18  C   UNL     1     -10.556  11.288  66.546  1.00  0.00    -0.315 A  
HETATM   19  C   UNL     1     -10.140  10.721  65.335  1.00  0.00    -0.347 A  
HETATM   20  C   UNL     1     -11.625  12.194  66.539  1.00  0.00    -0.425 A  
HETATM   21  C   UNL     1     -12.203  12.600  65.334  1.00  0.00    -0.517 A  
HETATM   22  C   UNL     1     -11.748  12.072  64.131  1.00  0.00    -0.457 A  
HETATM   23  C   UNL     1     -10.737  11.112  64.133  1.00  0.00    -0.415 A  
ENDBRANCH  13  18
BRANCH  13  24
HETATM   24  C   UNL     1     -10.564  10.238  68.892  1.00  0.00    -0.242 A  
HETATM   25  C   UNL     1     -12.032  10.304  70.832  1.00  0.00    -0.473 A  
HETATM   26  C   UNL     1     -11.360  10.960  69.797  1.00  0.00    -0.374 A  
HETATM   27  C   UNL     1     -11.947   8.922  70.960  1.00  0.00    -0.261 A  
HETATM   28  C   UNL     1     -11.151   8.195  70.072  1.00  0.00    -0.146 A  
HETATM   29  C   UNL     1     -10.459   8.852  69.041  1.00  0.00    -0.231 A  
BRANCH  27  30
HETATM   30  O   UNL     1     -12.627   8.394  72.025  1.00  0.00    -0.321 OA 
HETATM   31  C   UNL     1     -13.868   9.010  72.348  1.00  0.00    -0.475 C  
ENDBRANCH  27  30
ENDBRANCH  13  24
ENDBRANCH  10  12
ENDBRANCH   9  10
ENDBRANCH   7   9
ENDBRANCH   3   4
ENDBRANCH   2   3
TORSDOF 9
ENDMDL
MODEL       10
REMARK 921   NORMALIZED FREE ENERGY PREDICTED BY IDOCK:   -5.73 KCAL/MOL
REMARK 922        TOTAL FREE ENERGY PREDICTED BY IDOCK:  -10.82 KCAL/MOL
REMARK 923 INTER-LIGAND FREE ENERGY PREDICTED BY IDOCK:   -9.10 KCAL/MOL
REMARK 924 INTRA-LIGAND FREE ENERGY PREDICTED BY IDOCK:   -1.72 KCAL/MOL
REMARK 927      BINDING AFFINITY PREDICTED BY RF-SCORE:    0.00 PKD
ROOT
HETATM    1  C   UNL     1     -12.221  15.047  73.881  1.00  0.00    -0.634 C  
HETATM    2  C   UNL     1     -12.865  15.921  72.813  1.00  0.00    -0.572 C  
ENDROOT
BRANCH   2   3
HETATM    3  C   UNL     1     -13.548  15.057  71.757  1.00  0.00    -0.524 C  
BRANCH   3   4
HETATM    4  C   UNL     1     -12.555  14.184  70.983  1.00  0.00    -0.439 C  
HETATM    5  C   UNL     1     -12.498  14.549  69.486  1.00  0.00    -0.162 C  
HETATM    6  C   UNL     1     -12.156  16.038  69.227  1.00  0.00    -0.088 C  
HETATM    7  C   UNL     1     -11.564  13.589  68.726  1.00  0.00    -0.325 C  
HETATM    8  C   UNL     1     -10.792  16.487  69.734  1.00  0.00    -0.302 C  
BRANCH   7   9
HETATM    9  O   UNL     1     -11.580  13.959  67.338  1.00  0.00    -0.327 OA 
BRANCH   9  10
HETATM   10  C   UNL     1     -10.490  13.713  66.576  1.00  0.00    -0.281 C  
HETATM   11  O   UNL     1     -10.181  12.631  66.103  1.00  0.00    -0.248 OA 
BRANCH  10  12
HETATM   12  C   UNL     1      -9.838  14.999  66.200  1.00  0.00    -0.325 C  
HETATM   13  C   UNL     1      -8.738  15.544  66.795  1.00  0.00    -0.302 C  
BRANCH  12  14
HETATM   14  C   UNL     1     -10.612  15.788  65.156  1.00  0.00    -0.411 C  
HETATM   15  H1  UNL     1     -11.773  16.971  63.589  1.00  0.00     0.000 HD 
HETATM   16  N   UNL     1     -11.254  16.442  64.290  1.00  0.00    -1.298 NA 
HETATM   17  H2  UNL     1     -11.220  16.291  63.282  1.00  0.00     0.000 HD 
ENDBRANCH  12  14
BRANCH  13  18
HETATM   18  C   UNL     1      -7.941  14.779  67.790  1.00  0.00    -0.167 A  
HETATM   19  C   UNL     1      -7.733  15.297  69.074  1.00  0.00    -0.183 A  
HETATM   20  C   UNL     1      -7.353  13.554  67.449  1.00  0.00    -0.124 A  
HETATM   21  C   UNL     1      -6.494  12.907  68.341  1.00  0.00    -0.082 A  
HETATM   22  C   UNL     1      -6.251  13.456  69.595  1.00  0.00    -0.120 A  
HETATM   23  C   UNL     1      -6.892  14.634  69.972  1.00  0.00    -0.094 A  
ENDBRANCH  13  18
BRANCH  13  24
HETATM   24  C   UNL     1      -8.372  16.957  66.493  1.00  0.00    -0.315 A  
HETATM   25  C   UNL     1      -6.721  18.566  65.714  1.00  0.00    -0.316 A  
HETATM   26  C   UNL     1      -7.094  17.248  65.988  1.00  0.00    -0.200 A  
HETATM   27  C   UNL     1      -7.624  19.606  65.908  1.00  0.00    -0.310 A  
HETATM   28  C   UNL     1      -8.894  19.330  66.419  1.00  0.00    -0.365 A  
HETATM   29  C   UNL     1      -9.267  18.007  66.713  1.00  0.00    -0.285 A  
BRANCH  27  30
HETATM   30  O   UNL     1      -7.139  20.857  65.629  1.00  0.00    -0.016 OA 
HETATM   31  C   UNL     1      -6.260  20.958  64.515  1.00  0.00    -0.282 C  
ENDBRANCH  27  30
ENDBRANCH  13  24
ENDBRANCH  10  12
ENDBRANCH   9  10
ENDBRANCH   7   9
ENDBRANCH   3   4
ENDBRANCH   2   3
TORSDOF 9
ENDMDL
MODEL       11
REMARK 921   NORMALIZED FREE ENERGY PREDICTED BY IDOCK:   -5.65 KCAL/MOL
REMARK 922        TOTAL FREE ENERGY PREDICTED BY IDOCK:  -10.69 KCAL/MOL
REMARK 923 INTER-LIGAND FREE ENERGY PREDICTED BY IDOCK:   -9.32 KCAL/MOL
REMARK 924 INTRA-LIGAND FREE ENERGY PREDICTED BY IDOCK:   -1.37 KCAL/MOL
REMARK 927      BINDING AFFINITY PREDICTED BY RF-SCORE:    0.00 PKD
ROOT
HETATM    1  C   UNL     1     -12.795  13.535  71.386  1.00  0.00    -0.440 C  
HETATM    2  C   UNL     1     -13.512  12.373  72.061  1.00  0.00    -0.460 C  
ENDROOT
BRANCH   2   3
HETATM    3  C   UNL     1     -12.822  11.054  71.728  1.00  0.00    -0.496 C  
BRANCH   3   4
HETATM    4  C   UNL     1     -12.541  10.900  70.230  1.00  0.00    -0.342 C  
HETATM    5  C   UNL     1     -11.036  10.746  69.930  1.00  0.00    -0.304 C  
HETATM    6  C   UNL     1     -10.374   9.565  70.683  1.00  0.00    -0.369 C  
HETATM    7  C   UNL     1     -10.786  10.692  68.411  1.00  0.00    -0.237 C  
HETATM    8  C   UNL     1     -10.927   8.188  70.340  1.00  0.00    -0.248 C  
BRANCH   7   9
HETATM    9  O   UNL     1      -9.371  10.583  68.197  1.00  0.00    -0.142 OA 
BRANCH   9  10
HETATM   10  C   UNL     1      -8.796  11.297  67.203  1.00  0.00    -0.153 C  
HETATM   11  O   UNL     1      -8.317  10.837  66.179  1.00  0.00    -0.156 OA 
BRANCH  10  12
HETATM   12  C   UNL     1      -9.035  12.751  67.425  1.00  0.00    -0.195 C  
HETATM   13  C   UNL     1      -9.808  13.564  66.649  1.00  0.00    -0.279 C  
BRANCH  12  14
HETATM   14  C   UNL     1      -8.190  13.341  68.543  1.00  0.00    -0.084 C  
HETATM   15  H1  UNL     1      -6.922  14.225  70.221  1.00  0.00     0.000 HD 
HETATM   16  N   UNL     1      -7.489  13.829  69.471  1.00  0.00    -0.319 NA 
HETATM   17  H2  UNL     1      -7.703  13.786  70.467  1.00  0.00     0.000 HD 
ENDBRANCH  12  14
BRANCH  13  18
HETATM   18  C   UNL     1     -10.674  13.009  65.575  1.00  0.00    -0.299 A  
HETATM   19  C   UNL     1     -10.117  12.622  64.351  1.00  0.00    -0.281 A  
HETATM   20  C   UNL     1     -12.060  12.903  65.754  1.00  0.00    -0.513 A  
HETATM   21  C   UNL     1     -12.884  12.511  64.696  1.00  0.00    -0.325 A  
HETATM   22  C   UNL     1     -12.326  12.179  63.466  1.00  0.00    -0.682 A  
HETATM   23  C   UNL     1     -10.942  12.208  63.302  1.00  0.00    -0.398 A  
ENDBRANCH  13  18
BRANCH  13  24
HETATM   24  C   UNL     1      -9.730  15.041  66.837  1.00  0.00    -0.247 A  
HETATM   25  C   UNL     1     -10.630  17.072  67.829  1.00  0.00    -0.350 A  
HETATM   26  C   UNL     1     -10.673  15.686  67.653  1.00  0.00    -0.302 A  
HETATM   27  C   UNL     1      -9.631  17.826  67.224  1.00  0.00    -0.272 A  
HETATM   28  C   UNL     1      -8.694  17.197  66.402  1.00  0.00    -0.291 A  
HETATM   29  C   UNL     1      -8.744  15.806  66.208  1.00  0.00    -0.358 A  
BRANCH  27  30
HETATM   30  O   UNL     1      -9.705  19.176  67.448  1.00  0.00    -0.306 OA 
HETATM   31  C   UNL     1     -10.463  19.930  66.510  1.00  0.00    -0.471 C  
ENDBRANCH  27  30
ENDBRANCH  13  24
ENDBRANCH  10  12
ENDBRANCH   9  10
ENDBRANCH   7   9
ENDBRANCH   3   4
ENDBRANCH   2   3
TORSDOF 9
ENDMDL
MODEL       12
REMARK 921   NORMALIZED FREE ENERGY PREDICTED BY IDOCK:   -5.65 KCAL/MOL
REMARK 922        TOTAL FREE ENERGY PREDICTED BY IDOCK:  -10.69 KCAL/MOL
REMARK 923 INTER-LIGAND FREE ENERGY PREDICTED BY IDOCK:   -8.65 KCAL/MOL
REMARK 924 INTRA-LIGAND FREE ENERGY PREDICTED BY IDOCK:   -2.03 KCAL/MOL
REMARK 927      BINDING AFFINITY PREDICTED BY RF-SCORE:    0.00 PKD
ROOT
HETATM    1  C   UNL     1     -10.291  15.539  65.948  1.00  0.00    -0.365 C  
HETATM    2  C   UNL     1     -11.302  14.801  65.081  1.00  0.00    -0.379 C  
ENDROOT
BRANCH   2   3
HETATM    3  C   UNL     1     -11.835  13.572  65.811  1.00  0.00    -0.403 C  
BRANCH   3   4
HETATM    4  C   UNL     1     -11.973  13.800  67.319  1.00  0.00    -0.436 C  
HETATM    5  C   UNL     1     -11.635  12.535  68.135  1.00  0.00    -0.390 C  
HETATM    6  C   UNL     1     -10.221  11.974  67.845  1.00  0.00    -0.203 C  
HETATM    7  C   UNL     1     -11.878  12.775  69.637  1.00  0.00    -0.317 C  
HETATM    8  C   UNL     1      -9.070  12.911  68.187  1.00  0.00    -0.207 C  
BRANCH   7   9
HETATM    9  O   UNL     1     -11.579  11.557  70.336  1.00  0.00    -0.281 OA 
BRANCH   9  10
HETATM   10  C   UNL     1     -12.476  10.545  70.313  1.00  0.00    -0.271 C  
HETATM   11  O   UNL     1     -13.372  10.405  69.496  1.00  0.00     0.348 OA 
BRANCH  10  12
HETATM   12  C   UNL     1     -12.074   9.493  71.290  1.00  0.00    -0.443 C  
HETATM   13  C   UNL     1     -10.975   8.690  71.196  1.00  0.00    -0.320 C  
BRANCH  12  14
HETATM   14  C   UNL     1     -13.107   9.250  72.378  1.00  0.00    -0.406 C  
HETATM   15  H1  UNL     1     -14.658   8.886  74.011  1.00  0.00     0.000 HD 
HETATM   16  N   UNL     1     -13.964   9.049  73.281  1.00  0.00    -1.199 NA 
HETATM   17  H2  UNL     1     -14.902   9.450  73.314  1.00  0.00     0.000 HD 
ENDBRANCH  12  14
BRANCH  13  18
HETATM   18  C   UNL     1      -9.930   8.930  70.165  1.00  0.00    -0.207 A  
HETATM   19  C   UNL     1     -10.110   8.464  68.857  1.00  0.00    -0.209 A  
HETATM   20  C   UNL     1      -8.736   9.586  70.493  1.00  0.00    -0.247 A  
HETATM   21  C   UNL     1      -7.703   9.688  69.559  1.00  0.00    -0.109 A  
HETATM   22  C   UNL     1      -7.870   9.174  68.277  1.00  0.00    -0.102 A  
HETATM   23  C   UNL     1      -9.083   8.588  67.918  1.00  0.00    -0.145 A  
ENDBRANCH  13  18
BRANCH  13  24
HETATM   24  C   UNL     1     -10.857   7.509  72.097  1.00  0.00    -0.282 A  
HETATM   25  C   UNL     1     -11.411   5.191  72.587  1.00  0.00    -0.254 A  
HETATM   26  C   UNL     1     -11.493   6.306  71.749  1.00  0.00    -0.355 A  
HETATM   27  C   UNL     1     -10.670   5.249  73.763  1.00  0.00    -0.294 A  
HETATM   28  C   UNL     1     -10.041   6.442  74.124  1.00  0.00    -0.353 A  
HETATM   29  C   UNL     1     -10.136   7.572  73.293  1.00  0.00    -0.386 A  
BRANCH  27  30
HETATM   30  O   UNL     1     -10.682   4.103  74.515  1.00  0.00    -0.217 OA 
HETATM   31  C   UNL     1     -10.974   2.897  73.820  1.00  0.00    -0.222 C  
ENDBRANCH  27  30
ENDBRANCH  13  24
ENDBRANCH  10  12
ENDBRANCH   9  10
ENDBRANCH   7   9
ENDBRANCH   3   4
ENDBRANCH   2   3
TORSDOF 9
ENDMDL
MODEL       13
REMARK 921   NORMALIZED FREE ENERGY PREDICTED BY IDOCK:   -5.64 KCAL/MOL
REMARK 922        TOTAL FREE ENERGY PREDICTED BY IDOCK:  -10.67 KCAL/MOL
REMARK 923 INTER-LIGAND FREE ENERGY PREDICTED BY IDOCK:   -9.51 KCAL/MOL
REMARK 924 INTRA-LIGAND FREE ENERGY PREDICTED BY IDOCK:   -1.17 KCAL/MOL
REMARK 927      BINDING AFFINITY PREDICTED BY RF-SCORE:    0.00 PKD
ROOT
HETATM    1  C   UNL     1     -10.757  19.297  67.217  1.00  0.00    -0.594 C  
HETATM    2  C   UNL     1      -9.744  18.357  67.856  1.00  0.00    -0.325 C  
ENDROOT
BRANCH   2   3
HETATM    3  C   UNL     1     -10.402  17.532  68.958  1.00  0.00    -0.303 C  
BRANCH   3   4
HETATM    4  C   UNL     1     -11.177  16.331  68.407  1.00  0.00    -0.349 C  
HETATM    5  C   UNL     1     -10.963  15.059  69.253  1.00  0.00    -0.269 C  
HETATM    6  C   UNL     1     -11.328  15.243  70.748  1.00  0.00    -0.365 C  
HETATM    7  C   UNL     1     -11.679  13.853  68.615  1.00  0.00    -0.361 C  
HETATM    8  C   UNL     1     -12.787  15.585  71.020  1.00  0.00    -0.543 C  
BRANCH   7   9
HETATM    9  O   UNL     1     -11.415  12.699  69.427  1.00  0.00    -0.276 OA 
BRANCH   9  10
HETATM   10  C   UNL     1     -11.794  11.478  68.985  1.00  0.00    -0.343 C  
HETATM   11  O   UNL     1     -12.097  11.199  67.836  1.00  0.00    -0.627 OA 
BRANCH  10  12
HETATM   12  C   UNL     1     -11.568  10.463  70.052  1.00  0.00    -0.378 C  
HETATM   13  C   UNL     1     -10.743   9.380  69.966  1.00  0.00    -0.270 C  
BRANCH  12  14
HETATM   14  C   UNL     1     -12.485  10.631  71.253  1.00  0.00    -0.410 C  
HETATM   15  H1  UNL     1     -13.862  10.883  73.054  1.00  0.00     0.000 HD 
HETATM   16  N   UNL     1     -13.246  10.770  72.249  1.00  0.00    -0.567 NA 
HETATM   17  H2  UNL     1     -14.168  10.348  72.359  1.00  0.00     0.000 HD 
ENDBRANCH  12  14
BRANCH  13  18
HETATM   18  C   UNL     1      -9.809   9.212  68.822  1.00  0.00    -0.175 A  
HETATM   19  C   UNL     1      -8.568   9.860  68.823  1.00  0.00    -0.130 A  
HETATM   20  C   UNL     1     -10.168   8.439  67.709  1.00  0.00    -0.283 A  
HETATM   21  C   UNL     1      -9.347   8.394  66.580  1.00  0.00    -0.245 A  
HETATM   22  C   UNL     1      -8.140   9.086  66.570  1.00  0.00    -0.111 A  
HETATM   23  C   UNL     1      -7.738   9.795  67.701  1.00  0.00    -0.094 A  
ENDBRANCH  13  18
BRANCH  13  24
HETATM   24  C   UNL     1     -10.831   8.312  71.002  1.00  0.00    -0.269 A  
HETATM   25  C   UNL     1     -10.091   7.405  73.135  1.00  0.00    -0.342 A  
HETATM   26  C   UNL     1     -10.038   8.402  72.158  1.00  0.00    -0.376 A  
HETATM   27  C   UNL     1     -10.955   6.325  72.990  1.00  0.00    -0.242 A  
HETATM   28  C   UNL     1     -11.741   6.220  71.841  1.00  0.00    -0.370 A  
HETATM   29  C   UNL     1     -11.678   7.212  70.847  1.00  0.00    -0.367 A  
BRANCH  27  30
HETATM   30  O   UNL     1     -10.902   5.398  73.998  1.00  0.00    -0.264 OA 
HETATM   31  C   UNL     1     -11.000   4.034  73.607  1.00  0.00    -0.260 C  
ENDBRANCH  27  30
ENDBRANCH  13  24
ENDBRANCH  10  12
ENDBRANCH   9  10
ENDBRANCH   7   9
ENDBRANCH   3   4
ENDBRANCH   2   3
TORSDOF 9
ENDMDL
MODEL       14
REMARK 921   NORMALIZED FREE ENERGY PREDICTED BY IDOCK:   -5.63 KCAL/MOL
REMARK 922        TOTAL FREE ENERGY PREDICTED BY IDOCK:  -10.66 KCAL/MOL
REMARK 923 INTER-LIGAND FREE ENERGY PREDICTED BY IDOCK:   -8.55 KCAL/MOL
REMARK 924 INTRA-LIGAND FREE ENERGY PREDICTED BY IDOCK:   -2.12 KCAL/MOL
REMARK 927      BINDING AFFINITY PREDICTED BY RF-SCORE:    0.00 PKD
ROOT
HETATM    1  C   UNL     1     -13.477  14.062  72.348  1.00  0.00    -0.639 C  
HETATM    2  C   UNL     1     -12.976  14.223  70.919  1.00  0.00    -0.395 C  
ENDROOT
BRANCH   2   3
HETATM    3  C   UNL     1     -12.305  15.581  70.739  1.00  0.00    -0.463 C  
BRANCH   3   4
HETATM    4  C   UNL     1     -10.798  15.462  70.488  1.00  0.00    -0.327 C  
HETATM    5  C   UNL     1     -10.481  14.958  69.066  1.00  0.00    -0.247 C  
HETATM    6  C   UNL     1     -11.102  15.831  67.948  1.00  0.00    -0.326 C  
HETATM    7  C   UNL     1      -8.964  14.760  68.884  1.00  0.00    -0.167 C  
HETATM    8  C   UNL     1     -10.617  17.274  67.908  1.00  0.00    -0.384 C  
BRANCH   7   9
HETATM    9  O   UNL     1      -8.736  14.259  67.558  1.00  0.00    -0.177 OA 
BRANCH   9  10
HETATM   10  C   UNL     1      -7.953  13.170  67.387  1.00  0.00    -0.171 C  
HETATM   11  O   UNL     1      -6.842  13.164  66.881  1.00  0.00     0.056 OA 
BRANCH  10  12
HETATM   12  C   UNL     1      -8.538  12.010  68.116  1.00  0.00    -0.173 C  
HETATM   13  C   UNL     1      -9.755  11.442  67.874  1.00  0.00    -0.186 C  
BRANCH  12  14
HETATM   14  C   UNL     1      -7.717  11.572  69.319  1.00  0.00     0.112 C  
HETATM   15  H1  UNL     1      -6.485  10.915  71.123  1.00  0.00     0.000 HD 
HETATM   16  N   UNL     1      -7.036  11.209  70.316  1.00  0.00    -0.423 NA 
HETATM   17  H2  UNL     1      -7.215  10.388  70.894  1.00  0.00     0.000 HD 
ENDBRANCH  12  14
BRANCH  13  18
HETATM   18  C   UNL     1     -10.561  11.824  66.684  1.00  0.00    -0.275 A  
HETATM   19  C   UNL     1     -10.143  11.452  65.401  1.00  0.00    -0.308 A  
HETATM   20  C   UNL     1     -11.724  12.595  66.822  1.00  0.00    -0.460 A  
HETATM   21  C   UNL     1     -12.400  13.066  65.695  1.00  0.00    -0.504 A  
HETATM   22  C   UNL     1     -11.947  12.735  64.422  1.00  0.00    -0.464 A  
HETATM   23  C   UNL     1     -10.836  11.906  64.276  1.00  0.00    -0.396 A  
ENDBRANCH  13  18
BRANCH  13  24
HETATM   24  C   UNL     1     -10.317  10.475  68.859  1.00  0.00    -0.226 A  
HETATM   25  C   UNL     1     -10.654   8.170  69.563  1.00  0.00    -0.215 A  
HETATM   26  C   UNL     1     -10.122   9.097  68.663  1.00  0.00    -0.212 A  
HETATM   27  C   UNL     1     -11.356   8.601  70.683  1.00  0.00    -0.247 A  
HETATM   28  C   UNL     1     -11.564   9.968  70.882  1.00  0.00    -0.463 A  
HETATM   29  C   UNL     1     -11.047  10.903  69.970  1.00  0.00    -0.285 A  
BRANCH  27  30
HETATM   30  O   UNL     1     -11.851   7.602  71.480  1.00  0.00    -0.276 OA 
HETATM   31  C   UNL     1     -11.398   6.284  71.192  1.00  0.00    -0.303 C  
ENDBRANCH  27  30
ENDBRANCH  13  24
ENDBRANCH  10  12
ENDBRANCH   9  10
ENDBRANCH   7   9
ENDBRANCH   3   4
ENDBRANCH   2   3
TORSDOF 9
ENDMDL
MODEL       15
REMARK 921   NORMALIZED FREE ENERGY PREDICTED BY IDOCK:   -5.61 KCAL/MOL
REMARK 922        TOTAL FREE ENERGY PREDICTED BY IDOCK:  -10.63 KCAL/MOL
REMARK 923 INTER-LIGAND FREE ENERGY PREDICTED BY IDOCK:   -9.18 KCAL/MOL
REMARK 924 INTRA-LIGAND FREE ENERGY PREDICTED BY IDOCK:   -1.45 KCAL/MOL
REMARK 927      BINDING AFFINITY PREDICTED BY RF-SCORE:    0.00 PKD
ROOT
HETATM    1  C   UNL     1     -10.479  19.628  66.547  1.00  0.00    -0.612 C  
HETATM    2  C   UNL     1     -10.277  19.670  68.056  1.00  0.00    -0.579 C  
ENDROOT
BRANCH   2   3
HETATM    3  C   UNL     1      -9.934  18.281  68.587  1.00  0.00    -0.410 C  
BRANCH   3   4
HETATM    4  C   UNL     1     -10.749  17.176  67.908  1.00  0.00    -0.355 C  
HETATM    5  C   UNL     1     -10.336  15.768  68.386  1.00  0.00    -0.233 C  
HETATM    6  C   UNL     1     -10.432  15.585  69.921  1.00  0.00    -0.323 C  
HETATM    7  C   UNL     1     -11.109  14.683  67.613  1.00  0.00    -0.304 C  
HETATM    8  C   UNL     1     -11.830  15.741  70.506  1.00  0.00    -0.402 C  
BRANCH   7   9
HETATM    9  O   UNL     1     -10.658  13.401  68.076  1.00  0.00    -0.232 OA 
BRANCH   9  10
HETATM   10  C   UNL     1     -11.501  12.344  68.022  1.00  0.00    -0.322 C  
HETATM   11  O   UNL     1     -12.183  12.025  67.061  1.00  0.00    -0.516 OA 
BRANCH  10  12
HETATM   12  C   UNL     1     -11.308  11.484  69.224  1.00  0.00    -0.353 C  
HETATM   13  C   UNL     1     -10.608  10.314  69.267  1.00  0.00    -0.254 C  
BRANCH  12  14
HETATM   14  C   UNL     1     -12.117  11.936  70.429  1.00  0.00    -0.333 C  
HETATM   15  H1  UNL     1     -13.331  12.614  72.237  1.00  0.00     0.000 HD 
HETATM   16  N   UNL     1     -12.788  12.311  71.428  1.00  0.00    -0.339 NA 
HETATM   17  H2  UNL     1     -13.797  12.463  71.447  1.00  0.00     0.000 HD 
ENDBRANCH  12  14
BRANCH  13  18
HETATM   18  C   UNL     1      -9.778   9.868  68.117  1.00  0.00    -0.161 A  
HETATM   19  C   UNL     1     -10.233   8.848  67.273  1.00  0.00    -0.326 A  
HETATM   20  C   UNL     1      -8.515  10.429  67.884  1.00  0.00    -0.114 A  
HETATM   21  C   UNL     1      -7.683   9.914  66.887  1.00  0.00    -0.098 A  
HETATM   22  C   UNL     1      -8.123   8.864  66.087  1.00  0.00    -0.114 A  
HETATM   23  C   UNL     1      -9.407   8.351  66.261  1.00  0.00    -0.283 A  
ENDBRANCH  13  18
BRANCH  13  24
HETATM   24  C   UNL     1     -10.735   9.433  70.463  1.00  0.00    -0.335 A  
HETATM   25  C   UNL     1      -9.699   8.352  72.381  1.00  0.00    -0.376 A  
HETATM   26  C   UNL     1      -9.608   9.188  71.265  1.00  0.00    -0.331 A  
HETATM   27  C   UNL     1     -10.915   7.777  72.731  1.00  0.00    -0.388 A  
HETATM   28  C   UNL     1     -12.040   8.006  71.935  1.00  0.00    -0.359 A  
HETATM   29  C   UNL     1     -11.950   8.832  70.802  1.00  0.00    -0.161 A  
BRANCH  27  30
HETATM   30  O   UNL     1     -10.877   6.957  73.829  1.00  0.00    -0.289 OA 
HETATM   31  C   UNL     1     -10.787   5.562  73.570  1.00  0.00    -0.276 C  
ENDBRANCH  27  30
ENDBRANCH  13  24
ENDBRANCH  10  12
ENDBRANCH   9  10
ENDBRANCH   7   9
ENDBRANCH   3   4
ENDBRANCH   2   3
TORSDOF 9
ENDMDL
MODEL       16
REMARK 921   NORMALIZED FREE ENERGY PREDICTED BY IDOCK:   -5.59 KCAL/MOL
REMARK 922        TOTAL FREE ENERGY PREDICTED BY IDOCK:  -10.59 KCAL/MOL
REMARK 923 INTER-LIGAND FREE ENERGY PREDICTED BY IDOCK:   -9.04 KCAL/MOL
REMARK 924 INTRA-LIGAND FREE ENERGY PREDICTED BY IDOCK:   -1.55 KCAL/MOL
REMARK 927      BINDING AFFINITY PREDICTED BY RF-SCORE:    0.00 PKD
ROOT
HETATM    1  C   UNL     1     -10.461   5.433  71.667  1.00  0.00    -0.291 C  
HETATM    2  C   UNL     1     -10.400   5.318  70.150  1.00  0.00    -0.354 C  
ENDROOT
BRANCH   2   3
HETATM    3  C   UNL     1     -11.193   6.446  69.497  1.00  0.00    -0.477 C  
BRANCH   3   4
HETATM    4  C   UNL     1     -10.289   7.517  68.879  1.00  0.00    -0.220 C  
HETATM    5  C   UNL     1     -10.668   8.939  69.341  1.00  0.00    -0.192 C  
HETATM    6  C   UNL     1     -10.659   9.110  70.881  1.00  0.00    -0.341 C  
HETATM    7  C   UNL     1      -9.801   9.993  68.626  1.00  0.00    -0.160 C  
HETATM    8  C   UNL     1      -9.309   8.888  71.549  1.00  0.00    -0.335 C  
BRANCH   7   9
HETATM    9  O   UNL     1     -10.222  11.291  69.071  1.00  0.00    -0.205 OA 
BRANCH   9  10
HETATM   10  C   UNL     1     -11.294  11.874  68.488  1.00  0.00    -0.276 C  
HETATM   11  O   UNL     1     -12.420  11.406  68.437  1.00  0.00    -0.379 OA 
BRANCH  10  12
HETATM   12  C   UNL     1     -10.963  13.279  68.115  1.00  0.00    -0.278 C  
HETATM   13  C   UNL     1     -10.678  13.729  66.859  1.00  0.00    -0.280 C  
BRANCH  12  14
HETATM   14  C   UNL     1     -10.797  14.200  69.312  1.00  0.00    -0.190 C  
HETATM   15  H1  UNL     1     -10.549  15.583  71.110  1.00  0.00     0.000 HD 
HETATM   16  N   UNL     1     -10.660  14.965  70.306  1.00  0.00    -0.486 NA 
HETATM   17  H2  UNL     1     -11.333  15.087  71.063  1.00  0.00     0.000 HD 
ENDBRANCH  12  14
BRANCH  13  18
HETATM   18  C   UNL     1     -10.869  12.860  65.667  1.00  0.00    -0.296 A  
HETATM   19  C   UNL     1      -9.828  12.036  65.222  1.00  0.00    -0.236 A  
HETATM   20  C   UNL     1     -12.072  12.883  64.948  1.00  0.00    -0.479 A  
HETATM   21  C   UNL     1     -12.197  12.170  63.753  1.00  0.00    -0.630 A  
HETATM   22  C   UNL     1     -11.139  11.395  63.291  1.00  0.00    -0.204 A  
HETATM   23  C   UNL     1      -9.966  11.306  64.039  1.00  0.00    -0.362 A  
ENDBRANCH  13  18
BRANCH  13  24
HETATM   24  C   UNL     1     -10.100  15.091  66.687  1.00  0.00    -0.267 A  
HETATM   25  C   UNL     1     -10.431  17.497  66.536  1.00  0.00    -0.270 A  
HETATM   26  C   UNL     1     -10.948  16.211  66.712  1.00  0.00    -0.080 A  
HETATM   27  C   UNL     1      -9.064  17.688  66.364  1.00  0.00    -0.234 A  
HETATM   28  C   UNL     1      -8.213  16.581  66.327  1.00  0.00    -0.360 A  
HETATM   29  C   UNL     1      -8.731  15.285  66.487  1.00  0.00    -0.314 A  
BRANCH  27  30
HETATM   30  O   UNL     1      -8.677  18.989  66.176  1.00  0.00    -0.413 OA 
HETATM   31  C   UNL     1      -9.707  19.968  66.244  1.00  0.00    -0.433 C  
ENDBRANCH  27  30
ENDBRANCH  13  24
ENDBRANCH  10  12
ENDBRANCH   9  10
ENDBRANCH   7   9
ENDBRANCH   3   4
ENDBRANCH   2   3
TORSDOF 9
ENDMDL
MODEL       17
REMARK 921   NORMALIZED FREE ENERGY PREDICTED BY IDOCK:   -5.44 KCAL/MOL
REMARK 922        TOTAL FREE ENERGY PREDICTED BY IDOCK:  -10.37 KCAL/MOL
REMARK 923 INTER-LIGAND FREE ENERGY PREDICTED BY IDOCK:   -8.65 KCAL/MOL
REMARK 924 INTRA-LIGAND FREE ENERGY PREDICTED BY IDOCK:   -1.72 KCAL/MOL
REMARK 927      BINDING AFFINITY PREDICTED BY RF-SCORE:    0.00 PKD
ROOT
HETATM    1  C   UNL     1      -7.497   8.167  73.473  1.00  0.00    -0.197 C  
HETATM    2  C   UNL     1      -8.965   7.859  73.739  1.00  0.00    -0.324 C  
ENDROOT
BRANCH   2   3
HETATM    3  C   UNL     1      -9.561   7.065  72.581  1.00  0.00    -0.165 C  
BRANCH   3   4
HETATM    4  C   UNL     1     -10.825   7.718  72.011  1.00  0.00    -0.295 C  
HETATM    5  C   UNL     1     -10.573   9.164  71.539  1.00  0.00    -0.428 C  
HETATM    6  C   UNL     1      -9.438   9.283  70.492  1.00  0.00    -0.317 C  
HETATM    7  C   UNL     1     -11.885   9.818  71.063  1.00  0.00    -0.356 C  
HETATM    8  C   UNL     1      -9.683   8.541  69.184  1.00  0.00    -0.170 C  
BRANCH   7   9
HETATM    9  O   UNL     1     -11.592  11.168  70.671  1.00  0.00    -0.286 OA 
BRANCH   9  10
HETATM   10  C   UNL     1     -11.883  11.567  69.412  1.00  0.00    -0.350 C  
HETATM   11  O   UNL     1     -12.508  10.923  68.586  1.00  0.00    -0.418 OA 
BRANCH  10  12
HETATM   12  C   UNL     1     -11.531  13.006  69.247  1.00  0.00    -0.348 C  
HETATM   13  C   UNL     1     -10.795  13.540  68.230  1.00  0.00    -0.277 C  
BRANCH  12  14
HETATM   14  C   UNL     1     -11.933  13.868  70.434  1.00  0.00    -0.323 C  
HETATM   15  H1  UNL     1     -12.536  15.160  72.214  1.00  0.00     0.000 HD 
HETATM   16  N   UNL     1     -12.266  14.583  71.418  1.00  0.00    -0.346 NA 
HETATM   17  H2  UNL     1     -13.215  14.708  71.770  1.00  0.00     0.000 HD 
ENDBRANCH  12  14
BRANCH  13  18
HETATM   18  C   UNL     1     -10.423  12.730  67.040  1.00  0.00    -0.245 A  
HETATM   19  C   UNL     1     -11.217  12.763  65.888  1.00  0.00    -0.334 A  
HETATM   20  C   UNL     1      -9.299  11.893  67.066  1.00  0.00    -0.188 A  
HETATM   21  C   UNL     1      -9.031  11.032  65.999  1.00  0.00    -0.209 A  
HETATM   22  C   UNL     1      -9.857  11.033  64.880  1.00  0.00    -0.327 A  
HETATM   23  C   UNL     1     -10.932  11.917  64.813  1.00  0.00    -0.366 A  
ENDBRANCH  13  18
BRANCH  13  24
HETATM   24  C   UNL     1     -10.297  14.940  68.348  1.00  0.00    -0.233 A  
HETATM   25  C   UNL     1     -10.672  17.324  68.036  1.00  0.00    -0.367 A  
HETATM   26  C   UNL     1     -11.123  16.004  67.951  1.00  0.00    -0.307 A  
HETATM   27  C   UNL     1      -9.408  17.603  68.545  1.00  0.00    -0.291 A  
HETATM   28  C   UNL     1      -8.575  16.552  68.934  1.00  0.00    -0.241 A  
HETATM   29  C   UNL     1      -9.018  15.222  68.834  1.00  0.00    -0.209 A  
BRANCH  27  30
HETATM   30  O   UNL     1      -9.066  18.929  68.557  1.00  0.00    -0.330 OA 
HETATM   31  C   UNL     1      -9.844  19.789  67.733  1.00  0.00    -0.398 C  
ENDBRANCH  27  30
ENDBRANCH  13  24
ENDBRANCH  10  12
ENDBRANCH   9  10
ENDBRANCH   7   9
ENDBRANCH   3   4
ENDBRANCH   2   3
TORSDOF 9
ENDMDL
MODEL       18
REMARK 921   NORMALIZED FREE ENERGY PREDICTED BY IDOCK:   -5.42 KCAL/MOL
REMARK 922        TOTAL FREE ENERGY PREDICTED BY IDOCK:  -10.35 KCAL/MOL
REMARK 923 INTER-LIGAND FREE ENERGY PREDICTED BY IDOCK:   -8.84 KCAL/MOL
REMARK 924 INTRA-LIGAND FREE ENERGY PREDICTED BY IDOCK:   -1.51 KCAL/MOL
REMARK 927      BINDING AFFINITY PREDICTED BY RF-SCORE:    0.00 PKD
ROOT
HETATM    1  C   UNL     1      -8.966   5.470  69.517  1.00  0.00    -0.129 C  
HETATM    2  C   UNL     1     -10.348   5.331  70.141  1.00  0.00    -0.354 C  
ENDROOT
BRANCH   2   3
HETATM    3  C   UNL     1     -11.207   6.549  69.812  1.00  0.00    -0.456 C  
BRANCH   3   4
HETATM    4  C   UNL     1     -10.470   7.567  68.937  1.00  0.00    -0.214 C  
HETATM    5  C   UNL     1     -10.691   9.017  69.413  1.00  0.00    -0.202 C  
HETATM    6  C   UNL     1     -10.287   9.249  70.891  1.00  0.00    -0.367 C  
HETATM    7  C   UNL     1     -10.015  10.015  68.454  1.00  0.00    -0.160 C  
HETATM    8  C   UNL     1      -8.815   9.013  71.204  1.00  0.00    -0.282 C  
BRANCH   7   9
HETATM    9  O   UNL     1     -10.284  11.342  68.931  1.00  0.00    -0.207 OA 
BRANCH   9  10
HETATM   10  C   UNL     1     -11.367  12.005  68.466  1.00  0.00    -0.272 C  
HETATM   11  O   UNL     1     -12.513  11.584  68.461  1.00  0.00    -0.328 OA 
BRANCH  10  12
HETATM   12  C   UNL     1     -11.003  13.419  68.169  1.00  0.00    -0.277 C  
HETATM   13  C   UNL     1     -10.728  13.934  66.936  1.00  0.00    -0.284 C  
BRANCH  12  14
HETATM   14  C   UNL     1     -10.790  14.265  69.414  1.00  0.00    -0.168 C  
HETATM   15  H1  UNL     1     -10.472  15.533  71.284  1.00  0.00     0.000 HD 
HETATM   16  N   UNL     1     -10.615  14.966  70.448  1.00  0.00    -0.506 NA 
HETATM   17  H2  UNL     1     -11.339  15.250  71.107  1.00  0.00     0.000 HD 
ENDBRANCH  12  14
BRANCH  13  18
HETATM   18  C   UNL     1     -10.964  13.142  65.700  1.00  0.00    -0.295 A  
HETATM   19  C   UNL     1     -12.166  13.277  64.995  1.00  0.00    -0.477 A  
HETATM   20  C   UNL     1     -10.009  12.223  65.244  1.00  0.00    -0.250 A  
HETATM   21  C   UNL     1     -10.291  11.384  64.163  1.00  0.00    -0.400 A  
HETATM   22  C   UNL     1     -11.511  11.488  63.502  1.00  0.00    -0.334 A  
HETATM   23  C   UNL     1     -12.435  12.452  63.899  1.00  0.00    -0.573 A  
ENDBRANCH  13  18
BRANCH  13  24
HETATM   24  C   UNL     1     -10.114  15.288  66.832  1.00  0.00    -0.257 A  
HETATM   25  C   UNL     1      -8.153  16.667  66.414  1.00  0.00    -0.359 A  
HETATM   26  C   UNL     1      -8.755  15.409  66.500  1.00  0.00    -0.335 A  
HETATM   27  C   UNL     1      -8.902  17.819  66.625  1.00  0.00    -0.264 A  
HETATM   28  C   UNL     1     -10.252  17.712  66.966  1.00  0.00    -0.332 A  
HETATM   29  C   UNL     1     -10.857  16.448  67.071  1.00  0.00    -0.145 A  
BRANCH  27  30
HETATM   30  O   UNL     1      -8.200  18.993  66.539  1.00  0.00    -0.280 OA 
HETATM   31  C   UNL     1      -8.891  20.171  66.936  1.00  0.00    -0.332 C  
ENDBRANCH  27  30
ENDBRANCH  13  24
ENDBRANCH  10  12
ENDBRANCH   9  10
ENDBRANCH   7   9
ENDBRANCH   3   4
ENDBRANCH   2   3
TORSDOF 9
ENDMDL
MODEL       19
REMARK 921   NORMALIZED FREE ENERGY PREDICTED BY IDOCK:   -5.42 KCAL/MOL
REMARK 922        TOTAL FREE ENERGY PREDICTED BY IDOCK:  -10.35 KCAL/MOL
REMARK 923 INTER-LIGAND FREE ENERGY PREDICTED BY IDOCK:   -9.20 KCAL/MOL
REMARK 924 INTRA-LIGAND FREE ENERGY PREDICTED BY IDOCK:   -1.15 KCAL/MOL
REMARK 927      BINDING AFFINITY PREDICTED BY RF-SCORE:    0.00 PKD
ROOT
HETATM    1  C   UNL     1      -7.760   8.794  64.030  1.00  0.00    -0.131 C  
HETATM    2  C   UNL     1      -8.600   9.416  62.922  1.00  0.00    -0.222 C  
ENDROOT
BRANCH   2   3
HETATM    3  C   UNL     1      -9.249  10.709  63.407  1.00  0.00    -0.289 C  
BRANCH   3   4
HETATM    4  C   UNL     1     -10.094  10.504  64.668  1.00  0.00    -0.408 C  
HETATM    5  C   UNL     1     -10.559  11.840  65.283  1.00  0.00    -0.327 C  
HETATM    6  C   UNL     1     -11.351  12.732  64.295  1.00  0.00    -0.416 C  
HETATM    7  C   UNL     1     -11.323  11.596  66.599  1.00  0.00    -0.270 C  
HETATM    8  C   UNL     1     -12.651  12.129  63.778  1.00  0.00    -0.585 C  
BRANCH   7   9
HETATM    9  O   UNL     1     -11.699  12.873  67.138  1.00  0.00    -0.344 OA 
BRANCH   9  10
HETATM   10  C   UNL     1     -11.241  13.237  68.357  1.00  0.00    -0.280 C  
HETATM   11  O   UNL     1     -11.237  12.534  69.356  1.00  0.00    -0.225 OA 
BRANCH  10  12
HETATM   12  C   UNL     1     -10.526  14.541  68.258  1.00  0.00    -0.242 C  
HETATM   13  C   UNL     1     -10.728  15.628  69.057  1.00  0.00    -0.236 C  
BRANCH  12  14
HETATM   14  C   UNL     1      -9.617  14.643  67.044  1.00  0.00    -0.240 C  
HETATM   15  H1  UNL     1      -8.254  14.797  65.222  1.00  0.00     0.000 HD 
HETATM   16  N   UNL     1      -8.864  14.728  66.036  1.00  0.00    -0.413 NA 
HETATM   17  H2  UNL     1      -8.513  15.593  65.624  1.00  0.00     0.000 HD 
ENDBRANCH  12  14
BRANCH  13  18
HETATM   18  C   UNL     1     -11.581  15.545  70.272  1.00  0.00    -0.355 A  
HETATM   19  C   UNL     1     -10.994  15.467  71.541  1.00  0.00    -0.151 A  
HETATM   20  C   UNL     1     -12.978  15.500  70.167  1.00  0.00    -0.035 A  
HETATM   21  C   UNL     1     -13.768  15.284  71.298  1.00  0.00    -0.570 A  
HETATM   22  C   UNL     1     -13.173  15.155  72.549  1.00  0.00    -0.505 A  
HETATM   23  C   UNL     1     -11.790  15.275  72.673  1.00  0.00    -0.533 A  
ENDBRANCH  13  18
BRANCH  13  24
HETATM   24  C   UNL     1     -10.140  16.940  68.664  1.00  0.00    -0.291 A  
HETATM   25  C   UNL     1     -10.365  19.065  67.500  1.00  0.00    -0.503 A  
HETATM   26  C   UNL     1     -10.901  17.837  67.896  1.00  0.00    -0.229 A  
HETATM   27  C   UNL     1      -9.081  19.429  67.889  1.00  0.00    -0.321 A  
HETATM   28  C   UNL     1      -8.312  18.542  68.645  1.00  0.00    -0.330 A  
HETATM   29  C   UNL     1      -8.840  17.298  69.030  1.00  0.00    -0.081 A  
BRANCH  27  30
HETATM   30  O   UNL     1      -8.654  20.645  67.422  1.00  0.00    -0.329 OA 
HETATM   31  C   UNL     1      -7.259  20.770  67.174  1.00  0.00    -0.337 C  
ENDBRANCH  27  30
ENDBRANCH  13  24
ENDBRANCH  10  12
ENDBRANCH   9  10
ENDBRANCH   7   9
ENDBRANCH   3   4
ENDBRANCH   2   3
TORSDOF 9
ENDMDL
MODEL       20
REMARK 921   NORMALIZED FREE ENERGY PREDICTED BY IDOCK:   -5.40 KCAL/MOL
REMARK 922        TOTAL FREE ENERGY PREDICTED BY IDOCK:  -10.32 KCAL/MOL
REMARK 923 INTER-LIGAND FREE ENERGY PREDICTED BY IDOCK:   -8.19 KCAL/MOL
REMARK 924 INTRA-LIGAND FREE ENERGY PREDICTED BY IDOCK:   -2.13 KCAL/MOL
REMARK 927      BINDING AFFINITY PREDICTED BY RF-SCORE:    0.00 PKD
ROOT
HETATM    1  C   UNL     1      -7.926   8.098  62.897  1.00  0.00    -0.157 C  
HETATM    2  C   UNL     1      -8.439   9.238  63.766  1.00  0.00    -0.197 C  
ENDROOT
BRANCH   2   3
HETATM    3  C   UNL     1      -8.676   8.756  65.194  1.00  0.00    -0.202 C  
BRANCH   3   4
HETATM    4  C   UNL     1      -8.244   9.789  66.240  1.00  0.00    -0.116 C  
HETATM    5  C   UNL     1      -9.414  10.231  67.143  1.00  0.00    -0.184 C  
HETATM    6  C   UNL     1     -10.114   9.054  67.867  1.00  0.00    -0.246 C  
HETATM    7  C   UNL     1      -8.963  11.337  68.116  1.00  0.00    -0.166 C  
HETATM    8  C   UNL     1      -9.231   8.266  68.825  1.00  0.00    -0.143 C  
BRANCH   7   9
HETATM    9  O   UNL     1     -10.099  11.728  68.902  1.00  0.00    -0.174 OA 
BRANCH   9  10
HETATM   10  C   UNL     1     -11.133  12.359  68.300  1.00  0.00    -0.243 C  
HETATM   11  O   UNL     1     -12.265  11.918  68.180  1.00  0.00    -0.470 OA 
BRANCH  10  12
HETATM   12  C   UNL     1     -10.759  13.772  68.006  1.00  0.00    -0.260 C  
HETATM   13  C   UNL     1     -10.606  14.319  66.766  1.00  0.00    -0.278 C  
BRANCH  12  14
HETATM   14  C   UNL     1     -10.383  14.569  69.245  1.00  0.00    -0.142 C  
HETATM   15  H1  UNL     1      -9.820  15.766  71.103  1.00  0.00     0.000 HD 
HETATM   16  N   UNL     1     -10.071  15.231  70.272  1.00  0.00    -0.487 NA 
HETATM   17  H2  UNL     1     -10.569  16.046  70.631  1.00  0.00     0.000 HD 
ENDBRANCH  12  14
BRANCH  13  18
HETATM   18  C   UNL     1     -11.002  13.575  65.541  1.00  0.00    -0.295 A  
HETATM   19  C   UNL     1     -12.354  13.442  65.203  1.00  0.00    -0.501 A  
HETATM   20  C   UNL     1     -10.037  12.962  64.730  1.00  0.00    -0.242 A  
HETATM   21  C   UNL     1     -10.421  12.151  63.660  1.00  0.00    -0.495 A  
HETATM   22  C   UNL     1     -11.769  11.982  63.364  1.00  0.00    -0.519 A  
HETATM   23  C   UNL     1     -12.733  12.649  64.117  1.00  0.00    -0.373 A  
ENDBRANCH  13  18
BRANCH  13  24
HETATM   24  C   UNL     1      -9.965  15.657  66.634  1.00  0.00    -0.269 A  
HETATM   25  C   UNL     1     -10.190  18.076  66.484  1.00  0.00    -0.383 A  
HETATM   26  C   UNL     1     -10.766  16.811  66.624  1.00  0.00    -0.107 A  
HETATM   27  C   UNL     1      -8.809  18.211  66.386  1.00  0.00    -0.236 A  
HETATM   28  C   UNL     1      -8.003  17.071  66.385  1.00  0.00    -0.342 A  
HETATM   29  C   UNL     1      -8.580  15.796  66.508  1.00  0.00    -0.343 A  
BRANCH  27  30
HETATM   30  O   UNL     1      -8.361  19.497  66.227  1.00  0.00    -0.324 OA 
HETATM   31  C   UNL     1      -7.031  19.645  65.746  1.00  0.00    -0.293 C  
ENDBRANCH  27  30
ENDBRANCH  13  24
ENDBRANCH  10  12
ENDBRANCH   9  10
ENDBRANCH   7   9
ENDBRANCH   3   4
ENDBRANCH   2   3
TORSDOF 9
ENDMDL
MODEL       21
REMARK 921   NORMALIZED FREE ENERGY PREDICTED BY IDOCK:   -5.40 KCAL/MOL
REMARK 922        TOTAL FREE ENERGY PREDICTED BY IDOCK:  -10.32 KCAL/MOL
REMARK 923 INTER-LIGAND FREE ENERGY PREDICTED BY IDOCK:   -8.23 KCAL/MOL
REMARK 924 INTRA-LIGAND FREE ENERGY PREDICTED BY IDOCK:   -2.09 KCAL/MOL
REMARK 927      BINDING AFFINITY PREDICTED BY RF-SCORE:    0.00 PKD
ROOT
HETATM    1  C   UNL     1     -13.095  15.980  73.261  1.00  0.00    -0.658 C  
HETATM    2  C   UNL     1     -12.942  14.471  73.130  1.00  0.00    -0.577 C  
ENDROOT
BRANCH   2   3
HETATM    3  C   UNL     1     -13.750  13.952  71.945  1.00  0.00    -0.521 C  
BRANCH   3   4
HETATM    4  C   UNL     1     -13.209  14.453  70.602  1.00  0.00    -0.203 C  
HETATM    5  C   UNL     1     -11.760  13.991  70.347  1.00  0.00    -0.292 C  
HETATM    6  C   UNL     1     -11.582  12.454  70.411  1.00  0.00     0.068 C  
HETATM    7  C   UNL     1     -11.219  14.593  69.035  1.00  0.00    -0.269 C  
HETATM    8  C   UNL     1     -12.373  11.667  69.374  1.00  0.00    -0.131 C  
BRANCH   7   9
HETATM    9  O   UNL     1      -9.862  14.155  68.872  1.00  0.00    -0.199 OA 
BRANCH   9  10
HETATM   10  C   UNL     1      -9.414  13.838  67.636  1.00  0.00    -0.217 C  
HETATM   11  O   UNL     1      -9.077  14.635  66.774  1.00  0.00    -0.241 OA 
BRANCH  10  12
HETATM   12  C   UNL     1      -9.167  12.371  67.550  1.00  0.00    -0.183 C  
HETATM   13  C   UNL     1      -9.781  11.504  66.694  1.00  0.00    -0.221 C  
BRANCH  12  14
HETATM   14  C   UNL     1      -8.253  11.845  68.645  1.00  0.00    -0.072 C  
HETATM   15  H1  UNL     1      -6.882  11.056  70.289  1.00  0.00     0.000 HD 
HETATM   16  N   UNL     1      -7.495  11.409  69.554  1.00  0.00    -0.355 NA 
HETATM   17  H2  UNL     1      -7.757  11.257  70.528  1.00  0.00     0.000 HD 
ENDBRANCH  12  14
BRANCH  13  18
HETATM   18  C   UNL     1     -10.649  11.994  65.591  1.00  0.00    -0.303 A  
HETATM   19  C   UNL     1     -11.896  12.562  65.875  1.00  0.00    -0.489 A  
HETATM   20  C   UNL     1     -10.253  11.859  64.253  1.00  0.00    -0.346 A  
HETATM   21  C   UNL     1     -11.128  12.195  63.217  1.00  0.00    -0.408 A  
HETATM   22  C   UNL     1     -12.387  12.709  63.509  1.00  0.00    -0.591 A  
HETATM   23  C   UNL     1     -12.760  12.919  64.836  1.00  0.00    -0.474 A  
ENDBRANCH  13  18
BRANCH  13  24
HETATM   24  C   UNL     1      -9.634  10.037  66.913  1.00  0.00    -0.219 A  
HETATM   25  C   UNL     1     -10.479   7.977  67.894  1.00  0.00    -0.259 A  
HETATM   26  C   UNL     1     -10.604   9.348  67.660  1.00  0.00    -0.333 A  
HETATM   27  C   UNL     1      -9.407   7.269  67.362  1.00  0.00    -0.128 A  
HETATM   28  C   UNL     1      -8.431   7.944  66.626  1.00  0.00    -0.131 A  
HETATM   29  C   UNL     1      -8.544   9.327  66.404  1.00  0.00    -0.141 A  
BRANCH  27  30
HETATM   30  O   UNL     1      -9.376   5.935  67.678  1.00  0.00    -0.109 OA 
HETATM   31  C   UNL     1     -10.192   5.081  66.886  1.00  0.00    -0.229 C  
ENDBRANCH  27  30
ENDBRANCH  13  24
ENDBRANCH  10  12
ENDBRANCH   9  10
ENDBRANCH   7   9
ENDBRANCH   3   4
ENDBRANCH   2   3
TORSDOF 9
ENDMDL
MODEL       22
REMARK 921   NORMALIZED FREE ENERGY PREDICTED BY IDOCK:   -5.40 KCAL/MOL
REMARK 922        TOTAL FREE ENERGY PREDICTED BY IDOCK:  -10.32 KCAL/MOL
REMARK 923 INTER-LIGAND FREE ENERGY PREDICTED BY IDOCK:   -8.74 KCAL/MOL
REMARK 924 INTRA-LIGAND FREE ENERGY PREDICTED BY IDOCK:   -1.57 KCAL/MOL
REMARK 927      BINDING AFFINITY PREDICTED BY RF-SCORE:    0.00 PKD
ROOT
HETATM    1  C   UNL     1     -10.484  18.811  67.398  1.00  0.00    -0.490 C  
HETATM    2  C   UNL     1      -9.669  17.559  67.694  1.00  0.00    -0.275 C  
ENDROOT
BRANCH   2   3
HETATM    3  C   UNL     1      -9.673  16.623  66.489  1.00  0.00    -0.291 C  
BRANCH   3   4
HETATM    4  C   UNL     1      -9.366  15.172  66.874  1.00  0.00    -0.251 C  
HETATM    5  C   UNL     1     -10.457  14.564  67.780  1.00  0.00    -0.242 C  
HETATM    6  C   UNL     1     -11.877  14.625  67.162  1.00  0.00    -0.367 C  
HETATM    7  C   UNL     1     -10.067  13.141  68.222  1.00  0.00    -0.247 C  
HETATM    8  C   UNL     1     -12.050  13.851  65.862  1.00  0.00    -0.459 C  
BRANCH   7   9
HETATM    9  O   UNL     1     -11.102  12.646  69.086  1.00  0.00    -0.245 OA 
BRANCH   9  10
HETATM   10  C   UNL     1     -11.679  11.454  68.810  1.00  0.00    -0.339 C  
HETATM   11  O   UNL     1     -12.156  11.125  67.736  1.00  0.00    -0.606 OA 
BRANCH  10  12
HETATM   12  C   UNL     1     -11.444  10.508  69.938  1.00  0.00    -0.384 C  
HETATM   13  C   UNL     1     -10.587   9.447  69.929  1.00  0.00    -0.258 C  
BRANCH  12  14
HETATM   14  C   UNL     1     -12.389  10.717  71.111  1.00  0.00    -0.400 C  
HETATM   15  H1  UNL     1     -13.807  11.029  72.870  1.00  0.00     0.000 HD 
HETATM   16  N   UNL     1     -13.173  10.890  72.084  1.00  0.00    -0.586 NA 
HETATM   17  H2  UNL     1     -12.984  10.639  73.054  1.00  0.00     0.000 HD 
ENDBRANCH  12  14
BRANCH  13  18
HETATM   18  C   UNL     1      -9.626   9.242  68.813  1.00  0.00    -0.157 A  
HETATM   19  C   UNL     1      -9.972   8.433  67.724  1.00  0.00    -0.236 A  
HETATM   20  C   UNL     1      -8.348   9.818  68.851  1.00  0.00    -0.120 A  
HETATM   21  C   UNL     1      -7.402   9.512  67.870  1.00  0.00    -0.083 A  
HETATM   22  C   UNL     1      -7.739   8.664  66.820  1.00  0.00    -0.093 A  
HETATM   23  C   UNL     1      -9.030   8.148  66.732  1.00  0.00    -0.172 A  
ENDBRANCH  13  18
BRANCH  13  24
HETATM   24  C   UNL     1     -10.665   8.438  71.023  1.00  0.00    -0.267 A  
HETATM   25  C   UNL     1      -9.884   7.633  73.182  1.00  0.00    -0.337 A  
HETATM   26  C   UNL     1      -9.841   8.576  72.152  1.00  0.00    -0.388 A  
HETATM   27  C   UNL     1     -10.768   6.561  73.117  1.00  0.00    -0.269 A  
HETATM   28  C   UNL     1     -11.585   6.409  71.995  1.00  0.00    -0.368 A  
HETATM   29  C   UNL     1     -11.532   7.345  70.949  1.00  0.00    -0.311 A  
BRANCH  27  30
HETATM   30  O   UNL     1     -10.703   5.689  74.172  1.00  0.00    -0.244 OA 
HETATM   31  C   UNL     1     -10.837   4.308  73.857  1.00  0.00    -0.257 C  
ENDBRANCH  27  30
ENDBRANCH  13  24
ENDBRANCH  10  12
ENDBRANCH   9  10
ENDBRANCH   7   9
ENDBRANCH   3   4
ENDBRANCH   2   3
TORSDOF 9
ENDMDL
MODEL       23
REMARK 921   NORMALIZED FREE ENERGY PREDICTED BY IDOCK:   -5.37 KCAL/MOL
REMARK 922        TOTAL FREE ENERGY PREDICTED BY IDOCK:  -10.27 KCAL/MOL
REMARK 923 INTER-LIGAND FREE ENERGY PREDICTED BY IDOCK:   -8.65 KCAL/MOL
REMARK 924 INTRA-LIGAND FREE ENERGY PREDICTED BY IDOCK:   -1.61 KCAL/MOL
REMARK 927      BINDING AFFINITY PREDICTED BY RF-SCORE:    0.00 PKD
ROOT
HETATM    1  C   UNL     1      -9.880   4.842  71.634  1.00  0.00    -0.245 C  
HETATM    2  C   UNL     1     -10.002   4.765  70.119  1.00  0.00    -0.321 C  
ENDROOT
BRANCH   2   3
HETATM    3  C   UNL     1     -10.839   5.926  69.590  1.00  0.00    -0.444 C  
BRANCH   3   4
HETATM    4  C   UNL     1     -10.074   7.253  69.601  1.00  0.00    -0.195 C  
HETATM    5  C   UNL     1     -10.971   8.443  70.000  1.00  0.00    -0.194 C  
HETATM    6  C   UNL     1     -11.665   8.259  71.373  1.00  0.00    -0.327 C  
HETATM    7  C   UNL     1     -10.192   9.769  69.906  1.00  0.00    -0.254 C  
HETATM    8  C   UNL     1     -10.723   8.136  72.563  1.00  0.00    -0.419 C  
BRANCH   7   9
HETATM    9  O   UNL     1     -11.087  10.836  70.255  1.00  0.00    -0.276 OA 
BRANCH   9  10
HETATM   10  C   UNL     1     -11.838  11.411  69.289  1.00  0.00    -0.349 C  
HETATM   11  O   UNL     1     -12.782  10.891  68.715  1.00  0.00    -0.122 OA 
BRANCH  10  12
HETATM   12  C   UNL     1     -11.499  12.858  69.182  1.00  0.00    -0.360 C  
HETATM   13  C   UNL     1     -10.929  13.470  68.104  1.00  0.00    -0.275 C  
BRANCH  12  14
HETATM   14  C   UNL     1     -11.694  13.624  70.481  1.00  0.00    -0.099 C  
HETATM   15  H1  UNL     1     -11.987  14.773  72.429  1.00  0.00     0.000 HD 
HETATM   16  N   UNL     1     -11.856  14.259  71.558  1.00  0.00    -0.416 NA 
HETATM   17  H2  UNL     1     -11.882  15.275  71.654  1.00  0.00     0.000 HD 
ENDBRANCH  12  14
BRANCH  13  18
HETATM   18  C   UNL     1     -10.762  12.757  66.811  1.00  0.00    -0.278 A  
HETATM   19  C   UNL     1     -11.730  12.880  65.807  1.00  0.00    -0.437 A  
HETATM   20  C   UNL     1      -9.659  11.919  66.590  1.00  0.00    -0.220 A  
HETATM   21  C   UNL     1      -9.576  11.146  65.431  1.00  0.00    -0.266 A  
HETATM   22  C   UNL     1     -10.571  11.235  64.462  1.00  0.00    -0.401 A  
HETATM   23  C   UNL     1     -11.632  12.122  64.638  1.00  0.00    -0.392 A  
ENDBRANCH  13  18
BRANCH  13  24
HETATM   24  C   UNL     1     -10.400  14.856  68.249  1.00  0.00    -0.232 A  
HETATM   25  C   UNL     1     -10.768  17.258  68.111  1.00  0.00    -0.363 A  
HETATM   26  C   UNL     1     -11.246  15.950  67.999  1.00  0.00    -0.319 A  
HETATM   27  C   UNL     1      -9.456  17.495  68.504  1.00  0.00    -0.296 A  
HETATM   28  C   UNL     1      -8.603  16.416  68.746  1.00  0.00    -0.250 A  
HETATM   29  C   UNL     1      -9.074  15.098  68.617  1.00  0.00    -0.195 A  
BRANCH  27  30
HETATM   30  O   UNL     1      -9.093  18.816  68.555  1.00  0.00    -0.324 OA 
HETATM   31  C   UNL     1      -9.822  19.702  67.714  1.00  0.00    -0.383 C  
ENDBRANCH  27  30
ENDBRANCH  13  24
ENDBRANCH  10  12
ENDBRANCH   9  10
ENDBRANCH   7   9
ENDBRANCH   3   4
ENDBRANCH   2   3
TORSDOF 9
ENDMDL
MODEL       24
REMARK 921   NORMALIZED FREE ENERGY PREDICTED BY IDOCK:   -5.35 KCAL/MOL
REMARK 922        TOTAL FREE ENERGY PREDICTED BY IDOCK:  -10.23 KCAL/MOL
REMARK 923 INTER-LIGAND FREE ENERGY PREDICTED BY IDOCK:   -8.97 KCAL/MOL
REMARK 924 INTRA-LIGAND FREE ENERGY PREDICTED BY IDOCK:   -1.26 KCAL/MOL
REMARK 927      BINDING AFFINITY PREDICTED BY RF-SCORE:    0.00 PKD
ROOT
HETATM    1  C   UNL     1      -9.955  20.447  67.310  1.00  0.00    -0.564 C  
HETATM    2  C   UNL     1      -8.690  19.879  66.680  1.00  0.00    -0.410 C  
ENDROOT
BRANCH   2   3
HETATM    3  C   UNL     1      -8.425  18.468  67.195  1.00  0.00    -0.268 C  
BRANCH   3   4
HETATM    4  C   UNL     1      -9.715  17.672  67.414  1.00  0.00    -0.283 C  
HETATM    5  C   UNL     1      -9.964  16.641  66.294  1.00  0.00    -0.336 C  
HETATM    6  C   UNL     1      -8.792  15.646  66.100  1.00  0.00    -0.311 C  
HETATM    7  C   UNL     1     -11.315  15.930  66.499  1.00  0.00     0.207 C  
HETATM    8  C   UNL     1      -8.485  14.765  67.304  1.00  0.00    -0.234 C  
BRANCH   7   9
HETATM    9  O   UNL     1     -11.503  15.012  65.410  1.00  0.00    -0.343 OA 
BRANCH   9  10
HETATM   10  C   UNL     1     -12.275  13.917  65.595  1.00  0.00    -0.452 C  
HETATM   11  O   UNL     1     -13.494  13.890  65.554  1.00  0.00    -0.657 OA 
BRANCH  10  12
HETATM   12  C   UNL     1     -11.419  12.697  65.626  1.00  0.00    -0.387 C  
HETATM   13  C   UNL     1     -10.998  12.042  66.746  1.00  0.00    -0.329 C  
BRANCH  12  14
HETATM   14  C   UNL     1     -10.885  12.297  64.260  1.00  0.00    -0.348 C  
HETATM   15  H1  UNL     1     -10.084  11.696  62.210  1.00  0.00     0.000 HD 
HETATM   16  N   UNL     1     -10.442  11.965  63.127  1.00  0.00    -0.651 NA 
HETATM   17  H2  UNL     1     -10.930  11.387  62.441  1.00  0.00     0.000 HD 
ENDBRANCH  12  14
BRANCH  13  18
HETATM   18  C   UNL     1     -11.534  12.388  68.089  1.00  0.00    -0.370 A  
HETATM   19  C   UNL     1     -11.578  13.723  68.507  1.00  0.00    -0.373 A  
HETATM   20  C   UNL     1     -11.962  11.386  68.970  1.00  0.00    -0.387 A  
HETATM   21  C   UNL     1     -12.335  11.703  70.278  1.00  0.00    -0.339 A  
HETATM   22  C   UNL     1     -12.325  13.028  70.702  1.00  0.00    -0.391 A  
HETATM   23  C   UNL     1     -11.974  14.039  69.810  1.00  0.00    -0.393 A  
ENDBRANCH  13  18
BRANCH  13  24
HETATM   24  C   UNL     1      -9.929  11.010  66.627  1.00  0.00    -0.249 A  
HETATM   25  C   UNL     1      -9.299   8.687  66.266  1.00  0.00    -0.282 A  
HETATM   26  C   UNL     1     -10.282   9.676  66.363  1.00  0.00    -0.288 A  
HETATM   27  C   UNL     1      -7.955   9.018  66.396  1.00  0.00    -0.103 A  
HETATM   28  C   UNL     1      -7.593  10.340  66.667  1.00  0.00    -0.110 A  
HETATM   29  C   UNL     1      -8.579  11.334  66.784  1.00  0.00    -0.159 A  
BRANCH  27  30
HETATM   30  O   UNL     1      -7.085   7.963  66.305  1.00  0.00    -0.062 OA 
HETATM   31  C   UNL     1      -7.669   6.667  66.254  1.00  0.00    -0.098 C  
ENDBRANCH  27  30
ENDBRANCH  13  24
ENDBRANCH  10  12
ENDBRANCH   9  10
ENDBRANCH   7   9
ENDBRANCH   3   4
ENDBRANCH   2   3
TORSDOF 9
ENDMDL
MODEL       25
REMARK 921   NORMALIZED FREE ENERGY PREDICTED BY IDOCK:   -5.34 KCAL/MOL
REMARK 922        TOTAL FREE ENERGY PREDICTED BY IDOCK:  -10.23 KCAL/MOL
REMARK 923 INTER-LIGAND FREE ENERGY PREDICTED BY IDOCK:   -8.58 KCAL/MOL
REMARK 924 INTRA-LIGAND FREE ENERGY PREDICTED BY IDOCK:   -1.64 KCAL/MOL
REMARK 927      BINDING AFFINITY PREDICTED BY RF-SCORE:    0.00 PKD
ROOT
HETATM    1  C   UNL     1      -9.895   4.292  67.216  1.00  0.00    -0.193 C  
HETATM    2  C   UNL     1     -10.354   5.459  66.352  1.00  0.00    -0.298 C  
ENDROOT
BRANCH   2   3
HETATM    3  C   UNL     1     -10.876   6.596  67.224  1.00  0.00    -0.456 C  
BRANCH   3   4
HETATM    4  C   UNL     1     -10.044   7.874  67.080  1.00  0.00    -0.328 C  
HETATM    5  C   UNL     1     -10.462   8.961  68.093  1.00  0.00    -0.254 C  
HETATM    6  C   UNL     1     -10.396   8.489  69.567  1.00  0.00    -0.218 C  
HETATM    7  C   UNL     1      -9.670  10.261  67.854  1.00  0.00    -0.145 C  
HETATM    8  C   UNL     1      -9.011   8.088  70.057  1.00  0.00    -0.144 C  
BRANCH   7   9
HETATM    9  O   UNL     1     -10.126  11.239  68.801  1.00  0.00    -0.197 OA 
BRANCH   9  10
HETATM   10  C   UNL     1     -11.256  11.935  68.541  1.00  0.00    -0.256 C  
HETATM   11  O   UNL     1     -12.394  11.559  68.771  1.00  0.00    -0.425 OA 
BRANCH  10  12
HETATM   12  C   UNL     1     -10.908  13.328  68.143  1.00  0.00    -0.270 C  
HETATM   13  C   UNL     1     -10.759  13.783  66.865  1.00  0.00    -0.280 C  
BRANCH  12  14
HETATM   14  C   UNL     1     -10.556  14.224  69.319  1.00  0.00    -0.141 C  
HETATM   15  H1  UNL     1     -10.026  15.570  71.084  1.00  0.00     0.000 HD 
HETATM   16  N   UNL     1     -10.263  14.968  70.295  1.00  0.00    -0.504 NA 
HETATM   17  H2  UNL     1      -9.911  15.923  70.232  1.00  0.00     0.000 HD 
ENDBRANCH  12  14
BRANCH  13  18
HETATM   18  C   UNL     1     -11.133  12.942  65.698  1.00  0.00    -0.307 A  
HETATM   19  C   UNL     1     -10.164  12.170  65.047  1.00  0.00    -0.312 A  
HETATM   20  C   UNL     1     -12.446  12.939  65.207  1.00  0.00    -0.552 A  
HETATM   21  C   UNL     1     -12.762  12.255  64.031  1.00  0.00    -0.457 A  
HETATM   22  C   UNL     1     -11.780  11.533  63.360  1.00  0.00    -0.194 A  
HETATM   23  C   UNL     1     -10.489  11.468  63.883  1.00  0.00    -0.439 A  
ENDBRANCH  13  18
BRANCH  13  24
HETATM   24  C   UNL     1     -10.144  15.121  66.636  1.00  0.00    -0.271 A  
HETATM   25  C   UNL     1      -8.145  16.492  66.415  1.00  0.00    -0.362 A  
HETATM   26  C   UNL     1      -8.745  15.245  66.611  1.00  0.00    -0.327 A  
HETATM   27  C   UNL     1      -8.928  17.623  66.210  1.00  0.00    -0.183 A  
HETATM   28  C   UNL     1     -10.319  17.514  66.242  1.00  0.00    -0.335 A  
HETATM   29  C   UNL     1     -10.927  16.265  66.456  1.00  0.00    -0.007 A  
BRANCH  27  30
HETATM   30  O   UNL     1      -8.230  18.792  66.054  1.00  0.00    -0.458 OA 
HETATM   31  C   UNL     1      -6.853  18.664  65.722  1.00  0.00    -0.272 C  
ENDBRANCH  27  30
ENDBRANCH  13  24
ENDBRANCH  10  12
ENDBRANCH   9  10
ENDBRANCH   7   9
ENDBRANCH   3   4
ENDBRANCH   2   3
TORSDOF 9
ENDMDL
MODEL       26
REMARK 921   NORMALIZED FREE ENERGY PREDICTED BY IDOCK:   -5.34 KCAL/MOL
REMARK 922        TOTAL FREE ENERGY PREDICTED BY IDOCK:  -10.22 KCAL/MOL
REMARK 923 INTER-LIGAND FREE ENERGY PREDICTED BY IDOCK:   -8.87 KCAL/MOL
REMARK 924 INTRA-LIGAND FREE ENERGY PREDICTED BY IDOCK:   -1.35 KCAL/MOL
REMARK 927      BINDING AFFINITY PREDICTED BY RF-SCORE:    0.00 PKD
ROOT
HETATM    1  C   UNL     1     -12.753  15.236  73.608  1.00  0.00    -0.703 C  
HETATM    2  C   UNL     1     -14.009  15.437  72.771  1.00  0.00    -0.519 C  
ENDROOT
BRANCH   2   3
HETATM    3  C   UNL     1     -14.282  14.204  71.914  1.00  0.00    -0.561 C  
BRANCH   3   4
HETATM    4  C   UNL     1     -13.029  13.347  71.705  1.00  0.00    -0.445 C  
HETATM    5  C   UNL     1     -12.525  13.394  70.248  1.00  0.00    -0.285 C  
HETATM    6  C   UNL     1     -12.235  14.829  69.741  1.00  0.00    -0.337 C  
HETATM    7  C   UNL     1     -11.326  12.447  70.055  1.00  0.00     0.104 C  
HETATM    8  C   UNL     1     -11.143  15.574  70.498  1.00  0.00    -0.369 C  
BRANCH   7   9
HETATM    9  O   UNL     1     -10.926  12.510  68.678  1.00  0.00    -0.235 OA 
BRANCH   9  10
HETATM   10  C   UNL     1      -9.626  12.730  68.376  1.00  0.00    -0.175 C  
HETATM   11  O   UNL     1      -8.784  11.867  68.182  1.00  0.00    -0.161 OA 
BRANCH  10  12
HETATM   12  C   UNL     1      -9.414  14.176  68.084  1.00  0.00    -0.213 C  
HETATM   13  C   UNL     1      -9.848  14.841  66.975  1.00  0.00    -0.240 C  
BRANCH  12  14
HETATM   14  C   UNL     1      -8.497  14.867  69.080  1.00  0.00    -0.152 C  
HETATM   15  H1  UNL     1      -7.120  15.905  70.574  1.00  0.00     0.000 HD 
HETATM   16  N   UNL     1      -7.736  15.441  69.906  1.00  0.00    -0.148 NA 
HETATM   17  H2  UNL     1      -7.781  16.423  70.177  1.00  0.00     0.000 HD 
ENDBRANCH  12  14
BRANCH  13  18
HETATM   18  C   UNL     1     -10.777  14.202  66.006  1.00  0.00    -0.299 A  
HETATM   19  C   UNL     1     -10.272  13.509  64.899  1.00  0.00    -0.351 A  
HETATM   20  C   UNL     1     -12.165  14.316  66.160  1.00  0.00    -0.430 A  
HETATM   21  C   UNL     1     -13.030  13.832  65.176  1.00  0.00    -0.279 A  
HETATM   22  C   UNL     1     -12.518  13.192  64.053  1.00  0.00    -0.346 A  
HETATM   23  C   UNL     1     -11.142  13.006  63.928  1.00  0.00    -0.411 A  
ENDBRANCH  13  18
BRANCH  13  24
HETATM   24  C   UNL     1      -9.326  16.209  66.696  1.00  0.00    -0.267 A  
HETATM   25  C   UNL     1      -7.497  17.637  65.960  1.00  0.00    -0.282 A  
HETATM   26  C   UNL     1      -8.016  16.364  66.213  1.00  0.00    -0.264 A  
HETATM   27  C   UNL     1      -8.285  18.766  66.153  1.00  0.00    -0.190 A  
HETATM   28  C   UNL     1      -9.585  18.625  66.641  1.00  0.00    -0.347 A  
HETATM   29  C   UNL     1     -10.105  17.348  66.914  1.00  0.00    -0.314 A  
BRANCH  27  30
HETATM   30  O   UNL     1      -7.662  19.960  65.896  1.00  0.00    -0.335 OA 
HETATM   31  C   UNL     1      -7.192  20.682  67.028  1.00  0.00    -0.316 C  
ENDBRANCH  27  30
ENDBRANCH  13  24
ENDBRANCH  10  12
ENDBRANCH   9  10
ENDBRANCH   7   9
ENDBRANCH   3   4
ENDBRANCH   2   3
TORSDOF 9
ENDMDL
MODEL       27
REMARK 921   NORMALIZED FREE ENERGY PREDICTED BY IDOCK:   -5.26 KCAL/MOL
REMARK 922        TOTAL FREE ENERGY PREDICTED BY IDOCK:  -10.09 KCAL/MOL
REMARK 923 INTER-LIGAND FREE ENERGY PREDICTED BY IDOCK:   -8.81 KCAL/MOL
REMARK 924 INTRA-LIGAND FREE ENERGY PREDICTED BY IDOCK:   -1.28 KCAL/MOL
REMARK 927      BINDING AFFINITY PREDICTED BY RF-SCORE:    0.00 PKD
ROOT
HETATM    1  C   UNL     1     -13.778  13.345  72.324  1.00  0.00    -0.705 C  
HETATM    2  C   UNL     1     -13.983  14.853  72.297  1.00  0.00    -0.602 C  
ENDROOT
BRANCH   2   3
HETATM    3  C   UNL     1     -13.145  15.486  71.191  1.00  0.00    -0.573 C  
BRANCH   3   4
HETATM    4  C   UNL     1     -11.904  14.657  70.848  1.00  0.00    -0.372 C  
HETATM    5  C   UNL     1     -11.832  14.303  69.349  1.00  0.00    -0.372 C  
HETATM    6  C   UNL     1     -11.873  15.542  68.420  1.00  0.00    -0.241 C  
HETATM    7  C   UNL     1     -10.625  13.390  69.061  1.00  0.00    -0.077 C  
HETATM    8  C   UNL     1     -10.716  16.517  68.590  1.00  0.00    -0.334 C  
BRANCH   7   9
HETATM    9  O   UNL     1     -10.633  13.070  67.662  1.00  0.00    -0.221 OA 
BRANCH   9  10
HETATM   10  C   UNL     1     -11.460  12.101  67.210  1.00  0.00    -0.345 C  
HETATM   11  O   UNL     1     -12.187  12.183  66.233  1.00  0.00    -0.604 OA 
BRANCH  10  12
HETATM   12  C   UNL     1     -11.189  10.828  67.937  1.00  0.00    -0.386 C  
HETATM   13  C   UNL     1     -10.331   9.845  67.540  1.00  0.00    -0.289 C  
BRANCH  12  14
HETATM   14  C   UNL     1     -12.097  10.612  69.138  1.00  0.00    -0.080 C  
HETATM   15  H1  UNL     1     -13.459  10.287  70.938  1.00  0.00     0.000 HD 
HETATM   16  N   UNL     1     -12.850  10.432  70.133  1.00  0.00    -0.540 NA 
HETATM   17  H2  UNL     1     -13.589  11.062  70.443  1.00  0.00     0.000 HD 
ENDBRANCH  12  14
BRANCH  13  18
HETATM   18  C   UNL     1      -9.406  10.046  66.394  1.00  0.00    -0.211 A  
HETATM   19  C   UNL     1      -9.859   9.862  65.081  1.00  0.00    -0.348 A  
HETATM   20  C   UNL     1      -8.061  10.380  66.606  1.00  0.00    -0.122 A  
HETATM   21  C   UNL     1      -7.165  10.433  65.537  1.00  0.00    -0.138 A  
HETATM   22  C   UNL     1      -7.614  10.196  64.241  1.00  0.00    -0.124 A  
HETATM   23  C   UNL     1      -8.964   9.939  64.011  1.00  0.00    -0.276 A  
ENDBRANCH  13  18
BRANCH  13  24
HETATM   24  C   UNL     1     -10.374   8.521  68.223  1.00  0.00    -0.246 A  
HETATM   25  C   UNL     1      -9.762   7.131  70.124  1.00  0.00    -0.171 A  
HETATM   26  C   UNL     1      -9.751   8.366  69.472  1.00  0.00    -0.177 A  
HETATM   27  C   UNL     1     -10.420   6.044  69.558  1.00  0.00    -0.266 A  
HETATM   28  C   UNL     1     -11.036   6.184  68.312  1.00  0.00    -0.397 A  
HETATM   29  C   UNL     1     -11.011   7.420  67.645  1.00  0.00    -0.136 A  
BRANCH  27  30
HETATM   30  O   UNL     1     -10.343   4.879  70.275  1.00  0.00    -0.254 OA 
HETATM   31  C   UNL     1     -10.229   5.015  71.687  1.00  0.00    -0.208 C  
ENDBRANCH  27  30
ENDBRANCH  13  24
ENDBRANCH  10  12
ENDBRANCH   9  10
ENDBRANCH   7   9
ENDBRANCH   3   4
ENDBRANCH   2   3
TORSDOF 9
ENDMDL
MODEL       28
REMARK 921   NORMALIZED FREE ENERGY PREDICTED BY IDOCK:   -5.25 KCAL/MOL
REMARK 922        TOTAL FREE ENERGY PREDICTED BY IDOCK:  -10.09 KCAL/MOL
REMARK 923 INTER-LIGAND FREE ENERGY PREDICTED BY IDOCK:   -9.03 KCAL/MOL
REMARK 924 INTRA-LIGAND FREE ENERGY PREDICTED BY IDOCK:   -1.06 KCAL/MOL
REMARK 927      BINDING AFFINITY PREDICTED BY RF-SCORE:    0.00 PKD
ROOT
HETATM    1  C   UNL     1      -9.017   5.608  73.834  1.00  0.00    -0.126 C  
HETATM    2  C   UNL     1     -10.534   5.709  73.927  1.00  0.00    -0.302 C  
ENDROOT
BRANCH   2   3
HETATM    3  C   UNL     1     -11.177   5.340  72.594  1.00  0.00    -0.311 C  
BRANCH   3   4
HETATM    4  C   UNL     1     -12.134   6.422  72.085  1.00  0.00    -0.316 C  
HETATM    5  C   UNL     1     -11.436   7.787  71.911  1.00  0.00    -0.320 C  
HETATM    6  C   UNL     1     -10.204   7.734  70.974  1.00  0.00    -0.210 C  
HETATM    7  C   UNL     1     -12.450   8.868  71.492  1.00  0.00    -0.324 C  
HETATM    8  C   UNL     1     -10.500   7.323  69.538  1.00  0.00    -0.238 C  
BRANCH   7   9
HETATM    9  O   UNL     1     -11.748  10.116  71.380  1.00  0.00    -0.360 OA 
BRANCH   9  10
HETATM   10  C   UNL     1     -12.448  11.250  71.151  1.00  0.00    -0.373 C  
HETATM   11  O   UNL     1     -13.427  11.622  71.778  1.00  0.00    -0.306 OA 
BRANCH  10  12
HETATM   12  C   UNL     1     -11.717  12.103  70.172  1.00  0.00    -0.301 C  
HETATM   13  C   UNL     1     -11.771  13.465  70.099  1.00  0.00    -0.266 C  
BRANCH  12  14
HETATM   14  C   UNL     1     -10.990  11.309  69.099  1.00  0.00    -0.240 C  
HETATM   15  H1  UNL     1      -9.900  10.115  67.490  1.00  0.00     0.000 HD 
HETATM   16  N   UNL     1     -10.387  10.649  68.209  1.00  0.00    -0.169 NA 
HETATM   17  H2  UNL     1     -10.037   9.695  68.307  1.00  0.00     0.000 HD 
ENDBRANCH  12  14
BRANCH  13  18
HETATM   18  C   UNL     1     -12.441  14.268  71.155  1.00  0.00    -0.433 A  
HETATM   19  C   UNL     1     -13.795  14.605  71.031  1.00  0.00    -0.232 A  
HETATM   20  C   UNL     1     -11.725  14.735  72.265  1.00  0.00    -0.213 A  
HETATM   21  C   UNL     1     -12.323  15.601  73.183  1.00  0.00    -0.584 A  
HETATM   22  C   UNL     1     -13.654  15.974  73.023  1.00  0.00    -0.530 A  
HETATM   23  C   UNL     1     -14.396  15.454  71.964  1.00  0.00    -0.653 A  
ENDBRANCH  13  18
BRANCH  13  24
HETATM   24  C   UNL     1     -11.208  14.152  68.902  1.00  0.00    -0.294 A  
HETATM   25  C   UNL     1      -9.371  15.358  67.857  1.00  0.00    -0.192 A  
HETATM   26  C   UNL     1      -9.913  14.693  68.960  1.00  0.00    -0.195 A  
HETATM   27  C   UNL     1     -10.096  15.464  66.675  1.00  0.00    -0.265 A  
HETATM   28  C   UNL     1     -11.388  14.938  66.609  1.00  0.00    -0.326 A  
HETATM   29  C   UNL     1     -11.944  14.285  67.722  1.00  0.00    -0.384 A  
BRANCH  27  30
HETATM   30  O   UNL     1      -9.472  16.158  65.671  1.00  0.00    -0.427 OA 
HETATM   31  C   UNL     1      -8.414  17.022  66.065  1.00  0.00    -0.136 C  
ENDBRANCH  27  30
ENDBRANCH  13  24
ENDBRANCH  10  12
ENDBRANCH   9  10
ENDBRANCH   7   9
ENDBRANCH   3   4
ENDBRANCH   2   3
TORSDOF 9
ENDMDL
MODEL       29
REMARK 921   NORMALIZED FREE ENERGY PREDICTED BY IDOCK:   -5.23 KCAL/MOL
REMARK 922        TOTAL FREE ENERGY PREDICTED BY IDOCK:  -10.05 KCAL/MOL
REMARK 923 INTER-LIGAND FREE ENERGY PREDICTED BY IDOCK:   -8.76 KCAL/MOL
REMARK 924 INTRA-LIGAND FREE ENERGY PREDICTED BY IDOCK:   -1.29 KCAL/MOL
REMARK 927      BINDING AFFINITY PREDICTED BY RF-SCORE:    0.00 PKD
ROOT
HETATM    1  C   UNL     1     -10.528  19.246  66.052  1.00  0.00    -0.573 C  
HETATM    2  C   UNL     1     -10.649  18.717  67.474  1.00  0.00    -0.472 C  
ENDROOT
BRANCH   2   3
HETATM    3  C   UNL     1      -9.271  18.590  68.116  1.00  0.00    -0.329 C  
BRANCH   3   4
HETATM    4  C   UNL     1      -8.998  17.178  68.644  1.00  0.00    -0.267 C  
HETATM    5  C   UNL     1      -8.916  16.135  67.511  1.00  0.00    -0.197 C  
HETATM    6  C   UNL     1      -7.855  16.476  66.434  1.00  0.00    -0.324 C  
HETATM    7  C   UNL     1      -8.737  14.718  68.087  1.00  0.00    -0.168 C  
HETATM    8  C   UNL     1      -6.419  16.538  66.937  1.00  0.00    -0.190 C  
BRANCH   7   9
HETATM    9  O   UNL     1      -8.702  13.793  66.989  1.00  0.00    -0.224 OA 
BRANCH   9  10
HETATM   10  C   UNL     1      -7.950  12.674  67.092  1.00  0.00    -0.122 C  
HETATM   11  O   UNL     1      -6.791  12.557  66.725  1.00  0.00     0.063 OA 
BRANCH  10  12
HETATM   12  C   UNL     1      -8.659  11.665  67.929  1.00  0.00    -0.150 C  
HETATM   13  C   UNL     1      -9.951  11.256  67.768  1.00  0.00    -0.193 C  
BRANCH  12  14
HETATM   14  C   UNL     1      -7.859  11.209  69.138  1.00  0.00    -0.063 C  
HETATM   15  H1  UNL     1      -6.659  10.526  70.953  1.00  0.00     0.000 HD 
HETATM   16  N   UNL     1      -7.195  10.832  70.142  1.00  0.00    -0.451 NA 
HETATM   17  H2  UNL     1      -7.568  10.671  71.078  1.00  0.00     0.000 HD 
ENDBRANCH  12  14
BRANCH  13  18
HETATM   18  C   UNL     1     -10.743  11.656  66.575  1.00  0.00    -0.313 A  
HETATM   19  C   UNL     1     -10.430  11.134  65.314  1.00  0.00    -0.326 A  
HETATM   20  C   UNL     1     -11.785  12.588  66.684  1.00  0.00    -0.453 A  
HETATM   21  C   UNL     1     -12.435  13.062  65.542  1.00  0.00    -0.496 A  
HETATM   22  C   UNL     1     -12.080  12.577  64.288  1.00  0.00    -0.507 A  
HETATM   23  C   UNL     1     -11.099  11.594  64.176  1.00  0.00    -0.435 A  
ENDBRANCH  13  18
BRANCH  13  24
HETATM   24  C   UNL     1     -10.600  10.454  68.843  1.00  0.00    -0.241 A  
HETATM   25  C   UNL     1     -12.051  10.362  70.795  1.00  0.00    -0.463 A  
HETATM   26  C   UNL     1     -11.445  11.090  69.768  1.00  0.00    -0.387 A  
HETATM   27  C   UNL     1     -11.851   8.990  70.895  1.00  0.00    -0.253 A  
HETATM   28  C   UNL     1     -11.006   8.348  69.987  1.00  0.00    -0.194 A  
HETATM   29  C   UNL     1     -10.380   9.079  68.963  1.00  0.00    -0.233 A  
BRANCH  27  30
HETATM   30  O   UNL     1     -12.475   8.387  71.955  1.00  0.00    -0.321 OA 
HETATM   31  C   UNL     1     -13.662   9.014  72.426  1.00  0.00    -0.479 C  
ENDBRANCH  27  30
ENDBRANCH  13  24
ENDBRANCH  10  12
ENDBRANCH   9  10
ENDBRANCH   7   9
ENDBRANCH   3   4
ENDBRANCH   2   3
TORSDOF 9
ENDMDL
MODEL       30
REMARK 921   NORMALIZED FREE ENERGY PREDICTED BY IDOCK:   -5.17 KCAL/MOL
REMARK 922        TOTAL FREE ENERGY PREDICTED BY IDOCK:   -9.97 KCAL/MOL
REMARK 923 INTER-LIGAND FREE ENERGY PREDICTED BY IDOCK:   -9.31 KCAL/MOL
REMARK 924 INTRA-LIGAND FREE ENERGY PREDICTED BY IDOCK:   -0.65 KCAL/MOL
REMARK 927      BINDING AFFINITY PREDICTED BY RF-SCORE:    0.00 PKD
ROOT
HETATM    1  C   UNL     1      -9.850  19.627  67.208  1.00  0.00    -0.492 C  
HETATM    2  C   UNL     1      -9.225  18.756  68.289  1.00  0.00    -0.366 C  
ENDROOT
BRANCH   2   3
HETATM    3  C   UNL     1     -10.197  17.663  68.723  1.00  0.00    -0.373 C  
BRANCH   3   4
HETATM    4  C   UNL     1      -9.521  16.295  68.857  1.00  0.00    -0.252 C  
HETATM    5  C   UNL     1     -10.246  15.202  68.047  1.00  0.00    -0.230 C  
HETATM    6  C   UNL     1     -10.386  15.540  66.541  1.00  0.00    -0.293 C  
HETATM    7  C   UNL     1      -9.594  13.826  68.284  1.00  0.00    -0.219 C  
HETATM    8  C   UNL     1      -9.071  15.700  65.789  1.00  0.00    -0.157 C  
BRANCH   7   9
HETATM    9  O   UNL     1     -10.332  12.849  67.532  1.00  0.00    -0.220 OA 
BRANCH   9  10
HETATM   10  C   UNL     1     -11.602  12.560  67.893  1.00  0.00    -0.347 C  
HETATM   11  O   UNL     1     -12.609  13.063  67.421  1.00  0.00    -0.020 OA 
BRANCH  10  12
HETATM   12  C   UNL     1     -11.612  11.368  68.787  1.00  0.00    -0.378 C  
HETATM   13  C   UNL     1     -11.871  11.373  70.127  1.00  0.00    -0.440 C  
BRANCH  12  14
HETATM   14  C   UNL     1     -11.135  10.095  68.106  1.00  0.00    -0.230 C  
HETATM   15  H1  UNL     1     -10.419   8.186  67.083  1.00  0.00     0.000 HD 
HETATM   16  N   UNL     1     -10.739   9.039  67.541  1.00  0.00    -0.438 NA 
HETATM   17  H2  UNL     1     -10.405   8.966  66.580  1.00  0.00     0.000 HD 
ENDBRANCH  12  14
BRANCH  13  18
HETATM   18  C   UNL     1     -12.375  12.593  70.810  1.00  0.00    -0.372 A  
HETATM   19  C   UNL     1     -11.729  13.822  70.627  1.00  0.00    -0.158 A  
HETATM   20  C   UNL     1     -13.475  12.528  71.676  1.00  0.00    -0.155 A  
HETATM   21  C   UNL     1     -13.860  13.646  72.420  1.00  0.00    -0.691 A  
HETATM   22  C   UNL     1     -13.177  14.849  72.271  1.00  0.00    -0.468 A  
HETATM   23  C   UNL     1     -12.132  14.944  71.355  1.00  0.00    -0.392 A  
ENDBRANCH  13  18
BRANCH  13  24
HETATM   24  C   UNL     1     -11.574  10.154  70.930  1.00  0.00    -0.459 A  
HETATM   25  C   UNL     1     -12.381   8.250  72.213  1.00  0.00    -0.410 A  
HETATM   26  C   UNL     1     -12.634   9.387  71.442  1.00  0.00    -0.430 A  
HETATM   27  C   UNL     1     -11.074   7.843  72.457  1.00  0.00    -0.362 A  
HETATM   28  C   UNL     1     -10.012   8.603  71.962  1.00  0.00    -0.399 A  
HETATM   29  C   UNL     1     -10.262   9.758  71.201  1.00  0.00    -0.007 A  
BRANCH  27  30
HETATM   30  O   UNL     1     -10.949   6.729  73.246  1.00  0.00    -0.273 OA 
HETATM   31  C   UNL     1     -11.468   5.518  72.711  1.00  0.00    -0.280 C  
ENDBRANCH  27  30
ENDBRANCH  13  24
ENDBRANCH  10  12
ENDBRANCH   9  10
ENDBRANCH   7   9
ENDBRANCH   3   4
ENDBRANCH   2   3
TORSDOF 9
ENDMDL
MODEL       31
REMARK 921   NORMALIZED FREE ENERGY PREDICTED BY IDOCK:   -5.16 KCAL/MOL
REMARK 922        TOTAL FREE ENERGY PREDICTED BY IDOCK:   -9.94 KCAL/MOL
REMARK 923 INTER-LIGAND FREE ENERGY PREDICTED BY IDOCK:   -7.80 KCAL/MOL
REMARK 924 INTRA-LIGAND FREE ENERGY PREDICTED BY IDOCK:   -2.15 KCAL/MOL
REMARK 927      BINDING AFFINITY PREDICTED BY RF-SCORE:    0.00 PKD
ROOT
HETATM    1  C   UNL     1      -6.380  16.262  68.918  1.00  0.00    -0.139 C  
HETATM    2  C   UNL     1      -7.495  17.278  68.713  1.00  0.00    -0.260 C  
ENDROOT
BRANCH   2   3
HETATM    3  C   UNL     1      -7.373  17.934  67.341  1.00  0.00    -0.205 C  
BRANCH   3   4
HETATM    4  C   UNL     1      -8.093  17.141  66.246  1.00  0.00    -0.325 C  
HETATM    5  C   UNL     1      -9.542  16.784  66.638  1.00  0.00    -0.274 C  
HETATM    6  C   UNL     1     -10.403  18.018  67.005  1.00  0.00    -0.377 C  
HETATM    7  C   UNL     1     -10.199  15.907  65.556  1.00  0.00    -0.365 C  
HETATM    8  C   UNL     1     -10.599  19.028  65.882  1.00  0.00    -0.466 C  
BRANCH   7   9
HETATM    9  O   UNL     1     -11.528  15.582  65.994  1.00  0.00    -0.111 OA 
BRANCH   9  10
HETATM   10  C   UNL     1     -11.959  14.304  65.904  1.00  0.00    -0.391 C  
HETATM   11  O   UNL     1     -13.012  13.940  65.406  1.00  0.00    -0.722 OA 
BRANCH  10  12
HETATM   12  C   UNL     1     -10.861  13.374  66.292  1.00  0.00    -0.294 C  
HETATM   13  C   UNL     1     -10.328  13.239  67.541  1.00  0.00    -0.229 C  
BRANCH  12  14
HETATM   14  C   UNL     1     -10.228  12.656  65.110  1.00  0.00    -0.280 C  
HETATM   15  H1  UNL     1      -9.279  11.579  63.337  1.00  0.00     0.000 HD 
HETATM   16  N   UNL     1      -9.703  12.061  64.130  1.00  0.00    -0.497 NA 
HETATM   17  H2  UNL     1      -9.199  11.175  64.170  1.00  0.00     0.000 HD 
ENDBRANCH  12  14
BRANCH  13  18
HETATM   18  C   UNL     1     -10.950  13.899  68.719  1.00  0.00    -0.286 A  
HETATM   19  C   UNL     1     -10.326  14.998  69.322  1.00  0.00    -0.249 A  
HETATM   20  C   UNL     1     -12.142  13.409  69.270  1.00  0.00    -0.312 A  
HETATM   21  C   UNL     1     -12.649  13.945  70.455  1.00  0.00    -0.382 A  
HETATM   22  C   UNL     1     -11.993  15.002  71.077  1.00  0.00    -0.376 A  
HETATM   23  C   UNL     1     -10.850  15.546  70.496  1.00  0.00    -0.353 A  
ENDBRANCH  13  18
BRANCH  13  24
HETATM   24  C   UNL     1      -9.060  12.476  67.713  1.00  0.00    -0.191 A  
HETATM   25  C   UNL     1      -6.633  12.393  67.554  1.00  0.00    -0.147 A  
HETATM   26  C   UNL     1      -7.834  13.094  67.417  1.00  0.00    -0.169 A  
HETATM   27  C   UNL     1      -6.634  11.082  68.017  1.00  0.00    -0.062 A  
HETATM   28  C   UNL     1      -7.848  10.453  68.305  1.00  0.00    -0.105 A  
HETATM   29  C   UNL     1      -9.059  11.149  68.152  1.00  0.00    -0.159 A  
BRANCH  27  30
HETATM   30  O   UNL     1      -5.401  10.488  68.087  1.00  0.00    -0.035 OA 
HETATM   31  C   UNL     1      -5.321   9.289  68.849  1.00  0.00    -0.037 C  
ENDBRANCH  27  30
ENDBRANCH  13  24
ENDBRANCH  10  12
ENDBRANCH   9  10
ENDBRANCH   7   9
ENDBRANCH   3   4
ENDBRANCH   2   3
TORSDOF 9
ENDMDL
MODEL       32
REMARK 921   NORMALIZED FREE ENERGY PREDICTED BY IDOCK:   -5.16 KCAL/MOL
REMARK 922        TOTAL FREE ENERGY PREDICTED BY IDOCK:   -9.94 KCAL/MOL
REMARK 923 INTER-LIGAND FREE ENERGY PREDICTED BY IDOCK:   -7.97 KCAL/MOL
REMARK 924 INTRA-LIGAND FREE ENERGY PREDICTED BY IDOCK:   -1.97 KCAL/MOL
REMARK 927      BINDING AFFINITY PREDICTED BY RF-SCORE:    0.00 PKD
ROOT
HETATM    1  C   UNL     1      -5.129  20.204  67.872  1.00  0.00    -0.195 C  
HETATM    2  C   UNL     1      -6.200  20.356  66.800  1.00  0.00    -0.235 C  
ENDROOT
BRANCH   2   3
HETATM    3  C   UNL     1      -7.425  21.066  67.367  1.00  0.00    -0.264 C  
BRANCH   3   4
HETATM    4  C   UNL     1      -8.719  20.665  66.651  1.00  0.00    -0.066 C  
HETATM    5  C   UNL     1      -9.157  19.227  66.997  1.00  0.00    -0.339 C  
HETATM    6  C   UNL     1      -9.336  18.986  68.517  1.00  0.00    -0.425 C  
HETATM    7  C   UNL     1     -10.405  18.828  66.186  1.00  0.00    -0.448 C  
HETATM    8  C   UNL     1     -10.410  19.835  69.185  1.00  0.00    -0.172 C  
BRANCH   7   9
HETATM    9  O   UNL     1     -10.742  17.474  66.526  1.00  0.00    -0.228 OA 
BRANCH   9  10
HETATM   10  C   UNL     1     -11.012  16.592  65.538  1.00  0.00    -0.092 C  
HETATM   11  O   UNL     1     -11.016  16.839  64.343  1.00  0.00    -0.974 OA 
BRANCH  10  12
HETATM   12  C   UNL     1     -11.080  15.213  66.099  1.00  0.00    -0.311 C  
HETATM   13  C   UNL     1     -10.102  14.592  66.820  1.00  0.00    -0.266 C  
BRANCH  12  14
HETATM   14  C   UNL     1     -12.312  14.439  65.659  1.00  0.00    -0.337 C  
HETATM   15  H1  UNL     1     -14.162  13.279  64.998  1.00  0.00     0.000 HD 
HETATM   16  N   UNL     1     -13.335  13.798  65.293  1.00  0.00    -0.561 NA 
HETATM   17  H2  UNL     1     -14.303  14.084  65.439  1.00  0.00     0.000 HD 
ENDBRANCH  12  14
BRANCH  13  18
HETATM   18  C   UNL     1      -8.906  15.335  67.297  1.00  0.00    -0.212 A  
HETATM   19  C   UNL     1      -7.943  15.780  66.383  1.00  0.00    -0.039 A  
HETATM   20  C   UNL     1      -8.701  15.566  68.664  1.00  0.00    -0.188 A  
HETATM   21  C   UNL     1      -7.512  16.142  69.116  1.00  0.00    -0.221 A  
HETATM   22  C   UNL     1      -6.537  16.532  68.204  1.00  0.00    -0.145 A  
HETATM   23  C   UNL     1      -6.764  16.377  66.838  1.00  0.00    -0.205 A  
ENDBRANCH  13  18
BRANCH  13  24
HETATM   24  C   UNL     1     -10.203  13.127  67.074  1.00  0.00    -0.250 A  
HETATM   25  C   UNL     1     -10.912  11.301  68.518  1.00  0.00    -0.266 A  
HETATM   26  C   UNL     1     -10.821  12.669  68.250  1.00  0.00    -0.261 A  
HETATM   27  C   UNL     1     -10.419  10.372  67.607  1.00  0.00    -0.233 A  
HETATM   28  C   UNL     1      -9.795  10.816  66.439  1.00  0.00    -0.254 A  
HETATM   29  C   UNL     1      -9.685  12.192  66.174  1.00  0.00    -0.254 A  
BRANCH  27  30
HETATM   30  O   UNL     1     -10.542   9.062  67.988  1.00  0.00    -0.229 OA 
HETATM   31  C   UNL     1     -10.171   8.087  67.021  1.00  0.00    -0.303 C  
ENDBRANCH  27  30
ENDBRANCH  13  24
ENDBRANCH  10  12
ENDBRANCH   9  10
ENDBRANCH   7   9
ENDBRANCH   3   4
ENDBRANCH   2   3
TORSDOF 9
ENDMDL
MODEL       33
REMARK 921   NORMALIZED FREE ENERGY PREDICTED BY IDOCK:   -5.11 KCAL/MOL
REMARK 922        TOTAL FREE ENERGY PREDICTED BY IDOCK:   -9.87 KCAL/MOL
REMARK 923 INTER-LIGAND FREE ENERGY PREDICTED BY IDOCK:   -8.18 KCAL/MOL
REMARK 924 INTRA-LIGAND FREE ENERGY PREDICTED BY IDOCK:   -1.69 KCAL/MOL
REMARK 927      BINDING AFFINITY PREDICTED BY RF-SCORE:    0.00 PKD
ROOT
HETATM    1  C   UNL     1      -7.753   6.476  72.214  1.00  0.00    -0.097 C  
HETATM    2  C   UNL     1      -7.318   7.137  70.912  1.00  0.00    -0.075 C  
ENDROOT
BRANCH   2   3
HETATM    3  C   UNL     1      -8.410   7.002  69.855  1.00  0.00    -0.139 C  
BRANCH   3   4
HETATM    4  C   UNL     1      -9.584   7.955  70.101  1.00  0.00    -0.175 C  
HETATM    5  C   UNL     1      -9.386   9.319  69.407  1.00  0.00    -0.164 C  
HETATM    6  C   UNL     1      -9.149   9.206  67.880  1.00  0.00    -0.134 C  
HETATM    7  C   UNL     1     -10.538  10.280  69.756  1.00  0.00    -0.271 C  
HETATM    8  C   UNL     1     -10.297   8.592  67.091  1.00  0.00    -0.377 C  
BRANCH   7   9
HETATM    9  O   UNL     1     -10.279  11.536  69.111  1.00  0.00    -0.141 OA 
BRANCH   9  10
HETATM   10  C   UNL     1     -11.216  12.064  68.291  1.00  0.00    -0.261 C  
HETATM   11  O   UNL     1     -12.286  11.549  68.007  1.00  0.00    -0.582 OA 
BRANCH  10  12
HETATM   12  C   UNL     1     -10.861  13.473  67.961  1.00  0.00    -0.266 C  
HETATM   13  C   UNL     1     -10.558  13.955  66.721  1.00  0.00    -0.277 C  
BRANCH  12  14
HETATM   14  C   UNL     1     -10.693  14.358  69.186  1.00  0.00    -0.238 C  
HETATM   15  H1  UNL     1     -10.443  15.687  71.023  1.00  0.00     0.000 HD 
HETATM   16  N   UNL     1     -10.555  15.093  70.202  1.00  0.00    -0.459 NA 
HETATM   17  H2  UNL     1     -10.911  16.043  70.305  1.00  0.00     0.000 HD 
ENDBRANCH  12  14
BRANCH  13  18
HETATM   18  C   UNL     1     -10.749  13.123  65.504  1.00  0.00    -0.297 A  
HETATM   19  C   UNL     1     -11.820  13.377  64.638  1.00  0.00    -0.430 A  
HETATM   20  C   UNL     1      -9.891  12.051  65.224  1.00  0.00    -0.236 A  
HETATM   21  C   UNL     1     -10.154  11.190  64.157  1.00  0.00    -0.388 A  
HETATM   22  C   UNL     1     -11.252  11.419  63.333  1.00  0.00    -0.252 A  
HETATM   23  C   UNL     1     -12.067  12.527  63.556  1.00  0.00    -0.653 A  
ENDBRANCH  13  18
BRANCH  13  24
HETATM   24  C   UNL     1      -9.958  15.313  66.593  1.00  0.00    -0.264 A  
HETATM   25  C   UNL     1     -10.260  17.715  66.343  1.00  0.00    -0.364 A  
HETATM   26  C   UNL     1     -10.799  16.433  66.482  1.00  0.00    -0.073 A  
HETATM   27  C   UNL     1      -8.882  17.901  66.347  1.00  0.00    -0.228 A  
HETATM   28  C   UNL     1      -8.036  16.795  66.447  1.00  0.00    -0.355 A  
HETATM   29  C   UNL     1      -8.574  15.502  66.569  1.00  0.00    -0.320 A  
BRANCH  27  30
HETATM   30  O   UNL     1      -8.470  19.198  66.180  1.00  0.00    -0.373 OA 
HETATM   31  C   UNL     1      -7.131  19.381  65.736  1.00  0.00    -0.290 C  
ENDBRANCH  27  30
ENDBRANCH  13  24
ENDBRANCH  10  12
ENDBRANCH   9  10
ENDBRANCH   7   9
ENDBRANCH   3   4
ENDBRANCH   2   3
TORSDOF 9
ENDMDL
MODEL       34
REMARK 921   NORMALIZED FREE ENERGY PREDICTED BY IDOCK:   -5.11 KCAL/MOL
REMARK 922        TOTAL FREE ENERGY PREDICTED BY IDOCK:   -9.86 KCAL/MOL
REMARK 923 INTER-LIGAND FREE ENERGY PREDICTED BY IDOCK:   -8.13 KCAL/MOL
REMARK 924 INTRA-LIGAND FREE ENERGY PREDICTED BY IDOCK:   -1.74 KCAL/MOL
REMARK 927      BINDING AFFINITY PREDICTED BY RF-SCORE:    0.00 PKD
ROOT
HETATM    1  C   UNL     1     -12.594  15.342  73.670  1.00  0.00    -0.712 C  
HETATM    2  C   UNL     1     -13.543  15.515  72.492  1.00  0.00    -0.646 C  
ENDROOT
BRANCH   2   3
HETATM    3  C   UNL     1     -14.113  14.167  72.063  1.00  0.00    -0.619 C  
BRANCH   3   4
HETATM    4  C   UNL     1     -13.043  13.074  71.991  1.00  0.00    -0.481 C  
HETATM    5  C   UNL     1     -12.782  12.605  70.544  1.00  0.00    -0.066 C  
HETATM    6  C   UNL     1     -12.383  13.754  69.585  1.00  0.00    -0.284 C  
HETATM    7  C   UNL     1     -11.772  11.441  70.523  1.00  0.00    -0.198 C  
HETATM    8  C   UNL     1     -11.090  14.476  69.942  1.00  0.00    -0.204 C  
BRANCH   7   9
HETATM    9  O   UNL     1     -11.599  11.029  69.158  1.00  0.00    -0.266 OA 
BRANCH   9  10
HETATM   10  C   UNL     1     -10.349  10.830  68.682  1.00  0.00    -0.192 C  
HETATM   11  O   UNL     1      -9.368  11.503  68.951  1.00  0.00    -0.121 OA 
BRANCH  10  12
HETATM   12  C   UNL     1     -10.288   9.527  67.960  1.00  0.00    -0.260 C  
HETATM   13  C   UNL     1     -10.252   8.292  68.537  1.00  0.00    -0.234 C  
BRANCH  12  14
HETATM   14  C   UNL     1     -10.097   9.675  66.459  1.00  0.00    -0.244 C  
HETATM   15  H1  UNL     1      -9.811   9.897  64.206  1.00  0.00     0.000 HD 
HETATM   16  N   UNL     1      -9.939   9.798  65.214  1.00  0.00    -0.382 NA 
HETATM   17  H2  UNL     1      -9.343  10.485  64.753  1.00  0.00     0.000 HD 
ENDBRANCH  12  14
BRANCH  13  18
HETATM   18  C   UNL     1     -10.474   8.116  69.997  1.00  0.00    -0.231 A  
HETATM   19  C   UNL     1     -11.744   7.783  70.482  1.00  0.00    -0.118 A  
HETATM   20  C   UNL     1      -9.431   8.320  70.911  1.00  0.00    -0.192 A  
HETATM   21  C   UNL     1      -9.676   8.289  72.285  1.00  0.00    -0.362 A  
HETATM   22  C   UNL     1     -10.954   8.009  72.758  1.00  0.00    -0.449 A  
HETATM   23  C   UNL     1     -11.980   7.729  71.858  1.00  0.00    -0.340 A  
ENDBRANCH  13  18
BRANCH  13  24
HETATM   24  C   UNL     1      -9.915   7.106  67.700  1.00  0.00    -0.201 A  
HETATM   25  C   UNL     1      -8.229   5.628  66.754  1.00  0.00    -0.105 A  
HETATM   26  C   UNL     1      -8.571   6.725  67.548  1.00  0.00    -0.120 A  
HETATM   27  C   UNL     1      -9.219   4.877  66.129  1.00  0.00    -0.146 A  
HETATM   28  C   UNL     1     -10.557   5.252  66.265  1.00  0.00    -0.308 A  
HETATM   29  C   UNL     1     -10.905   6.366  67.048  1.00  0.00    -0.464 A  
BRANCH  27  30
HETATM   30  O   UNL     1      -8.762   3.841  65.357  1.00  0.00    -0.112 OA 
HETATM   31  C   UNL     1      -7.373   3.846  65.052  1.00  0.00    -0.068 C  
ENDBRANCH  27  30
ENDBRANCH  13  24
ENDBRANCH  10  12
ENDBRANCH   9  10
ENDBRANCH   7   9
ENDBRANCH   3   4
ENDBRANCH   2   3
TORSDOF 9
ENDMDL
MODEL       35
REMARK 921   NORMALIZED FREE ENERGY PREDICTED BY IDOCK:   -5.10 KCAL/MOL
REMARK 922        TOTAL FREE ENERGY PREDICTED BY IDOCK:   -9.85 KCAL/MOL
REMARK 923 INTER-LIGAND FREE ENERGY PREDICTED BY IDOCK:   -8.09 KCAL/MOL
REMARK 924 INTRA-LIGAND FREE ENERGY PREDICTED BY IDOCK:   -1.76 KCAL/MOL
REMARK 927      BINDING AFFINITY PREDICTED BY RF-SCORE:    0.00 PKD
ROOT
HETATM    1  C   UNL     1      -9.330   1.467  70.338  1.00  0.00    -0.167 C  
HETATM    2  C   UNL     1      -9.220   1.680  68.834  1.00  0.00    -0.194 C  
ENDROOT
BRANCH   2   3
HETATM    3  C   UNL     1      -9.399   3.156  68.490  1.00  0.00    -0.240 C  
BRANCH   3   4
HETATM    4  C   UNL     1      -9.777   4.001  69.710  1.00  0.00    -0.254 C  
HETATM    5  C   UNL     1      -9.070   5.372  69.715  1.00  0.00    -0.157 C  
HETATM    6  C   UNL     1      -9.330   6.204  68.435  1.00  0.00    -0.116 C  
HETATM    7  C   UNL     1      -9.400   6.151  71.002  1.00  0.00    -0.164 C  
HETATM    8  C   UNL     1     -10.786   6.579  68.191  1.00  0.00    -0.347 C  
BRANCH   7   9
HETATM    9  O   UNL     1      -8.688   7.397  70.962  1.00  0.00    -0.136 OA 
BRANCH   9  10
HETATM   10  C   UNL     1      -9.207   8.475  71.592  1.00  0.00    -0.236 C  
HETATM   11  O   UNL     1      -9.197   8.671  72.796  1.00  0.00    -0.293 OA 
BRANCH  10  12
HETATM   12  C   UNL     1      -9.591   9.508  70.588  1.00  0.00    -0.292 C  
HETATM   13  C   UNL     1     -10.864   9.833  70.219  1.00  0.00    -0.356 C  
BRANCH  12  14
HETATM   14  C   UNL     1      -8.405  10.099  69.843  1.00  0.00    -0.089 C  
HETATM   15  H1  UNL     1      -6.625  10.987  68.726  1.00  0.00     0.000 HD 
HETATM   16  N   UNL     1      -7.421  10.590  69.225  1.00  0.00    -0.110 NA 
HETATM   17  H2  UNL     1      -6.550  10.910  69.649  1.00  0.00     0.000 HD 
ENDBRANCH  12  14
BRANCH  13  18
HETATM   18  C   UNL     1     -12.040   9.300  70.955  1.00  0.00    -0.349 A  
HETATM   19  C   UNL     1     -12.387   7.948  70.845  1.00  0.00    -0.095 A  
HETATM   20  C   UNL     1     -12.842  10.144  71.736  1.00  0.00    -0.554 A  
HETATM   21  C   UNL     1     -14.021   9.668  72.313  1.00  0.00    -0.207 A  
HETATM   22  C   UNL     1     -14.386   8.335  72.153  1.00  0.00    -0.498 A  
HETATM   23  C   UNL     1     -13.555   7.470  71.444  1.00  0.00    -0.397 A  
ENDBRANCH  13  18
BRANCH  13  24
HETATM   24  C   UNL     1     -11.078  10.683  69.014  1.00  0.00    -0.307 A  
HETATM   25  C   UNL     1     -11.791  12.800  68.050  1.00  0.00    -0.386 A  
HETATM   26  C   UNL     1     -11.565  11.991  69.166  1.00  0.00    -0.370 A  
HETATM   27  C   UNL     1     -11.506  12.330  66.773  1.00  0.00    -0.361 A  
HETATM   28  C   UNL     1     -11.030  11.028  66.608  1.00  0.00    -0.253 A  
HETATM   29  C   UNL     1     -10.818  10.204  67.727  1.00  0.00    -0.346 A  
BRANCH  27  30
HETATM   30  O   UNL     1     -11.790  13.202  65.755  1.00  0.00    -0.356 OA 
HETATM   31  C   UNL     1     -12.491  12.663  64.640  1.00  0.00    -0.466 C  
ENDBRANCH  27  30
ENDBRANCH  13  24
ENDBRANCH  10  12
ENDBRANCH   9  10
ENDBRANCH   7   9
ENDBRANCH   3   4
ENDBRANCH   2   3
TORSDOF 9
ENDMDL
MODEL       36
REMARK 921   NORMALIZED FREE ENERGY PREDICTED BY IDOCK:   -5.08 KCAL/MOL
REMARK 922        TOTAL FREE ENERGY PREDICTED BY IDOCK:   -9.82 KCAL/MOL
REMARK 923 INTER-LIGAND FREE ENERGY PREDICTED BY IDOCK:   -7.72 KCAL/MOL
REMARK 924 INTRA-LIGAND FREE ENERGY PREDICTED BY IDOCK:   -2.09 KCAL/MOL
REMARK 927      BINDING AFFINITY PREDICTED BY RF-SCORE:    0.00 PKD
ROOT
HETATM    1  C   UNL     1      -7.701   7.951  63.717  1.00  0.00    -0.135 C  
HETATM    2  C   UNL     1      -8.579   8.495  64.835  1.00  0.00    -0.135 C  
ENDROOT
BRANCH   2   3
HETATM    3  C   UNL     1      -7.992   8.139  66.198  1.00  0.00    -0.102 C  
BRANCH   3   4
HETATM    4  C   UNL     1      -7.866   9.357  67.118  1.00  0.00    -0.098 C  
HETATM    5  C   UNL     1      -9.204   9.719  67.795  1.00  0.00    -0.141 C  
HETATM    6  C   UNL     1      -9.824   8.549  68.601  1.00  0.00    -0.180 C  
HETATM    7  C   UNL     1      -9.060  11.002  68.636  1.00  0.00    -0.174 C  
HETATM    8  C   UNL     1      -8.982   8.048  69.767  1.00  0.00    -0.145 C  
BRANCH   7   9
HETATM    9  O   UNL     1     -10.341  11.303  69.210  1.00  0.00    -0.176 OA 
BRANCH   9  10
HETATM   10  C   UNL     1     -11.314  11.816  68.423  1.00  0.00    -0.270 C  
HETATM   11  O   UNL     1     -12.371  11.272  68.150  1.00  0.00    -0.500 OA 
BRANCH  10  12
HETATM   12  C   UNL     1     -11.014  13.245  68.119  1.00  0.00    -0.278 C  
HETATM   13  C   UNL     1     -10.762  13.765  66.884  1.00  0.00    -0.280 C  
BRANCH  12  14
HETATM   14  C   UNL     1     -10.843  14.105  69.360  1.00  0.00    -0.136 C  
HETATM   15  H1  UNL     1     -10.585  15.396  71.223  1.00  0.00     0.000 HD 
HETATM   16  N   UNL     1     -10.700  14.819  70.390  1.00  0.00    -0.492 NA 
HETATM   17  H2  UNL     1     -11.454  15.249  70.927  1.00  0.00     0.000 HD 
ENDBRANCH  12  14
BRANCH  13  18
HETATM   18  C   UNL     1     -10.960  12.957  65.651  1.00  0.00    -0.297 A  
HETATM   19  C   UNL     1      -9.914  12.175  65.146  1.00  0.00    -0.251 A  
HETATM   20  C   UNL     1     -12.175  12.996  64.954  1.00  0.00    -0.490 A  
HETATM   21  C   UNL     1     -12.310  12.345  63.726  1.00  0.00    -0.625 A  
HETATM   22  C   UNL     1     -11.248  11.614  63.206  1.00  0.00    -0.305 A  
HETATM   23  C   UNL     1     -10.061  11.505  63.929  1.00  0.00    -0.388 A  
ENDBRANCH  13  18
BRANCH  13  24
HETATM   24  C   UNL     1     -10.212  15.146  66.773  1.00  0.00    -0.265 A  
HETATM   25  C   UNL     1      -8.292  16.612  66.479  1.00  0.00    -0.322 A  
HETATM   26  C   UNL     1      -8.834  15.327  66.568  1.00  0.00    -0.335 A  
HETATM   27  C   UNL     1      -9.116  17.729  66.561  1.00  0.00    -0.264 A  
HETATM   28  C   UNL     1     -10.486  17.561  66.774  1.00  0.00    -0.270 A  
HETATM   29  C   UNL     1     -11.033  16.271  66.882  1.00  0.00    -0.059 A  
BRANCH  27  30
HETATM   30  O   UNL     1      -8.470  18.935  66.485  1.00  0.00    -0.286 OA 
HETATM   31  C   UNL     1      -8.648  19.815  67.588  1.00  0.00    -0.326 C  
ENDBRANCH  27  30
ENDBRANCH  13  24
ENDBRANCH  10  12
ENDBRANCH   9  10
ENDBRANCH   7   9
ENDBRANCH   3   4
ENDBRANCH   2   3
TORSDOF 9
ENDMDL
MODEL       37
REMARK 921   NORMALIZED FREE ENERGY PREDICTED BY IDOCK:   -5.05 KCAL/MOL
REMARK 922        TOTAL FREE ENERGY PREDICTED BY IDOCK:   -9.78 KCAL/MOL
REMARK 923 INTER-LIGAND FREE ENERGY PREDICTED BY IDOCK:   -8.55 KCAL/MOL
REMARK 924 INTRA-LIGAND FREE ENERGY PREDICTED BY IDOCK:   -1.23 KCAL/MOL
REMARK 927      BINDING AFFINITY PREDICTED BY RF-SCORE:    0.00 PKD
ROOT
HETATM    1  C   UNL     1      -9.465  10.316  63.140  1.00  0.00    -0.337 C  
HETATM    2  C   UNL     1      -8.336   9.865  64.057  1.00  0.00    -0.168 C  
ENDROOT
BRANCH   2   3
HETATM    3  C   UNL     1      -8.408   8.359  64.291  1.00  0.00    -0.091 C  
BRANCH   3   4
HETATM    4  C   UNL     1      -7.835   7.949  65.651  1.00  0.00    -0.109 C  
HETATM    5  C   UNL     1      -8.665   8.504  66.827  1.00  0.00    -0.133 C  
HETATM    6  C   UNL     1     -10.159   8.097  66.774  1.00  0.00    -0.365 C  
HETATM    7  C   UNL     1      -8.005   8.152  68.174  1.00  0.00    -0.127 C  
HETATM    8  C   UNL     1     -10.425   6.599  66.853  1.00  0.00    -0.349 C  
BRANCH   7   9
HETATM    9  O   UNL     1      -8.803   8.723  69.222  1.00  0.00    -0.137 OA 
BRANCH   9  10
HETATM   10  C   UNL     1      -8.493   9.951  69.695  1.00  0.00    -0.187 C  
HETATM   11  O   UNL     1      -7.621  10.201  70.512  1.00  0.00    -0.269 OA 
BRANCH  10  12
HETATM   12  C   UNL     1      -9.211  10.991  68.904  1.00  0.00    -0.139 C  
HETATM   13  C   UNL     1     -10.554  11.230  68.927  1.00  0.00    -0.239 C  
BRANCH  12  14
HETATM   14  C   UNL     1      -8.325  11.705  67.896  1.00  0.00    -0.143 C  
HETATM   15  H1  UNL     1      -6.997  12.775  66.382  1.00  0.00     0.000 HD 
HETATM   16  N   UNL     1      -7.591  12.297  67.059  1.00  0.00    -0.326 NA 
HETATM   17  H2  UNL     1      -7.770  12.376  66.058  1.00  0.00     0.000 HD 
ENDBRANCH  12  14
BRANCH  13  18
HETATM   18  C   UNL     1     -11.436  10.575  69.928  1.00  0.00    -0.384 A  
HETATM   19  C   UNL     1     -12.255  11.349  70.760  1.00  0.00    -0.475 A  
HETATM   20  C   UNL     1     -11.434   9.182  70.085  1.00  0.00    -0.110 A  
HETATM   21  C   UNL     1     -12.160   8.583  71.116  1.00  0.00    -0.283 A  
HETATM   22  C   UNL     1     -12.929   9.365  71.972  1.00  0.00    -0.508 A  
HETATM   23  C   UNL     1     -12.998  10.743  71.776  1.00  0.00    -0.568 A  
ENDBRANCH  13  18
BRANCH  13  24
HETATM   24  C   UNL     1     -11.155  12.109  67.885  1.00  0.00    -0.295 A  
HETATM   25  C   UNL     1     -11.908  12.415  65.591  1.00  0.00    -0.468 A  
HETATM   26  C   UNL     1     -11.363  11.605  66.590  1.00  0.00    -0.338 A  
HETATM   27  C   UNL     1     -12.284  13.724  65.876  1.00  0.00    -0.466 A  
HETATM   28  C   UNL     1     -12.074  14.239  67.157  1.00  0.00    -0.412 A  
HETATM   29  C   UNL     1     -11.509  13.433  68.160  1.00  0.00    -0.339 A  
BRANCH  27  30
HETATM   30  O   UNL     1     -12.785  14.429  64.813  1.00  0.00    -0.635 OA 
HETATM   31  C   UNL     1     -11.973  15.489  64.322  1.00  0.00    -0.153 C  
ENDBRANCH  27  30
ENDBRANCH  13  24
ENDBRANCH  10  12
ENDBRANCH   9  10
ENDBRANCH   7   9
ENDBRANCH   3   4
ENDBRANCH   2   3
TORSDOF 9
ENDMDL
MODEL       38
REMARK 921   NORMALIZED FREE ENERGY PREDICTED BY IDOCK:   -5.03 KCAL/MOL
REMARK 922        TOTAL FREE ENERGY PREDICTED BY IDOCK:   -9.75 KCAL/MOL
REMARK 923 INTER-LIGAND FREE ENERGY PREDICTED BY IDOCK:   -8.34 KCAL/MOL
REMARK 924 INTRA-LIGAND FREE ENERGY PREDICTED BY IDOCK:   -1.42 KCAL/MOL
REMARK 927      BINDING AFFINITY PREDICTED BY RF-SCORE:    0.00 PKD
ROOT
HETATM    1  C   UNL     1      -9.599   6.058  71.771  1.00  0.00    -0.168 C  
HETATM    2  C   UNL     1     -10.437   5.674  70.560  1.00  0.00    -0.347 C  
ENDROOT
BRANCH   2   3
HETATM    3  C   UNL     1     -11.110   6.907  69.964  1.00  0.00    -0.344 C  
BRANCH   3   4
HETATM    4  C   UNL     1     -10.302   7.516  68.813  1.00  0.00    -0.212 C  
HETATM    5  C   UNL     1     -10.317   9.059  68.841  1.00  0.00    -0.232 C  
HETATM    6  C   UNL     1      -9.806   9.656  70.176  1.00  0.00    -0.310 C  
HETATM    7  C   UNL     1      -9.577   9.632  67.617  1.00  0.00    -0.142 C  
HETATM    8  C   UNL     1      -8.360   9.328  70.521  1.00  0.00    -0.237 C  
BRANCH   7   9
HETATM    9  O   UNL     1      -9.654  11.065  67.682  1.00  0.00    -0.166 OA 
BRANCH   9  10
HETATM   10  C   UNL     1      -8.594  11.802  67.281  1.00  0.00    -0.162 C  
HETATM   11  O   UNL     1      -7.616  11.380  66.687  1.00  0.00    -0.148 OA 
BRANCH  10  12
HETATM   12  C   UNL     1      -8.892  13.251  67.462  1.00  0.00    -0.206 C  
HETATM   13  C   UNL     1      -9.714  14.005  66.676  1.00  0.00    -0.296 C  
BRANCH  12  14
HETATM   14  C   UNL     1      -8.054  13.912  68.545  1.00  0.00    -0.133 C  
HETATM   15  H1  UNL     1      -6.796  14.903  70.169  1.00  0.00     0.000 HD 
HETATM   16  N   UNL     1      -7.358  14.460  69.443  1.00  0.00    -0.299 NA 
HETATM   17  H2  UNL     1      -6.370  14.703  69.368  1.00  0.00     0.000 HD 
ENDBRANCH  12  14
BRANCH  13  18
HETATM   18  C   UNL     1     -10.573  13.379  65.636  1.00  0.00    -0.286 A  
HETATM   19  C   UNL     1     -11.960  13.314  65.813  1.00  0.00    -0.463 A  
HETATM   20  C   UNL     1     -10.009  12.810  64.486  1.00  0.00    -0.175 A  
HETATM   21  C   UNL     1     -10.804  12.104  63.581  1.00  0.00    -0.523 A  
HETATM   22  C   UNL     1     -12.174  11.999  63.793  1.00  0.00    -0.600 A  
HETATM   23  C   UNL     1     -12.756  12.627  64.893  1.00  0.00    -0.450 A  
ENDBRANCH  13  18
BRANCH  13  24
HETATM   24  C   UNL     1      -9.696  15.489  66.815  1.00  0.00    -0.252 A  
HETATM   25  C   UNL     1     -10.658  17.509  67.770  1.00  0.00    -0.375 A  
HETATM   26  C   UNL     1     -10.644  16.118  67.638  1.00  0.00    -0.315 A  
HETATM   27  C   UNL     1      -9.711  18.287  67.113  1.00  0.00    -0.304 A  
HETATM   28  C   UNL     1      -8.769  17.673  66.285  1.00  0.00    -0.212 A  
HETATM   29  C   UNL     1      -8.763  16.275  66.135  1.00  0.00    -0.353 A  
BRANCH  27  30
HETATM   30  O   UNL     1      -9.838  19.639  67.298  1.00  0.00    -0.332 OA 
HETATM   31  C   UNL     1     -10.354  20.056  68.556  1.00  0.00    -0.294 C  
ENDBRANCH  27  30
ENDBRANCH  13  24
ENDBRANCH  10  12
ENDBRANCH   9  10
ENDBRANCH   7   9
ENDBRANCH   3   4
ENDBRANCH   2   3
TORSDOF 9
ENDMDL
MODEL       39
REMARK 921   NORMALIZED FREE ENERGY PREDICTED BY IDOCK:   -5.01 KCAL/MOL
REMARK 922        TOTAL FREE ENERGY PREDICTED BY IDOCK:   -9.72 KCAL/MOL
REMARK 923 INTER-LIGAND FREE ENERGY PREDICTED BY IDOCK:   -8.74 KCAL/MOL
REMARK 924 INTRA-LIGAND FREE ENERGY PREDICTED BY IDOCK:   -0.98 KCAL/MOL
REMARK 927      BINDING AFFINITY PREDICTED BY RF-SCORE:    0.00 PKD
ROOT
HETATM    1  C   UNL     1      -5.723  19.068  69.214  1.00  0.00    -0.231 C  
HETATM    2  C   UNL     1      -6.518  19.026  67.916  1.00  0.00    -0.237 C  
ENDROOT
BRANCH   2   3
HETATM    3  C   UNL     1      -7.990  18.745  68.201  1.00  0.00    -0.317 C  
BRANCH   3   4
HETATM    4  C   UNL     1      -8.245  17.284  68.585  1.00  0.00    -0.262 C  
HETATM    5  C   UNL     1      -9.743  16.919  68.536  1.00  0.00    -0.264 C  
HETATM    6  C   UNL     1     -10.400  17.193  67.160  1.00  0.00    -0.307 C  
HETATM    7  C   UNL     1      -9.967  15.474  69.020  1.00  0.00    -0.233 C  
HETATM    8  C   UNL     1      -9.823  16.397  65.997  1.00  0.00    -0.362 C  
BRANCH   7   9
HETATM    9  O   UNL     1     -11.378  15.207  68.984  1.00  0.00    -0.261 OA 
BRANCH   9  10
HETATM   10  C   UNL     1     -11.818  14.053  68.435  1.00  0.00    -0.362 C  
HETATM   11  O   UNL     1     -12.099  13.885  67.259  1.00  0.00    -0.401 OA 
BRANCH  10  12
HETATM   12  C   UNL     1     -11.692  12.945  69.423  1.00  0.00    -0.382 C  
HETATM   13  C   UNL     1     -11.105  11.734  69.199  1.00  0.00    -0.294 C  
BRANCH  12  14
HETATM   14  C   UNL     1     -12.440  13.203  70.721  1.00  0.00    -0.308 C  
HETATM   15  H1  UNL     1     -13.562  13.589  72.669  1.00  0.00     0.000 HD 
HETATM   16  N   UNL     1     -13.060  13.416  71.798  1.00  0.00    -0.389 NA 
HETATM   17  H2  UNL     1     -13.699  12.768  72.258  1.00  0.00     0.000 HD 
ENDBRANCH  12  14
BRANCH  13  18
HETATM   18  C   UNL     1     -10.336  11.468  67.955  1.00  0.00    -0.208 A  
HETATM   19  C   UNL     1     -10.861  10.628  66.967  1.00  0.00    -0.298 A  
HETATM   20  C   UNL     1      -9.060  12.018  67.769  1.00  0.00    -0.187 A  
HETATM   21  C   UNL     1      -8.285  11.657  66.665  1.00  0.00    -0.140 A  
HETATM   22  C   UNL     1      -8.795  10.779  65.714  1.00  0.00    -0.201 A  
HETATM   23  C   UNL     1     -10.092  10.287  65.850  1.00  0.00    -0.319 A  
ENDBRANCH  13  18
BRANCH  13  24
HETATM   24  C   UNL     1     -11.300  10.636  70.188  1.00  0.00    -0.402 A  
HETATM   25  C   UNL     1     -10.342   8.895  71.592  1.00  0.00    -0.416 A  
HETATM   26  C   UNL     1     -10.183   9.940  70.678  1.00  0.00    -0.203 A  
HETATM   27  C   UNL     1     -11.608   8.552  72.053  1.00  0.00    -0.362 A  
HETATM   28  C   UNL     1     -12.727   9.230  71.566  1.00  0.00    -0.426 A  
HETATM   29  C   UNL     1     -12.573  10.270  70.633  1.00  0.00    -0.391 A  
BRANCH  27  30
HETATM   30  O   UNL     1     -11.643   7.497  72.928  1.00  0.00    -0.290 OA 
HETATM   31  C   UNL     1     -10.487   7.310  73.735  1.00  0.00    -0.288 C  
ENDBRANCH  27  30
ENDBRANCH  13  24
ENDBRANCH  10  12
ENDBRANCH   9  10
ENDBRANCH   7   9
ENDBRANCH   3   4
ENDBRANCH   2   3
TORSDOF 9
ENDMDL
MODEL       40
REMARK 921   NORMALIZED FREE ENERGY PREDICTED BY IDOCK:   -5.00 KCAL/MOL
REMARK 922        TOTAL FREE ENERGY PREDICTED BY IDOCK:   -9.70 KCAL/MOL
REMARK 923 INTER-LIGAND FREE ENERGY PREDICTED BY IDOCK:   -8.62 KCAL/MOL
REMARK 924 INTRA-LIGAND FREE ENERGY PREDICTED BY IDOCK:   -1.08 KCAL/MOL
REMARK 927      BINDING AFFINITY PREDICTED BY RF-SCORE:    0.00 PKD
ROOT
HETATM    1  C   UNL     1      -6.302  13.965  68.056  1.00  0.00    -0.144 C  
HETATM    2  C   UNL     1      -7.025  15.168  68.646  1.00  0.00    -0.113 C  
ENDROOT
BRANCH   2   3
HETATM    3  C   UNL     1      -7.078  16.308  67.634  1.00  0.00    -0.164 C  
BRANCH   3   4
HETATM    4  C   UNL     1      -8.063  16.034  66.493  1.00  0.00    -0.304 C  
HETATM    5  C   UNL     1      -9.473  15.680  67.009  1.00  0.00    -0.236 C  
HETATM    6  C   UNL     1     -10.079  16.761  67.939  1.00  0.00    -0.284 C  
HETATM    7  C   UNL     1     -10.407  15.318  65.839  1.00  0.00    -0.329 C  
HETATM    8  C   UNL     1     -10.290  18.125  67.294  1.00  0.00    -0.399 C  
BRANCH   7   9
HETATM    9  O   UNL     1     -11.688  14.967  66.385  1.00  0.00    -0.256 OA 
BRANCH   9  10
HETATM   10  C   UNL     1     -12.354  13.906  65.877  1.00  0.00    -0.483 C  
HETATM   11  O   UNL     1     -13.481  13.930  65.407  1.00  0.00    -0.672 OA 
BRANCH  10  12
HETATM   12  C   UNL     1     -11.432  12.742  65.758  1.00  0.00    -0.388 C  
HETATM   13  C   UNL     1     -10.985  11.965  66.787  1.00  0.00    -0.337 C  
BRANCH  12  14
HETATM   14  C   UNL     1     -10.863  12.560  64.360  1.00  0.00    -0.342 C  
HETATM   15  H1  UNL     1     -10.009  12.286  62.262  1.00  0.00     0.000 HD 
HETATM   16  N   UNL     1     -10.390  12.408  63.200  1.00  0.00    -0.542 NA 
HETATM   17  H2  UNL     1      -9.981  11.550  62.830  1.00  0.00     0.000 HD 
ENDBRANCH  12  14
BRANCH  13  18
HETATM   18  C   UNL     1     -11.552  12.096  68.155  1.00  0.00    -0.397 A  
HETATM   19  C   UNL     1     -11.604  13.348  68.779  1.00  0.00    -0.363 A  
HETATM   20  C   UNL     1     -12.003  10.969  68.856  1.00  0.00    -0.332 A  
HETATM   21  C   UNL     1     -12.406  11.077  70.188  1.00  0.00    -0.389 A  
HETATM   22  C   UNL     1     -12.405  12.318  70.818  1.00  0.00    -0.383 A  
HETATM   23  C   UNL     1     -12.031  13.456  70.105  1.00  0.00    -0.396 A  
ENDBRANCH  13  18
BRANCH  13  24
HETATM   24  C   UNL     1      -9.858  11.019  66.549  1.00  0.00    -0.241 A  
HETATM   25  C   UNL     1      -9.097   8.778  65.983  1.00  0.00    -0.265 A  
HETATM   26  C   UNL     1     -10.136   9.688  66.194  1.00  0.00    -0.328 A  
HETATM   27  C   UNL     1      -7.772   9.186  66.090  1.00  0.00    -0.095 A  
HETATM   28  C   UNL     1      -7.484  10.504  66.451  1.00  0.00    -0.133 A  
HETATM   29  C   UNL     1      -8.526  11.419  66.682  1.00  0.00    -0.171 A  
BRANCH  27  30
HETATM   30  O   UNL     1      -6.841   8.202  65.886  1.00  0.00    -0.058 OA 
HETATM   31  C   UNL     1      -7.349   6.898  65.627  1.00  0.00    -0.079 C  
ENDBRANCH  27  30
ENDBRANCH  13  24
ENDBRANCH  10  12
ENDBRANCH   9  10
ENDBRANCH   7   9
ENDBRANCH   3   4
ENDBRANCH   2   3
TORSDOF 9
ENDMDL
MODEL       41
REMARK 921   NORMALIZED FREE ENERGY PREDICTED BY IDOCK:   -5.00 KCAL/MOL
REMARK 922        TOTAL FREE ENERGY PREDICTED BY IDOCK:   -9.70 KCAL/MOL
REMARK 923 INTER-LIGAND FREE ENERGY PREDICTED BY IDOCK:   -7.82 KCAL/MOL
REMARK 924 INTRA-LIGAND FREE ENERGY PREDICTED BY IDOCK:   -1.88 KCAL/MOL
REMARK 927      BINDING AFFINITY PREDICTED BY RF-SCORE:    0.00 PKD
ROOT
HETATM    1  C   UNL     1     -10.511   4.215  74.526  1.00  0.00    -0.275 C  
HETATM    2  C   UNL     1     -10.980   4.436  73.094  1.00  0.00    -0.332 C  
ENDROOT
BRANCH   2   3
HETATM    3  C   UNL     1     -10.123   3.631  72.122  1.00  0.00    -0.212 C  
BRANCH   3   4
HETATM    4  C   UNL     1      -9.684   4.455  70.908  1.00  0.00    -0.267 C  
HETATM    5  C   UNL     1      -8.915   5.730  71.312  1.00  0.00    -0.147 C  
HETATM    6  C   UNL     1      -7.674   5.448  72.196  1.00  0.00    -0.101 C  
HETATM    7  C   UNL     1      -8.576   6.578  70.072  1.00  0.00    -0.140 C  
HETATM    8  C   UNL     1      -6.593   4.598  71.540  1.00  0.00    -0.027 C  
BRANCH   7   9
HETATM    9  O   UNL     1      -7.894   7.762  70.516  1.00  0.00    -0.093 OA 
BRANCH   9  10
HETATM   10  C   UNL     1      -8.583   8.705  71.197  1.00  0.00    -0.181 C  
HETATM   11  O   UNL     1      -8.593   8.845  72.409  1.00  0.00    -0.399 OA 
BRANCH  10  12
HETATM   12  C   UNL     1      -9.148   9.701  70.243  1.00  0.00    -0.272 C  
HETATM   13  C   UNL     1     -10.469   9.863  69.942  1.00  0.00    -0.309 C  
BRANCH  12  14
HETATM   14  C   UNL     1      -8.089  10.464  69.464  1.00  0.00    -0.136 C  
HETATM   15  H1  UNL     1      -6.499  11.607  68.294  1.00  0.00     0.000 HD 
HETATM   16  N   UNL     1      -7.209  11.096  68.817  1.00  0.00    -0.090 NA 
HETATM   17  H2  UNL     1      -7.003  10.984  67.825  1.00  0.00     0.000 HD 
ENDBRANCH  12  14
BRANCH  13  18
HETATM   18  C   UNL     1     -11.527   9.159  70.714  1.00  0.00    -0.337 A  
HETATM   19  C   UNL     1     -11.781   7.801  70.486  1.00  0.00    -0.118 A  
HETATM   20  C   UNL     1     -12.313   9.848  71.647  1.00  0.00    -0.496 A  
HETATM   21  C   UNL     1     -13.394   9.218  72.268  1.00  0.00    -0.547 A  
HETATM   22  C   UNL     1     -13.671   7.882  71.995  1.00  0.00    -0.296 A  
HETATM   23  C   UNL     1     -12.848   7.167  71.127  1.00  0.00    -0.340 A  
ENDBRANCH  13  18
BRANCH  13  24
HETATM   24  C   UNL     1     -10.852  10.705  68.774  1.00  0.00    -0.269 A  
HETATM   25  C   UNL     1     -11.000  10.988  66.361  1.00  0.00    -0.202 A  
HETATM   26  C   UNL     1     -10.665  10.210  67.472  1.00  0.00    -0.347 A  
HETATM   27  C   UNL     1     -11.555  12.251  66.530  1.00  0.00    -0.377 A  
HETATM   28  C   UNL     1     -11.737  12.758  67.819  1.00  0.00    -0.412 A  
HETATM   29  C   UNL     1     -11.385  11.986  68.939  1.00  0.00    -0.333 A  
BRANCH  27  30
HETATM   30  O   UNL     1     -11.820  12.930  65.369  1.00  0.00    -0.357 OA 
HETATM   31  C   UNL     1     -11.803  12.162  64.172  1.00  0.00    -0.404 C  
ENDBRANCH  27  30
ENDBRANCH  13  24
ENDBRANCH  10  12
ENDBRANCH   9  10
ENDBRANCH   7   9
ENDBRANCH   3   4
ENDBRANCH   2   3
TORSDOF 9
ENDMDL
MODEL       42
REMARK 921   NORMALIZED FREE ENERGY PREDICTED BY IDOCK:   -4.99 KCAL/MOL
REMARK 922        TOTAL FREE ENERGY PREDICTED BY IDOCK:   -9.69 KCAL/MOL
REMARK 923 INTER-LIGAND FREE ENERGY PREDICTED BY IDOCK:   -8.82 KCAL/MOL
REMARK 924 INTRA-LIGAND FREE ENERGY PREDICTED BY IDOCK:   -0.87 KCAL/MOL
REMARK 927      BINDING AFFINITY PREDICTED BY RF-SCORE:    0.00 PKD
ROOT
HETATM    1  C   UNL     1     -10.488  19.991  66.014  1.00  0.00    -0.523 C  
HETATM    2  C   UNL     1     -10.774  19.418  67.395  1.00  0.00    -0.594 C  
ENDROOT
BRANCH   2   3
HETATM    3  C   UNL     1      -9.472  19.187  68.157  1.00  0.00    -0.400 C  
BRANCH   3   4
HETATM    4  C   UNL     1      -9.419  17.808  68.822  1.00  0.00    -0.254 C  
HETATM    5  C   UNL     1      -9.759  16.671  67.837  1.00  0.00    -0.244 C  
HETATM    6  C   UNL     1      -8.853  16.651  66.581  1.00  0.00    -0.280 C  
HETATM    7  C   UNL     1      -9.789  15.313  68.564  1.00  0.00    -0.210 C  
HETATM    8  C   UNL     1      -7.372  16.427  66.854  1.00  0.00    -0.269 C  
BRANCH   7   9
HETATM    9  O   UNL     1     -10.143  14.304  67.605  1.00  0.00    -0.227 OA 
BRANCH   9  10
HETATM   10  C   UNL     1     -11.324  13.658  67.730  1.00  0.00    -0.306 C  
HETATM   11  O   UNL     1     -12.247  13.698  66.932  1.00  0.00    -0.399 OA 
BRANCH  10  12
HETATM   12  C   UNL     1     -11.257  12.702  68.872  1.00  0.00    -0.329 C  
HETATM   13  C   UNL     1     -10.714  11.451  68.838  1.00  0.00    -0.248 C  
BRANCH  12  14
HETATM   14  C   UNL     1     -12.014  13.173  70.103  1.00  0.00    -0.310 C  
HETATM   15  H1  UNL     1     -13.151  13.880  71.950  1.00  0.00     0.000 HD 
HETATM   16  N   UNL     1     -12.643  13.564  71.124  1.00  0.00    -0.363 NA 
HETATM   17  H2  UNL     1     -13.657  13.616  71.217  1.00  0.00     0.000 HD 
ENDBRANCH  12  14
BRANCH  13  18
HETATM   18  C   UNL     1      -9.936  10.980  67.662  1.00  0.00    -0.196 A  
HETATM   19  C   UNL     1      -8.583  11.316  67.531  1.00  0.00    -0.134 A  
HETATM   20  C   UNL     1     -10.549  10.230  66.649  1.00  0.00    -0.232 A  
HETATM   21  C   UNL     1      -9.851   9.907  65.483  1.00  0.00    -0.381 A  
HETATM   22  C   UNL     1      -8.522  10.291  65.339  1.00  0.00    -0.166 A  
HETATM   23  C   UNL     1      -7.881  10.971  66.373  1.00  0.00    -0.150 A  
ENDBRANCH  13  18
BRANCH  13  24
HETATM   24  C   UNL     1     -10.966  10.516  69.971  1.00  0.00    -0.351 A  
HETATM   25  C   UNL     1     -10.099   8.957  71.626  1.00  0.00    -0.411 A  
HETATM   26  C   UNL     1      -9.886   9.852  70.574  1.00  0.00    -0.122 A  
HETATM   27  C   UNL     1     -11.384   8.739  72.112  1.00  0.00    -0.341 A  
HETATM   28  C   UNL     1     -12.467   9.386  71.514  1.00  0.00    -0.450 A  
HETATM   29  C   UNL     1     -12.259  10.273  70.444  1.00  0.00    -0.346 A  
BRANCH  27  30
HETATM   30  O   UNL     1     -11.473   7.823  73.128  1.00  0.00    -0.330 OA 
HETATM   31  C   UNL     1     -10.950   6.528  72.857  1.00  0.00    -0.250 C  
ENDBRANCH  27  30
ENDBRANCH  13  24
ENDBRANCH  10  12
ENDBRANCH   9  10
ENDBRANCH   7   9
ENDBRANCH   3   4
ENDBRANCH   2   3
TORSDOF 9
ENDMDL
MODEL       43
REMARK 921   NORMALIZED FREE ENERGY PREDICTED BY IDOCK:   -4.99 KCAL/MOL
REMARK 922        TOTAL FREE ENERGY PREDICTED BY IDOCK:   -9.69 KCAL/MOL
REMARK 923 INTER-LIGAND FREE ENERGY PREDICTED BY IDOCK:   -7.34 KCAL/MOL
REMARK 924 INTRA-LIGAND FREE ENERGY PREDICTED BY IDOCK:   -2.35 KCAL/MOL
REMARK 927      BINDING AFFINITY PREDICTED BY RF-SCORE:    0.00 PKD
ROOT
HETATM    1  C   UNL     1      -9.802   4.877  72.468  1.00  0.00    -0.202 C  
HETATM    2  C   UNL     1     -10.865   5.379  71.500  1.00  0.00    -0.218 C  
ENDROOT
BRANCH   2   3
HETATM    3  C   UNL     1     -10.376   5.259  70.060  1.00  0.00    -0.365 C  
BRANCH   3   4
HETATM    4  C   UNL     1     -11.084   6.236  69.116  1.00  0.00    -0.457 C  
HETATM    5  C   UNL     1     -10.130   6.817  68.053  1.00  0.00    -0.183 C  
HETATM    6  C   UNL     1      -9.419   5.734  67.204  1.00  0.00    -0.121 C  
HETATM    7  C   UNL     1     -10.854   7.865  67.186  1.00  0.00    -0.116 C  
HETATM    8  C   UNL     1     -10.343   4.849  66.377  1.00  0.00    -0.328 C  
BRANCH   7   9
HETATM    9  O   UNL     1      -9.908   8.391  66.242  1.00  0.00    -0.245 OA 
BRANCH   9  10
HETATM   10  C   UNL     1      -8.820   9.052  66.696  1.00  0.00    -0.132 C  
HETATM   11  O   UNL     1      -7.677   8.623  66.703  1.00  0.00    -0.094 OA 
BRANCH  10  12
HETATM   12  C   UNL     1      -9.173  10.473  66.975  1.00  0.00    -0.167 C  
HETATM   13  C   UNL     1      -9.468  11.000  68.198  1.00  0.00    -0.172 C  
BRANCH  12  14
HETATM   14  C   UNL     1      -9.349  11.311  65.719  1.00  0.00    -0.223 C  
HETATM   15  H1  UNL     1      -9.613  12.570  63.835  1.00  0.00     0.000 HD 
HETATM   16  N   UNL     1      -9.495  12.007  64.677  1.00  0.00    -0.442 NA 
HETATM   17  H2  UNL     1     -10.365  12.133  64.161  1.00  0.00     0.000 HD 
ENDBRANCH  12  14
BRANCH  13  18
HETATM   18  C   UNL     1      -9.269  10.214  69.445  1.00  0.00    -0.229 A  
HETATM   19  C   UNL     1      -7.982   9.821  69.832  1.00  0.00    -0.184 A  
HETATM   20  C   UNL     1     -10.363   9.821  70.228  1.00  0.00    -0.348 A  
HETATM   21  C   UNL     1     -10.184   8.969  71.320  1.00  0.00    -0.384 A  
HETATM   22  C   UNL     1      -8.907   8.540  71.666  1.00  0.00    -0.272 A  
HETATM   23  C   UNL     1      -7.805   8.988  70.940  1.00  0.00    -0.172 A  
ENDBRANCH  13  18
BRANCH  13  24
HETATM   24  C   UNL     1     -10.068  12.362  68.279  1.00  0.00    -0.227 A  
HETATM   25  C   UNL     1      -9.767  14.767  68.500  1.00  0.00    -0.218 A  
HETATM   26  C   UNL     1      -9.228  13.481  68.405  1.00  0.00    -0.159 A  
HETATM   27  C   UNL     1     -11.143  14.957  68.439  1.00  0.00    -0.273 A  
HETATM   28  C   UNL     1     -11.988  13.851  68.324  1.00  0.00    -0.392 A  
HETATM   29  C   UNL     1     -11.451  12.555  68.246  1.00  0.00    -0.355 A  
BRANCH  27  30
HETATM   30  O   UNL     1     -11.557  16.258  68.568  1.00  0.00    -0.346 OA 
HETATM   31  C   UNL     1     -10.554  17.206  68.914  1.00  0.00    -0.314 C  
ENDBRANCH  27  30
ENDBRANCH  13  24
ENDBRANCH  10  12
ENDBRANCH   9  10
ENDBRANCH   7   9
ENDBRANCH   3   4
ENDBRANCH   2   3
TORSDOF 9
ENDMDL
MODEL       44
REMARK 921   NORMALIZED FREE ENERGY PREDICTED BY IDOCK:   -4.93 KCAL/MOL
REMARK 922        TOTAL FREE ENERGY PREDICTED BY IDOCK:   -9.60 KCAL/MOL
REMARK 923 INTER-LIGAND FREE ENERGY PREDICTED BY IDOCK:   -7.53 KCAL/MOL
REMARK 924 INTRA-LIGAND FREE ENERGY PREDICTED BY IDOCK:   -2.07 KCAL/MOL
REMARK 927      BINDING AFFINITY PREDICTED BY RF-SCORE:    0.00 PKD
ROOT
HETATM    1  C   UNL     1      -5.341  13.807  69.199  1.00  0.00    -0.077 C  
HETATM    2  C   UNL     1      -5.534  13.234  67.801  1.00  0.00    -0.098 C  
ENDROOT
BRANCH   2   3
HETATM    3  C   UNL     1      -5.567  11.710  67.849  1.00  0.00    -0.048 C  
BRANCH   3   4
HETATM    4  C   UNL     1      -6.811  11.173  68.564  1.00  0.00    -0.065 C  
HETATM    5  C   UNL     1      -8.103  11.425  67.760  1.00  0.00    -0.121 C  
HETATM    6  C   UNL     1      -8.062  10.838  66.327  1.00  0.00    -0.159 C  
HETATM    7  C   UNL     1      -9.338  10.958  68.553  1.00  0.00    -0.181 C  
HETATM    8  C   UNL     1      -7.910   9.324  66.251  1.00  0.00    -0.103 C  
BRANCH   7   9
HETATM    9  O   UNL     1     -10.506  11.250  67.769  1.00  0.00    -0.176 OA 
BRANCH   9  10
HETATM   10  C   UNL     1     -11.441  12.092  68.264  1.00  0.00    -0.303 C  
HETATM   11  O   UNL     1     -12.389  11.773  68.964  1.00  0.00    -0.254 OA 
BRANCH  10  12
HETATM   12  C   UNL     1     -11.023  13.503  68.028  1.00  0.00    -0.271 C  
HETATM   13  C   UNL     1     -10.842  14.093  66.812  1.00  0.00    -0.296 C  
BRANCH  12  14
HETATM   14  C   UNL     1     -10.636  14.241  69.300  1.00  0.00    -0.141 C  
HETATM   15  H1  UNL     1     -10.055  15.347  71.208  1.00  0.00     0.000 HD 
HETATM   16  N   UNL     1     -10.315  14.853  70.355  1.00  0.00    -0.486 NA 
HETATM   17  H2  UNL     1      -9.992  14.420  71.221  1.00  0.00     0.000 HD 
ENDBRANCH  12  14
BRANCH  13  18
HETATM   18  C   UNL     1     -11.248  13.409  65.556  1.00  0.00    -0.303 A  
HETATM   19  C   UNL     1     -12.604  13.208  65.268  1.00  0.00    -0.531 A  
HETATM   20  C   UNL     1     -10.286  12.918  64.662  1.00  0.00    -0.321 A  
HETATM   21  C   UNL     1     -10.668  12.158  63.555  1.00  0.00    -0.509 A  
HETATM   22  C   UNL     1     -12.015  11.918  63.306  1.00  0.00    -0.441 A  
HETATM   23  C   UNL     1     -12.983  12.467  64.146  1.00  0.00    -0.267 A  
ENDBRANCH  13  18
BRANCH  13  24
HETATM   24  C   UNL     1     -10.161  15.416  66.737  1.00  0.00    -0.273 A  
HETATM   25  C   UNL     1     -10.292  17.843  66.863  1.00  0.00    -0.358 A  
HETATM   26  C   UNL     1     -10.905  16.590  66.945  1.00  0.00    -0.083 A  
HETATM   27  C   UNL     1      -8.929  17.942  66.606  1.00  0.00    -0.268 A  
HETATM   28  C   UNL     1      -8.181  16.783  66.389  1.00  0.00    -0.349 A  
HETATM   29  C   UNL     1      -8.797  15.521  66.453  1.00  0.00    -0.359 A  
BRANCH  27  30
HETATM   30  O   UNL     1      -8.444  19.222  66.525  1.00  0.00    -0.298 OA 
HETATM   31  C   UNL     1      -9.224  20.232  67.153  1.00  0.00    -0.390 C  
ENDBRANCH  27  30
ENDBRANCH  13  24
ENDBRANCH  10  12
ENDBRANCH   9  10
ENDBRANCH   7   9
ENDBRANCH   3   4
ENDBRANCH   2   3
TORSDOF 9
ENDMDL
MODEL       45
REMARK 921   NORMALIZED FREE ENERGY PREDICTED BY IDOCK:   -4.92 KCAL/MOL
REMARK 922        TOTAL FREE ENERGY PREDICTED BY IDOCK:   -9.58 KCAL/MOL
REMARK 923 INTER-LIGAND FREE ENERGY PREDICTED BY IDOCK:   -7.83 KCAL/MOL
REMARK 924 INTRA-LIGAND FREE ENERGY PREDICTED BY IDOCK:   -1.75 KCAL/MOL
REMARK 927      BINDING AFFINITY PREDICTED BY RF-SCORE:    0.00 PKD
ROOT
HETATM    1  C   UNL     1     -12.015  13.985  67.037  1.00  0.00    -0.472 C  
HETATM    2  C   UNL     1     -12.468  13.740  65.604  1.00  0.00    -0.541 C  
ENDROOT
BRANCH   2   3
HETATM    3  C   UNL     1     -11.801  12.489  65.040  1.00  0.00    -0.445 C  
BRANCH   3   4
HETATM    4  C   UNL     1     -10.293  12.459  65.306  1.00  0.00    -0.308 C  
HETATM    5  C   UNL     1      -9.758  11.022  65.478  1.00  0.00    -0.274 C  
HETATM    6  C   UNL     1     -10.068  10.099  64.273  1.00  0.00    -0.030 C  
HETATM    7  C   UNL     1      -8.260  11.038  65.838  1.00  0.00    -0.100 C  
HETATM    8  C   UNL     1      -9.449  10.532  62.950  1.00  0.00    -0.360 C  
BRANCH   7   9
HETATM    9  O   UNL     1      -7.831   9.680  66.017  1.00  0.00    -0.100 OA 
BRANCH   9  10
HETATM   10  C   UNL     1      -7.410   9.275  67.237  1.00  0.00    -0.091 C  
HETATM   11  O   UNL     1      -6.316   8.798  67.491  1.00  0.00    -0.055 OA 
BRANCH  10  12
HETATM   12  C   UNL     1      -8.387   9.709  68.276  1.00  0.00    -0.117 C  
HETATM   13  C   UNL     1      -9.519   9.040  68.640  1.00  0.00    -0.149 C  
BRANCH  12  14
HETATM   14  C   UNL     1      -8.110  11.099  68.825  1.00  0.00    -0.140 C  
HETATM   15  H1  UNL     1      -7.695  13.185  69.649  1.00  0.00     0.000 HD 
HETATM   16  N   UNL     1      -7.881  12.252  69.281  1.00  0.00    -0.249 NA 
HETATM   17  H2  UNL     1      -7.072  12.523  69.839  1.00  0.00     0.000 HD 
ENDBRANCH  12  14
BRANCH  13  18
HETATM   18  C   UNL     1      -9.793   7.664  68.149  1.00  0.00    -0.186 A  
HETATM   19  C   UNL     1      -9.158   6.565  68.739  1.00  0.00    -0.126 A  
HETATM   20  C   UNL     1     -10.656   7.448  67.065  1.00  0.00    -0.414 A  
HETATM   21  C   UNL     1     -10.805   6.171  66.520  1.00  0.00    -0.165 A  
HETATM   22  C   UNL     1     -10.128   5.092  67.080  1.00  0.00    -0.252 A  
HETATM   23  C   UNL     1      -9.328   5.284  68.205  1.00  0.00    -0.143 A  
ENDBRANCH  13  18
BRANCH  13  24
HETATM   24  C   UNL     1     -10.530   9.730  69.490  1.00  0.00    -0.250 A  
HETATM   25  C   UNL     1     -11.778   9.844  71.576  1.00  0.00    -0.414 A  
HETATM   26  C   UNL     1     -10.820   9.225  70.769  1.00  0.00    -0.349 A  
HETATM   27  C   UNL     1     -12.434  10.989  71.136  1.00  0.00    -0.397 A  
HETATM   28  C   UNL     1     -12.161  11.494  69.863  1.00  0.00    -0.389 A  
HETATM   29  C   UNL     1     -11.211  10.864  69.040  1.00  0.00    -0.327 A  
BRANCH  27  30
HETATM   30  O   UNL     1     -13.368  11.493  72.003  1.00  0.00    -0.476 OA 
HETATM   31  C   UNL     1     -13.409  12.909  72.131  1.00  0.00    -0.515 C  
ENDBRANCH  27  30
ENDBRANCH  13  24
ENDBRANCH  10  12
ENDBRANCH   9  10
ENDBRANCH   7   9
ENDBRANCH   3   4
ENDBRANCH   2   3
TORSDOF 9
ENDMDL
MODEL       46
REMARK 921   NORMALIZED FREE ENERGY PREDICTED BY IDOCK:   -4.92 KCAL/MOL
REMARK 922        TOTAL FREE ENERGY PREDICTED BY IDOCK:   -9.58 KCAL/MOL
REMARK 923 INTER-LIGAND FREE ENERGY PREDICTED BY IDOCK:   -8.01 KCAL/MOL
REMARK 924 INTRA-LIGAND FREE ENERGY PREDICTED BY IDOCK:   -1.57 KCAL/MOL
REMARK 927      BINDING AFFINITY PREDICTED BY RF-SCORE:    0.00 PKD
ROOT
HETATM    1  C   UNL     1      -5.761  16.301  67.374  1.00  0.00    -0.168 C  
HETATM    2  C   UNL     1      -6.747  15.441  68.154  1.00  0.00    -0.138 C  
ENDROOT
BRANCH   2   3
HETATM    3  C   UNL     1      -6.667  13.988  67.694  1.00  0.00    -0.188 C  
BRANCH   3   4
HETATM    4  C   UNL     1      -7.329  13.024  68.683  1.00  0.00    -0.097 C  
HETATM    5  C   UNL     1      -8.394  12.135  68.009  1.00  0.00    -0.167 C  
HETATM    6  C   UNL     1      -7.848  11.319  66.810  1.00  0.00    -0.155 C  
HETATM    7  C   UNL     1      -9.104  11.249  69.051  1.00  0.00     0.029 C  
HETATM    8  C   UNL     1      -6.748  10.323  67.152  1.00  0.00    -0.078 C  
BRANCH   7   9
HETATM    9  O   UNL     1     -10.102  10.473  68.369  1.00  0.00    -0.155 OA 
BRANCH   9  10
HETATM   10  C   UNL     1     -11.197  11.094  67.875  1.00  0.00    -0.302 C  
HETATM   11  O   UNL     1     -11.761  10.818  66.829  1.00  0.00    -0.063 OA 
BRANCH  10  12
HETATM   12  C   UNL     1     -11.760  12.015  68.902  1.00  0.00    -0.383 C  
HETATM   13  C   UNL     1     -11.810  13.376  68.817  1.00  0.00    -0.386 C  
BRANCH  12  14
HETATM   14  C   UNL     1     -12.154  11.315  70.193  1.00  0.00    -0.366 C  
HETATM   15  H1  UNL     1     -12.747  10.266  72.130  1.00  0.00     0.000 HD 
HETATM   16  N   UNL     1     -12.482  10.735  71.264  1.00  0.00    -0.389 NA 
HETATM   17  H2  UNL     1     -13.222  11.030  71.900  1.00  0.00     0.000 HD 
ENDBRANCH  12  14
BRANCH  13  18
HETATM   18  C   UNL     1     -11.467  14.083  67.555  1.00  0.00    -0.369 A  
HETATM   19  C   UNL     1     -12.281  13.943  66.425  1.00  0.00    -0.487 A  
HETATM   20  C   UNL     1     -10.307  14.863  67.462  1.00  0.00    -0.239 A  
HETATM   21  C   UNL     1      -9.917  15.413  66.239  1.00  0.00    -0.308 A  
HETATM   22  C   UNL     1     -10.705  15.224  65.108  1.00  0.00    -0.455 A  
HETATM   23  C   UNL     1     -11.900  14.513  65.208  1.00  0.00    -0.358 A  
ENDBRANCH  13  18
BRANCH  13  24
HETATM   24  C   UNL     1     -12.147  14.170  70.033  1.00  0.00    -0.409 A  
HETATM   25  C   UNL     1     -13.823  14.988  71.596  1.00  0.00    -0.571 A  
HETATM   26  C   UNL     1     -13.480  14.236  70.469  1.00  0.00     0.196 A  
HETATM   27  C   UNL     1     -12.841  15.656  72.319  1.00  0.00    -0.441 A  
HETATM   28  C   UNL     1     -11.513  15.606  71.889  1.00  0.00    -0.501 A  
HETATM   29  C   UNL     1     -11.167  14.865  70.746  1.00  0.00    -0.215 A  
BRANCH  27  30
HETATM   30  O   UNL     1     -13.298  16.380  73.389  1.00  0.00    -0.498 OA 
HETATM   31  C   UNL     1     -12.450  16.422  74.530  1.00  0.00    -0.351 C  
ENDBRANCH  27  30
ENDBRANCH  13  24
ENDBRANCH  10  12
ENDBRANCH   9  10
ENDBRANCH   7   9
ENDBRANCH   3   4
ENDBRANCH   2   3
TORSDOF 9
ENDMDL
MODEL       47
REMARK 921   NORMALIZED FREE ENERGY PREDICTED BY IDOCK:   -4.87 KCAL/MOL
REMARK 922        TOTAL FREE ENERGY PREDICTED BY IDOCK:   -9.51 KCAL/MOL
REMARK 923 INTER-LIGAND FREE ENERGY PREDICTED BY IDOCK:   -8.46 KCAL/MOL
REMARK 924 INTRA-LIGAND FREE ENERGY PREDICTED BY IDOCK:   -1.05 KCAL/MOL
REMARK 927      BINDING AFFINITY PREDICTED BY RF-SCORE:    0.00 PKD
ROOT
HETATM    1  C   UNL     1     -10.754  19.569  65.947  1.00  0.00    -0.518 C  
HETATM    2  C   UNL     1      -9.299  19.903  66.247  1.00  0.00    -0.474 C  
ENDROOT
BRANCH   2   3
HETATM    3  C   UNL     1      -9.052  19.908  67.753  1.00  0.00    -0.418 C  
BRANCH   3   4
HETATM    4  C   UNL     1      -9.474  18.595  68.420  1.00  0.00    -0.377 C  
HETATM    5  C   UNL     1      -8.682  17.385  67.882  1.00  0.00    -0.237 C  
HETATM    6  C   UNL     1      -7.147  17.541  68.020  1.00  0.00    -0.201 C  
HETATM    7  C   UNL     1      -9.200  16.075  68.505  1.00  0.00    -0.206 C  
HETATM    8  C   UNL     1      -6.635  17.669  69.449  1.00  0.00    -0.206 C  
BRANCH   7   9
HETATM    9  O   UNL     1      -8.449  14.988  67.942  1.00  0.00    -0.140 OA 
BRANCH   9  10
HETATM   10  C   UNL     1      -9.018  14.216  66.988  1.00  0.00    -0.237 C  
HETATM   11  O   UNL     1      -9.353  14.590  65.875  1.00  0.00    -0.231 OA 
BRANCH  10  12
HETATM   12  C   UNL     1      -8.966  12.785  67.401  1.00  0.00    -0.195 C  
HETATM   13  C   UNL     1      -9.786  11.791  66.951  1.00  0.00    -0.212 C  
BRANCH  12  14
HETATM   14  C   UNL     1      -7.992  12.517  68.536  1.00  0.00    -0.097 C  
HETATM   15  H1  UNL     1      -6.530  12.114  70.241  1.00  0.00     0.000 HD 
HETATM   16  N   UNL     1      -7.184  12.294  69.479  1.00  0.00    -0.323 NA 
HETATM   17  H2  UNL     1      -7.409  12.305  70.473  1.00  0.00     0.000 HD 
ENDBRANCH  12  14
BRANCH  13  18
HETATM   18  C   UNL     1     -10.720  12.017  65.817  1.00  0.00    -0.319 A  
HETATM   19  C   UNL     1     -10.346  11.665  64.514  1.00  0.00    -0.349 A  
HETATM   20  C   UNL     1     -11.968  12.620  66.024  1.00  0.00    -0.478 A  
HETATM   21  C   UNL     1     -12.784  12.954  64.941  1.00  0.00    -0.474 A  
HETATM   22  C   UNL     1     -12.379  12.648  63.645  1.00  0.00    -0.584 A  
HETATM   23  C   UNL     1     -11.175  11.979  63.435  1.00  0.00    -0.481 A  
ENDBRANCH  13  18
BRANCH  13  24
HETATM   24  C   UNL     1      -9.794  10.479  67.656  1.00  0.00    -0.192 A  
HETATM   25  C   UNL     1     -10.755   9.025  69.355  1.00  0.00    -0.202 A  
HETATM   26  C   UNL     1     -10.740  10.242  68.668  1.00  0.00    -0.255 A  
HETATM   27  C   UNL     1      -9.853   8.020  69.024  1.00  0.00    -0.178 A  
HETATM   28  C   UNL     1      -8.902   8.248  68.027  1.00  0.00    -0.135 A  
HETATM   29  C   UNL     1      -8.871   9.476  67.345  1.00  0.00    -0.134 A  
BRANCH  27  30
HETATM   30  O   UNL     1      -9.947   6.882  69.782  1.00  0.00    -0.176 OA 
HETATM   31  C   UNL     1     -11.221   6.250  69.814  1.00  0.00    -0.430 C  
ENDBRANCH  27  30
ENDBRANCH  13  24
ENDBRANCH  10  12
ENDBRANCH   9  10
ENDBRANCH   7   9
ENDBRANCH   3   4
ENDBRANCH   2   3
TORSDOF 9
ENDMDL
MODEL       48
REMARK 921   NORMALIZED FREE ENERGY PREDICTED BY IDOCK:   -4.84 KCAL/MOL
REMARK 922        TOTAL FREE ENERGY PREDICTED BY IDOCK:   -9.46 KCAL/MOL
REMARK 923 INTER-LIGAND FREE ENERGY PREDICTED BY IDOCK:   -7.37 KCAL/MOL
REMARK 924 INTRA-LIGAND FREE ENERGY PREDICTED BY IDOCK:   -2.09 KCAL/MOL
REMARK 927      BINDING AFFINITY PREDICTED BY RF-SCORE:    0.00 PKD
ROOT
HETATM    1  C   UNL     1     -10.091  11.787  63.829  1.00  0.00    -0.421 C  
HETATM    2  C   UNL     1     -11.593  11.822  63.578  1.00  0.00    -0.487 C  
ENDROOT
BRANCH   2   3
HETATM    3  C   UNL     1     -12.150  13.213  63.865  1.00  0.00    -0.536 C  
BRANCH   3   4
HETATM    4  C   UNL     1     -11.088  14.166  64.423  1.00  0.00    -0.265 C  
HETATM    5  C   UNL     1     -11.583  14.926  65.671  1.00  0.00    -0.245 C  
HETATM    6  C   UNL     1     -12.062  13.994  66.812  1.00  0.00    -0.480 C  
HETATM    7  C   UNL     1     -10.526  15.942  66.144  1.00  0.00    -0.326 C  
HETATM    8  C   UNL     1     -10.995  13.069  67.383  1.00  0.00    -0.284 C  
BRANCH   7   9
HETATM    9  O   UNL     1     -11.057  16.638  67.282  1.00  0.00    -0.128 OA 
BRANCH   9  10
HETATM   10  C   UNL     1     -10.232  17.404  68.033  1.00  0.00    -0.345 C  
HETATM   11  O   UNL     1     -10.345  18.605  68.216  1.00  0.00    -0.374 OA 
BRANCH  10  12
HETATM   12  C   UNL     1      -9.293  16.533  68.796  1.00  0.00    -0.247 C  
HETATM   13  C   UNL     1      -7.941  16.472  68.628  1.00  0.00    -0.232 C  
BRANCH  12  14
HETATM   14  C   UNL     1      -9.994  15.548  69.718  1.00  0.00    -0.274 C  
HETATM   15  H1  UNL     1     -11.045  14.069  71.101  1.00  0.00     0.000 HD 
HETATM   16  N   UNL     1     -10.575  14.730  70.482  1.00  0.00    -0.485 NA 
HETATM   17  H2  UNL     1     -10.126  13.975  71.001  1.00  0.00     0.000 HD 
ENDBRANCH  12  14
BRANCH  13  18
HETATM   18  C   UNL     1      -7.227  17.447  67.763  1.00  0.00    -0.177 A  
HETATM   19  C   UNL     1      -6.893  17.110  66.446  1.00  0.00    -0.284 A  
HETATM   20  C   UNL     1      -6.839  18.699  68.261  1.00  0.00    -0.257 A  
HETATM   21  C   UNL     1      -6.051  19.556  67.491  1.00  0.00    -0.208 A  
HETATM   22  C   UNL     1      -5.679  19.189  66.201  1.00  0.00    -0.177 A  
HETATM   23  C   UNL     1      -6.123  17.980  65.670  1.00  0.00    -0.244 A  
ENDBRANCH  13  18
BRANCH  13  24
HETATM   24  C   UNL     1      -7.177  15.363  69.267  1.00  0.00    -0.186 A  
HETATM   25  C   UNL     1      -6.553  13.011  69.313  1.00  0.00    -0.089 A  
HETATM   26  C   UNL     1      -7.246  14.070  68.721  1.00  0.00    -0.113 A  
HETATM   27  C   UNL     1      -5.759  13.231  70.433  1.00  0.00    -0.171 A  
HETATM   28  C   UNL     1      -5.690  14.509  70.990  1.00  0.00    -0.164 A  
HETATM   29  C   UNL     1      -6.400  15.574  70.409  1.00  0.00     0.070 A  
BRANCH  27  30
HETATM   30  O   UNL     1      -5.147  12.114  70.940  1.00  0.00    -0.115 OA 
HETATM   31  C   UNL     1      -5.738  10.864  70.603  1.00  0.00    -0.123 C  
ENDBRANCH  27  30
ENDBRANCH  13  24
ENDBRANCH  10  12
ENDBRANCH   9  10
ENDBRANCH   7   9
ENDBRANCH   3   4
ENDBRANCH   2   3
TORSDOF 9
ENDMDL
MODEL       49
REMARK 921   NORMALIZED FREE ENERGY PREDICTED BY IDOCK:   -4.84 KCAL/MOL
REMARK 922        TOTAL FREE ENERGY PREDICTED BY IDOCK:   -9.46 KCAL/MOL
REMARK 923 INTER-LIGAND FREE ENERGY PREDICTED BY IDOCK:   -8.26 KCAL/MOL
REMARK 924 INTRA-LIGAND FREE ENERGY PREDICTED BY IDOCK:   -1.20 KCAL/MOL
REMARK 927      BINDING AFFINITY PREDICTED BY RF-SCORE:    0.00 PKD
ROOT
HETATM    1  C   UNL     1     -11.858  16.039  72.579  1.00  0.00    -0.630 C  
HETATM    2  C   UNL     1     -12.289  15.759  71.146  1.00  0.00    -0.480 C  
ENDROOT
BRANCH   2   3
HETATM    3  C   UNL     1     -11.996  14.309  70.774  1.00  0.00    -0.390 C  
BRANCH   3   4
HETATM    4  C   UNL     1     -12.535  13.939  69.389  1.00  0.00    -0.088 C  
HETATM    5  C   UNL     1     -11.573  13.013  68.615  1.00  0.00    -0.354 C  
HETATM    6  C   UNL     1     -11.226  11.710  69.377  1.00  0.00    -0.311 C  
HETATM    7  C   UNL     1     -12.103  12.742  67.194  1.00  0.00    -0.168 C  
HETATM    8  C   UNL     1     -12.409  10.796  69.670  1.00  0.00    -0.262 C  
BRANCH   7   9
HETATM    9  O   UNL     1     -11.152  11.906  66.517  1.00  0.00    -0.279 OA 
BRANCH   9  10
HETATM   10  C   UNL     1     -10.534  12.373  65.409  1.00  0.00    -0.277 C  
HETATM   11  O   UNL     1     -10.389  11.760  64.363  1.00  0.00    -0.270 OA 
BRANCH  10  12
HETATM   12  C   UNL     1     -10.256  13.829  65.562  1.00  0.00    -0.332 C  
HETATM   13  C   UNL     1      -9.375  14.388  66.441  1.00  0.00    -0.284 C  
BRANCH  12  14
HETATM   14  C   UNL     1     -11.182  14.712  64.742  1.00  0.00    -0.389 C  
HETATM   15  H1  UNL     1     -12.572  16.038  63.511  1.00  0.00     0.000 HD 
HETATM   16  N   UNL     1     -11.951  15.445  64.061  1.00  0.00    -0.949 NA 
HETATM   17  H2  UNL     1     -12.926  15.244  63.841  1.00  0.00     0.000 HD 
ENDBRANCH  12  14
BRANCH  13  18
HETATM   18  C   UNL     1      -8.432  13.550  67.227  1.00  0.00    -0.200 A  
HETATM   19  C   UNL     1      -7.961  12.340  66.703  1.00  0.00     0.095 A  
HETATM   20  C   UNL     1      -8.033  13.933  68.515  1.00  0.00    -0.137 A  
HETATM   21  C   UNL     1      -7.258  13.078  69.301  1.00  0.00     0.164 A  
HETATM   22  C   UNL     1      -6.838  11.853  68.792  1.00  0.00    -0.093 A  
HETATM   23  C   UNL     1      -7.166  11.497  67.485  1.00  0.00    -0.111 A  
ENDBRANCH  13  18
BRANCH  13  24
HETATM   24  C   UNL     1      -9.409  15.861  66.668  1.00  0.00    -0.274 A  
HETATM   25  C   UNL     1      -8.389  18.047  66.353  1.00  0.00    -0.275 A  
HETATM   26  C   UNL     1      -8.388  16.667  66.138  1.00  0.00    -0.305 A  
HETATM   27  C   UNL     1      -9.420  18.646  67.068  1.00  0.00    -0.298 A  
HETATM   28  C   UNL     1     -10.435  17.854  67.609  1.00  0.00    -0.406 A  
HETATM   29  C   UNL     1     -10.429  16.463  67.410  1.00  0.00    -0.309 A  
BRANCH  27  30
HETATM   30  O   UNL     1      -9.302  20.001  67.236  1.00  0.00    -0.334 OA 
HETATM   31  C   UNL     1      -7.976  20.515  67.297  1.00  0.00    -0.314 C  
ENDBRANCH  27  30
ENDBRANCH  13  24
ENDBRANCH  10  12
ENDBRANCH   9  10
ENDBRANCH   7   9
ENDBRANCH   3   4
ENDBRANCH   2   3
TORSDOF 9
ENDMDL
MODEL       50
REMARK 921   NORMALIZED FREE ENERGY PREDICTED BY IDOCK:   -4.82 KCAL/MOL
REMARK 922        TOTAL FREE ENERGY PREDICTED BY IDOCK:   -9.43 KCAL/MOL
REMARK 923 INTER-LIGAND FREE ENERGY PREDICTED BY IDOCK:   -7.68 KCAL/MOL
REMARK 924 INTRA-LIGAND FREE ENERGY PREDICTED BY IDOCK:   -1.76 KCAL/MOL
REMARK 927      BINDING AFFINITY PREDICTED BY RF-SCORE:    0.00 PKD
ROOT
HETATM    1  C   UNL     1     -11.993  15.874  72.009  1.00  0.00    -0.602 C  
HETATM    2  C   UNL     1     -11.912  14.821  70.912  1.00  0.00    -0.384 C  
ENDROOT
BRANCH   2   3
HETATM    3  C   UNL     1     -12.040  15.472  69.538  1.00  0.00    -0.326 C  
BRANCH   3   4
HETATM    4  C   UNL     1     -10.802  15.244  68.664  1.00  0.00    -0.253 C  
HETATM    5  C   UNL     1     -10.671  13.776  68.207  1.00  0.00    -0.264 C  
HETATM    6  C   UNL     1     -11.917  13.253  67.449  1.00  0.00    -0.383 C  
HETATM    7  C   UNL     1      -9.367  13.567  67.413  1.00  0.00    -0.228 C  
HETATM    8  C   UNL     1     -12.239  13.982  66.151  1.00  0.00    -0.494 C  
BRANCH   7   9
HETATM    9  O   UNL     1      -9.288  12.181  67.047  1.00  0.00    -0.190 OA 
BRANCH   9  10
HETATM   10  C   UNL     1      -8.570  11.334  67.818  1.00  0.00    -0.126 C  
HETATM   11  O   UNL     1      -7.910  11.646  68.797  1.00  0.00    -0.136 OA 
BRANCH  10  12
HETATM   12  C   UNL     1      -8.882   9.925  67.444  1.00  0.00    -0.137 C  
HETATM   13  C   UNL     1      -9.675   9.066  68.147  1.00  0.00    -0.172 C  
BRANCH  12  14
HETATM   14  C   UNL     1      -8.091   9.427  66.245  1.00  0.00    -0.111 C  
HETATM   15  H1  UNL     1      -6.904   8.679  64.446  1.00  0.00     0.000 HD 
HETATM   16  N   UNL     1      -7.435   9.014  65.251  1.00  0.00    -0.092 NA 
HETATM   17  H2  UNL     1      -7.319   8.038  64.976  1.00  0.00     0.000 HD 
ENDBRANCH  12  14
BRANCH  13  18
HETATM   18  C   UNL     1     -10.489   9.536  69.299  1.00  0.00    -0.226 A  
HETATM   19  C   UNL     1     -10.219   9.068  70.590  1.00  0.00    -0.284 A  
HETATM   20  C   UNL     1     -11.561  10.419  69.108  1.00  0.00    -0.234 A  
HETATM   21  C   UNL     1     -12.406  10.749  70.170  1.00  0.00    -0.401 A  
HETATM   22  C   UNL     1     -12.161  10.236  71.439  1.00  0.00    -0.481 A  
HETATM   23  C   UNL     1     -11.053   9.419  71.655  1.00  0.00    -0.409 A  
ENDBRANCH  13  18
BRANCH  13  24
HETATM   24  C   UNL     1      -9.670   7.618  67.796  1.00  0.00    -0.180 A  
HETATM   25  C   UNL     1      -8.572   5.448  67.895  1.00  0.00    -0.104 A  
HETATM   26  C   UNL     1      -8.608   6.805  68.226  1.00  0.00    -0.124 A  
HETATM   27  C   UNL     1      -9.606   4.877  67.161  1.00  0.00    -0.159 A  
HETATM   28  C   UNL     1     -10.663   5.677  66.720  1.00  0.00    -0.358 A  
HETATM   29  C   UNL     1     -10.694   7.046  67.036  1.00  0.00    -0.423 A  
BRANCH  27  30
HETATM   30  O   UNL     1      -9.450   3.546  66.876  1.00  0.00    -0.197 OA 
HETATM   31  C   UNL     1      -9.318   2.674  67.992  1.00  0.00    -0.202 C  
ENDBRANCH  27  30
ENDBRANCH  13  24
ENDBRANCH  10  12
ENDBRANCH   9  10
ENDBRANCH   7   9
ENDBRANCH   3   4
ENDBRANCH   2   3
TORSDOF 9
ENDMDL
MODEL       51
REMARK 921   NORMALIZED FREE ENERGY PREDICTED BY IDOCK:   -4.82 KCAL/MOL
REMARK 922        TOTAL FREE ENERGY PREDICTED BY IDOCK:   -9.42 KCAL/MOL
REMARK 923 INTER-LIGAND FREE ENERGY PREDICTED BY IDOCK:   -8.37 KCAL/MOL
REMARK 924 INTRA-LIGAND FREE ENERGY PREDICTED BY IDOCK:   -1.05 KCAL/MOL
REMARK 927      BINDING AFFINITY PREDICTED BY RF-SCORE:    0.00 PKD
ROOT
HETATM    1  C   UNL     1      -9.542  20.523  67.080  1.00  0.00    -0.570 C  
HETATM    2  C   UNL     1     -10.282  19.746  68.160  1.00  0.00    -0.577 C  
ENDROOT
BRANCH   2   3
HETATM    3  C   UNL     1     -10.725  18.386  67.630  1.00  0.00    -0.390 C  
BRANCH   3   4
HETATM    4  C   UNL     1      -9.550  17.541  67.128  1.00  0.00    -0.262 C  
HETATM    5  C   UNL     1      -9.890  16.037  67.077  1.00  0.00    -0.240 C  
HETATM    6  C   UNL     1     -11.137  15.715  66.216  1.00  0.00    -0.127 C  
HETATM    7  C   UNL     1      -8.657  15.213  66.660  1.00  0.00    -0.243 C  
HETATM    8  C   UNL     1     -11.018  16.082  64.742  1.00  0.00    -0.373 C  
BRANCH   7   9
HETATM    9  O   UNL     1      -9.027  13.826  66.665  1.00  0.00    -0.217 OA 
BRANCH   9  10
HETATM   10  C   UNL     1      -9.300  13.219  67.842  1.00  0.00    -0.214 C  
HETATM   11  O   UNL     1      -9.752  13.762  68.837  1.00  0.00    -0.114 OA 
BRANCH  10  12
HETATM   12  C   UNL     1      -9.190  11.741  67.683  1.00  0.00    -0.180 C  
HETATM   13  C   UNL     1      -9.847  10.983  66.758  1.00  0.00    -0.229 C  
BRANCH  12  14
HETATM   14  C   UNL     1      -8.376  11.072  68.778  1.00  0.00    -0.144 C  
HETATM   15  H1  UNL     1      -7.155  10.068  70.423  1.00  0.00     0.000 HD 
HETATM   16  N   UNL     1      -7.701  10.517  69.688  1.00  0.00    -0.286 NA 
HETATM   17  H2  UNL     1      -8.059   9.859  70.380  1.00  0.00     0.000 HD 
ENDBRANCH  12  14
BRANCH  13  18
HETATM   18  C   UNL     1     -10.619  11.612  65.653  1.00  0.00    -0.324 A  
HETATM   19  C   UNL     1     -11.884  12.159  65.899  1.00  0.00    -0.342 A  
HETATM   20  C   UNL     1     -10.114  11.632  64.346  1.00  0.00    -0.322 A  
HETATM   21  C   UNL     1     -10.899  12.099  63.289  1.00  0.00    -0.381 A  
HETATM   22  C   UNL     1     -12.176  12.592  63.536  1.00  0.00    -0.652 A  
HETATM   23  C   UNL     1     -12.657  12.648  64.843  1.00  0.00    -0.525 A  
ENDBRANCH  13  18
BRANCH  13  24
HETATM   24  C   UNL     1      -9.849   9.500  66.899  1.00  0.00    -0.262 A  
HETATM   25  C   UNL     1      -8.924   7.339  66.267  1.00  0.00    -0.185 A  
HETATM   26  C   UNL     1      -8.930   8.733  66.164  1.00  0.00    -0.225 A  
HETATM   27  C   UNL     1      -9.809   6.695  67.125  1.00  0.00    -0.151 A  
HETATM   28  C   UNL     1     -10.733   7.446  67.854  1.00  0.00    -0.217 A  
HETATM   29  C   UNL     1     -10.755   8.847  67.740  1.00  0.00    -0.204 A  
BRANCH  27  30
HETATM   30  O   UNL     1      -9.727   5.327  67.124  1.00  0.00    -0.132 OA 
HETATM   31  C   UNL     1     -10.269   4.664  65.987  1.00  0.00    -0.277 C  
ENDBRANCH  27  30
ENDBRANCH  13  24
ENDBRANCH  10  12
ENDBRANCH   9  10
ENDBRANCH   7   9
ENDBRANCH   3   4
ENDBRANCH   2   3
TORSDOF 9
ENDMDL
MODEL       52
REMARK 921   NORMALIZED FREE ENERGY PREDICTED BY IDOCK:   -4.80 KCAL/MOL
REMARK 922        TOTAL FREE ENERGY PREDICTED BY IDOCK:   -9.40 KCAL/MOL
REMARK 923 INTER-LIGAND FREE ENERGY PREDICTED BY IDOCK:   -7.88 KCAL/MOL
REMARK 924 INTRA-LIGAND FREE ENERGY PREDICTED BY IDOCK:   -1.52 KCAL/MOL
REMARK 927      BINDING AFFINITY PREDICTED BY RF-SCORE:    0.00 PKD
ROOT
HETATM    1  C   UNL     1     -11.581   6.590  70.153  1.00  0.00    -0.466 C  
HETATM    2  C   UNL     1     -10.472   7.424  69.526  1.00  0.00    -0.236 C  
ENDROOT
BRANCH   2   3
HETATM    3  C   UNL     1     -10.178   6.943  68.108  1.00  0.00    -0.203 C  
BRANCH   3   4
HETATM    4  C   UNL     1     -10.726   7.895  67.041  1.00  0.00    -0.289 C  
HETATM    5  C   UNL     1      -9.823   9.129  66.839  1.00  0.00    -0.280 C  
HETATM    6  C   UNL     1      -8.359   8.771  66.480  1.00  0.00    -0.112 C  
HETATM    7  C   UNL     1     -10.454  10.108  65.831  1.00  0.00    -0.071 C  
HETATM    8  C   UNL     1      -8.181   8.008  65.174  1.00  0.00    -0.147 C  
BRANCH   7   9
HETATM    9  O   UNL     1      -9.586  11.246  65.713  1.00  0.00    -0.211 OA 
BRANCH   9  10
HETATM   10  C   UNL     1     -10.085  12.411  65.240  1.00  0.00    -0.265 C  
HETATM   11  O   UNL     1     -10.181  12.720  64.063  1.00  0.00    -0.403 OA 
BRANCH  10  12
HETATM   12  C   UNL     1     -10.717  13.175  66.352  1.00  0.00    -0.293 C  
HETATM   13  C   UNL     1     -10.185  13.373  67.593  1.00  0.00    -0.228 C  
BRANCH  12  14
HETATM   14  C   UNL     1     -12.142  13.612  66.053  1.00  0.00    -0.441 C  
HETATM   15  H1  UNL     1     -14.281  14.268  65.604  1.00  0.00     0.000 HD 
HETATM   16  N   UNL     1     -13.325  13.975  65.805  1.00  0.00    -0.618 NA 
HETATM   17  H2  UNL     1     -13.626  14.509  64.990  1.00  0.00     0.000 HD 
ENDBRANCH  12  14
BRANCH  13  18
HETATM   18  C   UNL     1      -8.782  12.991  67.900  1.00  0.00    -0.189 A  
HETATM   19  C   UNL     1      -7.718  13.753  67.403  1.00  0.00    -0.158 A  
HETATM   20  C   UNL     1      -8.500  11.842  68.653  1.00  0.00    -0.045 A  
HETATM   21  C   UNL     1      -7.182  11.412  68.823  1.00  0.00    -0.107 A  
HETATM   22  C   UNL     1      -6.134  12.148  68.280  1.00  0.00    -0.052 A  
HETATM   23  C   UNL     1      -6.400  13.332  67.595  1.00  0.00    -0.161 A  
ENDBRANCH  13  18
BRANCH  13  24
HETATM   24  C   UNL     1     -11.050  13.918  68.678  1.00  0.00    -0.290 A  
HETATM   25  C   UNL     1     -12.535  13.520  70.564  1.00  0.00    -0.373 A  
HETATM   26  C   UNL     1     -11.705  13.033  69.550  1.00  0.00    -0.381 A  
HETATM   27  C   UNL     1     -12.697  14.889  70.742  1.00  0.00    -0.363 A  
HETATM   28  C   UNL     1     -12.058  15.778  69.875  1.00  0.00    -0.315 A  
HETATM   29  C   UNL     1     -11.237  15.293  68.843  1.00  0.00    -0.291 A  
BRANCH  27  30
HETATM   30  O   UNL     1     -13.553  15.247  71.751  1.00  0.00    -0.405 OA 
HETATM   31  C   UNL     1     -13.005  15.269  73.064  1.00  0.00    -0.493 C  
ENDBRANCH  27  30
ENDBRANCH  13  24
ENDBRANCH  10  12
ENDBRANCH   9  10
ENDBRANCH   7   9
ENDBRANCH   3   4
ENDBRANCH   2   3
TORSDOF 9
ENDMDL
MODEL       53
REMARK 921   NORMALIZED FREE ENERGY PREDICTED BY IDOCK:   -4.78 KCAL/MOL
REMARK 922        TOTAL FREE ENERGY PREDICTED BY IDOCK:   -9.36 KCAL/MOL
REMARK 923 INTER-LIGAND FREE ENERGY PREDICTED BY IDOCK:   -8.25 KCAL/MOL
REMARK 924 INTRA-LIGAND FREE ENERGY PREDICTED BY IDOCK:   -1.11 KCAL/MOL
REMARK 927      BINDING AFFINITY PREDICTED BY RF-SCORE:    0.00 PKD
ROOT
HETATM    1  C   UNL     1      -8.921   6.677  71.139  1.00  0.00    -0.145 C  
HETATM    2  C   UNL     1     -10.233   5.993  71.496  1.00  0.00    -0.249 C  
ENDROOT
BRANCH   2   3
HETATM    3  C   UNL     1     -11.376   7.003  71.506  1.00  0.00    -0.290 C  
BRANCH   3   4
HETATM    4  C   UNL     1     -10.879   8.452  71.464  1.00  0.00    -0.323 C  
HETATM    5  C   UNL     1     -11.748   9.342  70.552  1.00  0.00    -0.225 C  
HETATM    6  C   UNL     1     -13.248   9.343  70.940  1.00  0.00    -0.092 C  
HETATM    7  C   UNL     1     -11.162  10.764  70.460  1.00  0.00    -0.101 C  
HETATM    8  C   UNL     1     -13.557   9.884  72.330  1.00  0.00    -0.337 C  
BRANCH   7   9
HETATM    9  O   UNL     1     -11.993  11.530  69.574  1.00  0.00    -0.312 OA 
BRANCH   9  10
HETATM   10  C   UNL     1     -11.720  11.535  68.250  1.00  0.00    -0.301 C  
HETATM   11  O   UNL     1     -11.870  10.593  67.488  1.00  0.00    -0.346 OA 
BRANCH  10  12
HETATM   12  C   UNL     1     -11.427  12.925  67.801  1.00  0.00    -0.369 C  
HETATM   13  C   UNL     1     -10.630  13.277  66.751  1.00  0.00    -0.276 C  
BRANCH  12  14
HETATM   14  C   UNL     1     -11.975  13.992  68.735  1.00  0.00    -0.347 C  
HETATM   15  H1  UNL     1     -12.798  15.592  70.137  1.00  0.00     0.000 HD 
HETATM   16  N   UNL     1     -12.430  14.877  69.510  1.00  0.00    -0.570 NA 
HETATM   17  H2  UNL     1     -12.662  14.745  70.495  1.00  0.00     0.000 HD 
ENDBRANCH  12  14
BRANCH  13  18
HETATM   18  C   UNL     1     -10.112  12.258  65.800  1.00  0.00    -0.274 A  
HETATM   19  C   UNL     1     -10.800  11.989  64.611  1.00  0.00    -0.357 A  
HETATM   20  C   UNL     1      -8.956  11.523  66.096  1.00  0.00    -0.201 A  
HETATM   21  C   UNL     1      -8.551  10.474  65.267  1.00  0.00    -0.185 A  
HETATM   22  C   UNL     1      -9.272  10.179  64.115  1.00  0.00    -0.314 A  
HETATM   23  C   UNL     1     -10.379  10.954  63.772  1.00  0.00    -0.384 A  
ENDBRANCH  13  18
BRANCH  13  24
HETATM   24  C   UNL     1     -10.214  14.700  66.597  1.00  0.00    -0.275 A  
HETATM   25  C   UNL     1      -8.661  16.493  67.139  1.00  0.00    -0.208 A  
HETATM   26  C   UNL     1      -9.060  15.159  67.254  1.00  0.00    -0.210 A  
HETATM   27  C   UNL     1      -9.383  17.377  66.345  1.00  0.00    -0.252 A  
HETATM   28  C   UNL     1     -10.537  16.934  65.694  1.00  0.00    -0.231 A  
HETATM   29  C   UNL     1     -10.952  15.598  65.822  1.00  0.00    -0.250 A  
BRANCH  27  30
HETATM   30  O   UNL     1      -8.911  18.663  66.328  1.00  0.00    -0.385 OA 
HETATM   31  C   UNL     1      -9.886  19.694  66.430  1.00  0.00    -0.437 C  
ENDBRANCH  27  30
ENDBRANCH  13  24
ENDBRANCH  10  12
ENDBRANCH   9  10
ENDBRANCH   7   9
ENDBRANCH   3   4
ENDBRANCH   2   3
TORSDOF 9
ENDMDL
MODEL       54
REMARK 921   NORMALIZED FREE ENERGY PREDICTED BY IDOCK:   -4.78 KCAL/MOL
REMARK 922        TOTAL FREE ENERGY PREDICTED BY IDOCK:   -9.36 KCAL/MOL
REMARK 923 INTER-LIGAND FREE ENERGY PREDICTED BY IDOCK:   -7.09 KCAL/MOL
REMARK 924 INTRA-LIGAND FREE ENERGY PREDICTED BY IDOCK:   -2.27 KCAL/MOL
REMARK 927      BINDING AFFINITY PREDICTED BY RF-SCORE:    0.00 PKD
ROOT
HETATM    1  C   UNL     1     -12.021  12.693  63.533  1.00  0.00    -0.630 C  
HETATM    2  C   UNL     1     -11.118  12.703  64.759  1.00  0.00    -0.335 C  
ENDROOT
BRANCH   2   3
HETATM    3  C   UNL     1     -11.872  12.190  65.982  1.00  0.00    -0.328 C  
BRANCH   3   4
HETATM    4  C   UNL     1     -11.057  12.324  67.272  1.00  0.00    -0.326 C  
HETATM    5  C   UNL     1     -10.932  10.984  68.026  1.00  0.00    -0.312 C  
HETATM    6  C   UNL     1     -10.322   9.847  67.168  1.00  0.00    -0.304 C  
HETATM    7  C   UNL     1     -10.190  11.178  69.362  1.00  0.00    -0.010 C  
HETATM    8  C   UNL     1      -8.899  10.094  66.685  1.00  0.00    -0.145 C  
BRANCH   7   9
HETATM    9  O   UNL     1     -10.137   9.907  70.029  1.00  0.00    -0.240 OA 
BRANCH   9  10
HETATM   10  C   UNL     1      -8.940   9.422  70.432  1.00  0.00    -0.250 C  
HETATM   11  O   UNL     1      -7.871  10.006  70.353  1.00  0.00    -0.216 OA 
BRANCH  10  12
HETATM   12  C   UNL     1      -9.142   8.161  71.200  1.00  0.00    -0.183 C  
HETATM   13  C   UNL     1      -9.544   6.964  70.684  1.00  0.00    -0.171 C  
BRANCH  12  14
HETATM   14  C   UNL     1      -9.015   8.341  72.704  1.00  0.00    -0.246 C  
HETATM   15  H1  UNL     1      -8.824   8.612  74.961  1.00  0.00     0.000 HD 
HETATM   16  N   UNL     1      -8.909   8.491  73.952  1.00  0.00    -0.252 NA 
HETATM   17  H2  UNL     1      -8.431   9.259  74.423  1.00  0.00     0.000 HD 
ENDBRANCH  12  14
BRANCH  13  18
HETATM   18  C   UNL     1      -9.639   6.750  69.216  1.00  0.00    -0.144 A  
HETATM   19  C   UNL     1     -10.887   6.554  68.612  1.00  0.00    -0.357 A  
HETATM   20  C   UNL     1      -8.485   6.698  68.422  1.00  0.00    -0.125 A  
HETATM   21  C   UNL     1      -8.569   6.361  67.070  1.00  0.00    -0.112 A  
HETATM   22  C   UNL     1      -9.809   6.116  66.489  1.00  0.00    -0.179 A  
HETATM   23  C   UNL     1     -10.969   6.240  67.252  1.00  0.00    -0.455 A  
ENDBRANCH  13  18
BRANCH  13  24
HETATM   24  C   UNL     1      -9.964   5.876  71.612  1.00  0.00    -0.213 A  
HETATM   25  C   UNL     1      -9.509   3.720  72.645  1.00  0.00    -0.171 A  
HETATM   26  C   UNL     1      -9.129   4.761  71.795  1.00  0.00    -0.166 A  
HETATM   27  C   UNL     1     -10.707   3.789  73.348  1.00  0.00    -0.207 A  
HETATM   28  C   UNL     1     -11.550   4.888  73.167  1.00  0.00    -0.300 A  
HETATM   29  C   UNL     1     -11.180   5.929  72.299  1.00  0.00    -0.343 A  
BRANCH  27  30
HETATM   30  O   UNL     1     -10.985   2.700  74.132  1.00  0.00    -0.174 OA 
HETATM   31  C   UNL     1     -11.493   1.554  73.460  1.00  0.00    -0.193 C  
ENDBRANCH  27  30
ENDBRANCH  13  24
ENDBRANCH  10  12
ENDBRANCH   9  10
ENDBRANCH   7   9
ENDBRANCH   3   4
ENDBRANCH   2   3
TORSDOF 9
ENDMDL
MODEL       55
REMARK 921   NORMALIZED FREE ENERGY PREDICTED BY IDOCK:   -4.78 KCAL/MOL
REMARK 922        TOTAL FREE ENERGY PREDICTED BY IDOCK:   -9.36 KCAL/MOL
REMARK 923 INTER-LIGAND FREE ENERGY PREDICTED BY IDOCK:   -8.14 KCAL/MOL
REMARK 924 INTRA-LIGAND FREE ENERGY PREDICTED BY IDOCK:   -1.22 KCAL/MOL
REMARK 927      BINDING AFFINITY PREDICTED BY RF-SCORE:    0.00 PKD
ROOT
HETATM    1  C   UNL     1     -10.792   7.420  73.390  1.00  0.00    -0.362 C  
HETATM    2  C   UNL     1      -9.341   7.391  73.849  1.00  0.00    -0.318 C  
ENDROOT
BRANCH   2   3
HETATM    3  C   UNL     1      -8.426   7.949  72.763  1.00  0.00    -0.212 C  
BRANCH   3   4
HETATM    4  C   UNL     1      -9.073   7.912  71.375  1.00  0.00    -0.163 C  
HETATM    5  C   UNL     1      -9.157   9.311  70.731  1.00  0.00    -0.306 C  
HETATM    6  C   UNL     1      -7.786  10.023  70.621  1.00  0.00     0.297 C  
HETATM    7  C   UNL     1      -9.898   9.246  69.382  1.00  0.00    -0.174 C  
HETATM    8  C   UNL     1      -6.757   9.314  69.750  1.00  0.00    -0.051 C  
BRANCH   7   9
HETATM    9  O   UNL     1      -9.973  10.578  68.852  1.00  0.00    -0.185 OA 
BRANCH   9  10
HETATM   10  C   UNL     1     -11.151  11.030  68.364  1.00  0.00    -0.251 C  
HETATM   11  O   UNL     1     -11.729  10.596  67.381  1.00  0.00    -0.391 OA 
BRANCH  10  12
HETATM   12  C   UNL     1     -11.764  11.982  69.333  1.00  0.00    -0.402 C  
HETATM   13  C   UNL     1     -11.772  13.342  69.224  1.00  0.00    -0.383 C  
BRANCH  12  14
HETATM   14  C   UNL     1     -12.272  11.314  70.601  1.00  0.00    -0.393 C  
HETATM   15  H1  UNL     1     -13.033  10.313  72.504  1.00  0.00     0.000 HD 
HETATM   16  N   UNL     1     -12.693  10.761  71.653  1.00  0.00    -0.424 NA 
HETATM   17  H2  UNL     1     -13.206  11.220  72.405  1.00  0.00     0.000 HD 
ENDBRANCH  12  14
BRANCH  13  18
HETATM   18  C   UNL     1     -11.318  14.019  67.981  1.00  0.00    -0.320 A  
HETATM   19  C   UNL     1     -10.091  14.694  67.954  1.00  0.00    -0.225 A  
HETATM   20  C   UNL     1     -12.123  14.029  66.834  1.00  0.00    -0.465 A  
HETATM   21  C   UNL     1     -11.755  14.779  65.715  1.00  0.00    -0.252 A  
HETATM   22  C   UNL     1     -10.560  15.490  65.716  1.00  0.00    -0.370 A  
HETATM   23  C   UNL     1      -9.716  15.425  66.823  1.00  0.00    -0.254 A  
ENDBRANCH  13  18
BRANCH  13  24
HETATM   24  C   UNL     1     -12.177  14.165  70.400  1.00  0.00    -0.427 A  
HETATM   25  C   UNL     1     -13.940  15.035  71.832  1.00  0.00    -0.604 A  
HETATM   26  C   UNL     1     -13.535  14.256  70.746  1.00  0.00    -0.079 A  
HETATM   27  C   UNL     1     -12.999  15.705  72.606  1.00  0.00    -0.460 A  
HETATM   28  C   UNL     1     -11.647  15.629  72.266  1.00  0.00    -0.534 A  
HETATM   29  C   UNL     1     -11.236  14.861  71.163  1.00  0.00    -0.190 A  
BRANCH  27  30
HETATM   30  O   UNL     1     -13.516  16.456  73.629  1.00  0.00    -0.631 OA 
HETATM   31  C   UNL     1     -12.574  17.016  74.538  1.00  0.00     0.390 C  
ENDBRANCH  27  30
ENDBRANCH  13  24
ENDBRANCH  10  12
ENDBRANCH   9  10
ENDBRANCH   7   9
ENDBRANCH   3   4
ENDBRANCH   2   3
TORSDOF 9
ENDMDL
MODEL       56
REMARK 921   NORMALIZED FREE ENERGY PREDICTED BY IDOCK:   -4.76 KCAL/MOL
REMARK 922        TOTAL FREE ENERGY PREDICTED BY IDOCK:   -9.34 KCAL/MOL
REMARK 923 INTER-LIGAND FREE ENERGY PREDICTED BY IDOCK:   -8.42 KCAL/MOL
REMARK 924 INTRA-LIGAND FREE ENERGY PREDICTED BY IDOCK:   -0.92 KCAL/MOL
REMARK 927      BINDING AFFINITY PREDICTED BY RF-SCORE:    0.00 PKD
ROOT
HETATM    1  C   UNL     1      -6.242  17.596  69.310  1.00  0.00    -0.239 C  
HETATM    2  C   UNL     1      -6.557  18.693  68.302  1.00  0.00    -0.233 C  
ENDROOT
BRANCH   2   3
HETATM    3  C   UNL     1      -7.118  18.091  67.017  1.00  0.00    -0.218 C  
BRANCH   3   4
HETATM    4  C   UNL     1      -8.627  17.837  67.099  1.00  0.00    -0.242 C  
HETATM    5  C   UNL     1      -9.047  16.562  66.339  1.00  0.00    -0.332 C  
HETATM    6  C   UNL     1      -8.303  15.288  66.812  1.00  0.00    -0.258 C  
HETATM    7  C   UNL     1     -10.578  16.393  66.364  1.00  0.00    -0.236 C  
HETATM    8  C   UNL     1      -8.536  14.904  68.267  1.00  0.00    -0.160 C  
BRANCH   7   9
HETATM    9  O   UNL     1     -10.907  15.213  65.614  1.00  0.00    -0.328 OA 
BRANCH   9  10
HETATM   10  C   UNL     1     -11.973  14.469  65.988  1.00  0.00    -0.311 C  
HETATM   11  O   UNL     1     -13.021  14.365  65.370  1.00  0.00    -0.571 OA 
BRANCH  10  12
HETATM   12  C   UNL     1     -11.604  13.607  67.146  1.00  0.00    -0.392 C  
HETATM   13  C   UNL     1     -11.056  12.360  67.075  1.00  0.00    -0.327 C  
BRANCH  12  14
HETATM   14  C   UNL     1     -12.047  14.171  68.487  1.00  0.00    -0.277 C  
HETATM   15  H1  UNL     1     -12.712  15.017  70.498  1.00  0.00     0.000 HD 
HETATM   16  N   UNL     1     -12.415  14.639  69.599  1.00  0.00    -0.548 NA 
HETATM   17  H2  UNL     1     -12.901  14.123  70.332  1.00  0.00     0.000 HD 
ENDBRANCH  12  14
BRANCH  13  18
HETATM   18  C   UNL     1     -10.579  11.801  65.782  1.00  0.00    -0.312 A  
HETATM   19  C   UNL     1     -11.432  11.765  64.672  1.00  0.00    -0.303 A  
HETATM   20  C   UNL     1      -9.290  11.264  65.665  1.00  0.00    -0.245 A  
HETATM   21  C   UNL     1      -8.895  10.617  64.492  1.00  0.00    -0.189 A  
HETATM   22  C   UNL     1      -9.768  10.539  63.412  1.00  0.00    -0.368 A  
HETATM   23  C   UNL     1     -11.024  11.137  63.492  1.00  0.00    -0.198 A  
ENDBRANCH  13  18
BRANCH  13  24
HETATM   24  C   UNL     1     -11.000  11.518  68.303  1.00  0.00    -0.272 A  
HETATM   25  C   UNL     1      -9.684  10.234  69.897  1.00  0.00    -0.119 A  
HETATM   26  C   UNL     1      -9.760  11.040  68.758  1.00  0.00    -0.199 A  
HETATM   27  C   UNL     1     -10.833   9.920  70.613  1.00  0.00    -0.330 A  
HETATM   28  C   UNL     1     -12.073  10.382  70.165  1.00  0.00    -0.334 A  
HETATM   29  C   UNL     1     -12.156  11.178  69.010  1.00  0.00    -0.315 A  
BRANCH  27  30
HETATM   30  O   UNL     1     -10.639   9.104  71.697  1.00  0.00    -0.339 OA 
HETATM   31  C   UNL     1      -9.380   8.446  71.772  1.00  0.00    -0.226 C  
ENDBRANCH  27  30
ENDBRANCH  13  24
ENDBRANCH  10  12
ENDBRANCH   9  10
ENDBRANCH   7   9
ENDBRANCH   3   4
ENDBRANCH   2   3
TORSDOF 9
ENDMDL
MODEL       57
REMARK 921   NORMALIZED FREE ENERGY PREDICTED BY IDOCK:   -4.76 KCAL/MOL
REMARK 922        TOTAL FREE ENERGY PREDICTED BY IDOCK:   -9.33 KCAL/MOL
REMARK 923 INTER-LIGAND FREE ENERGY PREDICTED BY IDOCK:   -7.89 KCAL/MOL
REMARK 924 INTRA-LIGAND FREE ENERGY PREDICTED BY IDOCK:   -1.44 KCAL/MOL
REMARK 927      BINDING AFFINITY PREDICTED BY RF-SCORE:    0.00 PKD
ROOT
HETATM    1  C   UNL     1     -12.587  13.664  71.172  1.00  0.00    -0.452 C  
HETATM    2  C   UNL     1     -13.002  15.117  70.982  1.00  0.00    -0.494 C  
ENDROOT
BRANCH   2   3
HETATM    3  C   UNL     1     -12.109  15.796  69.948  1.00  0.00    -0.315 C  
BRANCH   3   4
HETATM    4  C   UNL     1     -10.884  14.950  69.585  1.00  0.00    -0.269 C  
HETATM    5  C   UNL     1     -10.930  14.449  68.127  1.00  0.00    -0.265 C  
HETATM    6  C   UNL     1     -11.073  15.588  67.087  1.00  0.00    -0.256 C  
HETATM    7  C   UNL     1      -9.733  13.526  67.830  1.00  0.00    -0.225 C  
HETATM    8  C   UNL     1      -9.925  16.588  67.061  1.00  0.00    -0.268 C  
BRANCH   7   9
HETATM    9  O   UNL     1      -9.851  13.067  66.475  1.00  0.00    -0.251 OA 
BRANCH   9  10
HETATM   10  C   UNL     1     -10.802  12.157  66.166  1.00  0.00    -0.282 C  
HETATM   11  O   UNL     1     -11.565  12.219  65.215  1.00  0.00    -0.342 OA 
BRANCH  10  12
HETATM   12  C   UNL     1     -10.636  10.945  67.018  1.00  0.00    -0.307 C  
HETATM   13  C   UNL     1      -9.778   9.912  66.783  1.00  0.00    -0.244 C  
BRANCH  12  14
HETATM   14  C   UNL     1     -11.653  10.853  68.145  1.00  0.00    -0.241 C  
HETATM   15  H1  UNL     1     -13.178  10.716  69.836  1.00  0.00     0.000 HD 
HETATM   16  N   UNL     1     -12.496  10.777  69.080  1.00  0.00    -0.728 NA 
HETATM   17  H2  UNL     1     -12.424  11.238  69.987  1.00  0.00     0.000 HD 
ENDBRANCH  12  14
BRANCH  13  18
HETATM   18  C   UNL     1      -8.749   9.992  65.712  1.00  0.00    -0.160 A  
HETATM   19  C   UNL     1      -9.098   9.743  64.379  1.00  0.00    -0.296 A  
HETATM   20  C   UNL     1      -7.412  10.275  66.022  1.00  0.00    -0.128 A  
HETATM   21  C   UNL     1      -6.426  10.215  65.034  1.00  0.00    -0.126 A  
HETATM   22  C   UNL     1      -6.775   9.914  63.722  1.00  0.00    -0.125 A  
HETATM   23  C   UNL     1      -8.112   9.707  63.389  1.00  0.00    -0.151 A  
ENDBRANCH  13  18
BRANCH  13  24
HETATM   24  C   UNL     1      -9.922   8.653  67.567  1.00  0.00    -0.256 A  
HETATM   25  C   UNL     1     -10.937   6.456  67.824  1.00  0.00    -0.425 A  
HETATM   26  C   UNL     1     -10.772   7.638  67.097  1.00  0.00    -0.361 A  
HETATM   27  C   UNL     1     -10.235   6.255  69.007  1.00  0.00    -0.184 A  
HETATM   28  C   UNL     1      -9.394   7.261  69.489  1.00  0.00    -0.152 A  
HETATM   29  C   UNL     1      -9.239   8.459  68.770  1.00  0.00    -0.143 A  
BRANCH  27  30
HETATM   30  O   UNL     1     -10.496   5.071  69.644  1.00  0.00    -0.255 OA 
HETATM   31  C   UNL     1      -9.463   4.093  69.605  1.00  0.00    -0.189 C  
ENDBRANCH  27  30
ENDBRANCH  13  24
ENDBRANCH  10  12
ENDBRANCH   9  10
ENDBRANCH   7   9
ENDBRANCH   3   4
ENDBRANCH   2   3
TORSDOF 9
ENDMDL
MODEL       58
REMARK 921   NORMALIZED FREE ENERGY PREDICTED BY IDOCK:   -4.74 KCAL/MOL
REMARK 922        TOTAL FREE ENERGY PREDICTED BY IDOCK:   -9.30 KCAL/MOL
REMARK 923 INTER-LIGAND FREE ENERGY PREDICTED BY IDOCK:   -7.49 KCAL/MOL
REMARK 924 INTRA-LIGAND FREE ENERGY PREDICTED BY IDOCK:   -1.81 KCAL/MOL
REMARK 927      BINDING AFFINITY PREDICTED BY RF-SCORE:    0.00 PKD
ROOT
HETATM    1  C   UNL     1     -13.479  14.753  72.240  1.00  0.00    -0.510 C  
HETATM    2  C   UNL     1     -12.107  15.274  71.834  1.00  0.00    -0.452 C  
ENDROOT
BRANCH   2   3
HETATM    3  C   UNL     1     -12.142  15.816  70.408  1.00  0.00    -0.399 C  
BRANCH   3   4
HETATM    4  C   UNL     1     -10.862  15.499  69.629  1.00  0.00    -0.285 C  
HETATM    5  C   UNL     1     -10.771  14.012  69.232  1.00  0.00    -0.144 C  
HETATM    6  C   UNL     1     -11.987  13.516  68.410  1.00  0.00    -0.378 C  
HETATM    7  C   UNL     1      -9.429  13.714  68.537  1.00  0.00    -0.143 C  
HETATM    8  C   UNL     1     -12.187  14.209  67.069  1.00  0.00    -0.374 C  
BRANCH   7   9
HETATM    9  O   UNL     1      -9.391  12.313  68.225  1.00  0.00    -0.203 OA 
BRANCH   9  10
HETATM   10  C   UNL     1      -8.341  11.819  67.529  1.00  0.00    -0.154 C  
HETATM   11  O   UNL     1      -7.329  12.434  67.233  1.00  0.00    -0.143 OA 
BRANCH  10  12
HETATM   12  C   UNL     1      -8.490  10.344  67.373  1.00  0.00    -0.121 C  
HETATM   13  C   UNL     1      -9.197   9.710  66.394  1.00  0.00    -0.205 C  
BRANCH  12  14
HETATM   14  C   UNL     1      -7.903   9.550  68.529  1.00  0.00    -0.085 C  
HETATM   15  H1  UNL     1      -7.021   8.359  70.263  1.00  0.00     0.000 HD 
HETATM   16  N   UNL     1      -7.415   8.892  69.488  1.00  0.00    -0.074 NA 
HETATM   17  H2  UNL     1      -6.422   8.797  69.703  1.00  0.00     0.000 HD 
ENDBRANCH  12  14
BRANCH  13  18
HETATM   18  C   UNL     1      -9.749  10.457  65.234  1.00  0.00    -0.339 A  
HETATM   19  C   UNL     1      -9.029  10.529  64.035  1.00  0.00    -0.235 A  
HETATM   20  C   UNL     1     -10.972  11.134  65.332  1.00  0.00    -0.151 A  
HETATM   21  C   UNL     1     -11.420  11.946  64.287  1.00  0.00    -0.423 A  
HETATM   22  C   UNL     1     -10.671  12.053  63.119  1.00  0.00    -0.277 A  
HETATM   23  C   UNL     1      -9.492  11.323  62.983  1.00  0.00    -0.385 A  
ENDBRANCH  13  18
BRANCH  13  24
HETATM   24  C   UNL     1      -9.481   8.253  66.529  1.00  0.00    -0.284 A  
HETATM   25  C   UNL     1      -8.830   5.949  66.093  1.00  0.00    -0.149 A  
HETATM   26  C   UNL     1      -8.577   7.319  65.995  1.00  0.00    -0.160 A  
HETATM   27  C   UNL     1      -9.966   5.490  66.751  1.00  0.00    -0.183 A  
HETATM   28  C   UNL     1     -10.877   6.409  67.278  1.00  0.00    -0.463 A  
HETATM   29  C   UNL     1     -10.635   7.788  67.165  1.00  0.00    -0.401 A  
BRANCH  27  30
HETATM   30  O   UNL     1     -10.121   4.128  66.763  1.00  0.00    -0.182 OA 
HETATM   31  C   UNL     1      -9.210   3.398  67.575  1.00  0.00    -0.192 C  
ENDBRANCH  27  30
ENDBRANCH  13  24
ENDBRANCH  10  12
ENDBRANCH   9  10
ENDBRANCH   7   9
ENDBRANCH   3   4
ENDBRANCH   2   3
TORSDOF 9
ENDMDL
MODEL       59
REMARK 921   NORMALIZED FREE ENERGY PREDICTED BY IDOCK:   -4.71 KCAL/MOL
REMARK 922        TOTAL FREE ENERGY PREDICTED BY IDOCK:   -9.26 KCAL/MOL
REMARK 923 INTER-LIGAND FREE ENERGY PREDICTED BY IDOCK:   -8.33 KCAL/MOL
REMARK 924 INTRA-LIGAND FREE ENERGY PREDICTED BY IDOCK:   -0.93 KCAL/MOL
REMARK 927      BINDING AFFINITY PREDICTED BY RF-SCORE:    0.00 PKD
ROOT
HETATM    1  C   UNL     1      -8.280   5.440  65.508  1.00  0.00    -0.127 C  
HETATM    2  C   UNL     1      -7.532   6.763  65.596  1.00  0.00    -0.082 C  
ENDROOT
BRANCH   2   3
HETATM    3  C   UNL     1      -7.024   6.995  67.016  1.00  0.00    -0.070 C  
BRANCH   3   4
HETATM    4  C   UNL     1      -7.219   8.442  67.480  1.00  0.00    -0.088 C  
HETATM    5  C   UNL     1      -8.572   8.651  68.191  1.00  0.00    -0.141 C  
HETATM    6  C   UNL     1      -8.785   7.709  69.402  1.00  0.00    -0.136 C  
HETATM    7  C   UNL     1      -8.772  10.134  68.555  1.00  0.00    -0.123 C  
HETATM    8  C   UNL     1      -7.781   7.874  70.535  1.00  0.00    -0.086 C  
BRANCH   7   9
HETATM    9  O   UNL     1     -10.057  10.269  69.181  1.00  0.00    -0.195 OA 
BRANCH   9  10
HETATM   10  C   UNL     1     -11.039  10.940  68.536  1.00  0.00    -0.256 C  
HETATM   11  O   UNL     1     -11.466  10.681  67.423  1.00  0.00    -0.436 OA 
BRANCH  10  12
HETATM   12  C   UNL     1     -11.689  11.901  69.472  1.00  0.00    -0.410 C  
HETATM   13  C   UNL     1     -11.662  13.261  69.370  1.00  0.00    -0.383 C  
BRANCH  12  14
HETATM   14  C   UNL     1     -12.287  11.238  70.702  1.00  0.00    -0.383 C  
HETATM   15  H1  UNL     1     -13.183  10.243  72.549  1.00  0.00     0.000 HD 
HETATM   16  N   UNL     1     -12.782  10.688  71.723  1.00  0.00    -0.419 NA 
HETATM   17  H2  UNL     1     -12.436   9.840  72.172  1.00  0.00     0.000 HD 
ENDBRANCH  12  14
BRANCH  13  18
HETATM   18  C   UNL     1     -11.118  13.933  68.161  1.00  0.00    -0.278 A  
HETATM   19  C   UNL     1      -9.778  14.335  68.120  1.00  0.00    -0.226 A  
HETATM   20  C   UNL     1     -11.944  14.213  67.063  1.00  0.00    -0.471 A  
HETATM   21  C   UNL     1     -11.465  14.964  65.988  1.00  0.00    -0.275 A  
HETATM   22  C   UNL     1     -10.146  15.405  65.980  1.00  0.00    -0.346 A  
HETATM   23  C   UNL     1      -9.296  15.067  67.031  1.00  0.00    -0.237 A  
ENDBRANCH  13  18
BRANCH  13  24
HETATM   24  C   UNL     1     -12.120  14.086  70.524  1.00  0.00    -0.424 A  
HETATM   25  C   UNL     1     -11.631  15.766  72.215  1.00  0.00    -0.522 A  
HETATM   26  C   UNL     1     -11.230  14.994  71.122  1.00  0.00    -0.267 A  
HETATM   27  C   UNL     1     -12.928  15.669  72.705  1.00  0.00    -0.480 A  
HETATM   28  C   UNL     1     -13.819  14.763  72.125  1.00  0.00    -0.578 A  
HETATM   29  C   UNL     1     -13.414  13.972  71.036  1.00  0.00    -0.178 A  
BRANCH  27  30
HETATM   30  O   UNL     1     -13.199  16.455  73.795  1.00  0.00    -0.662 OA 
HETATM   31  C   UNL     1     -12.074  16.917  74.533  1.00  0.00    -0.046 C  
ENDBRANCH  27  30
ENDBRANCH  13  24
ENDBRANCH  10  12
ENDBRANCH   9  10
ENDBRANCH   7   9
ENDBRANCH   3   4
ENDBRANCH   2   3
TORSDOF 9
ENDMDL
MODEL       60
REMARK 921   NORMALIZED FREE ENERGY PREDICTED BY IDOCK:   -4.68 KCAL/MOL
REMARK 922        TOTAL FREE ENERGY PREDICTED BY IDOCK:   -9.21 KCAL/MOL
REMARK 923 INTER-LIGAND FREE ENERGY PREDICTED BY IDOCK:   -6.85 KCAL/MOL
REMARK 924 INTRA-LIGAND FREE ENERGY PREDICTED BY IDOCK:   -2.36 KCAL/MOL
REMARK 927      BINDING AFFINITY PREDICTED BY RF-SCORE:    0.00 PKD
ROOT
HETATM    1  C   UNL     1      -8.261  16.409  68.462  1.00  0.00    -0.201 C  
HETATM    2  C   UNL     1      -9.601  16.894  67.927  1.00  0.00    -0.244 C  
ENDROOT
BRANCH   2   3
HETATM    3  C   UNL     1     -10.648  16.900  69.037  1.00  0.00    -0.338 C  
BRANCH   3   4
HETATM    4  C   UNL     1     -11.650  15.750  68.904  1.00  0.00    -0.400 C  
HETATM    5  C   UNL     1     -11.350  14.596  69.883  1.00  0.00    -0.302 C  
HETATM    6  C   UNL     1     -11.302  15.043  71.366  1.00  0.00    -0.327 C  
HETATM    7  C   UNL     1     -12.319  13.421  69.653  1.00  0.00    -0.131 C  
HETATM    8  C   UNL     1     -12.602  15.617  71.912  1.00  0.00    -0.509 C  
BRANCH   7   9
HETATM    9  O   UNL     1     -11.968  12.371  70.567  1.00  0.00    -0.330 OA 
BRANCH   9  10
HETATM   10  C   UNL     1     -12.277  11.092  70.255  1.00  0.00    -0.363 C  
HETATM   11  O   UNL     1     -13.359  10.698  69.850  1.00  0.00     0.042 OA 
BRANCH  10  12
HETATM   12  C   UNL     1     -11.038  10.262  70.252  1.00  0.00    -0.388 C  
HETATM   13  C   UNL     1     -10.098  10.229  69.264  1.00  0.00    -0.244 C  
BRANCH  12  14
HETATM   14  C   UNL     1     -10.963   9.281  71.411  1.00  0.00    -0.359 C  
HETATM   15  H1  UNL     1     -10.850   7.809  73.150  1.00  0.00     0.000 HD 
HETATM   16  N   UNL     1     -10.901   8.467  72.372  1.00  0.00    -0.352 NA 
HETATM   17  H2  UNL     1     -10.045   8.105  72.793  1.00  0.00     0.000 HD 
ENDBRANCH  12  14
BRANCH  13  18
HETATM   18  C   UNL     1     -10.126  11.202  68.140  1.00  0.00    -0.193 A  
HETATM   19  C   UNL     1      -9.198  12.250  68.091  1.00  0.00    -0.197 A  
HETATM   20  C   UNL     1     -11.102  11.113  67.138  1.00  0.00    -0.352 A  
HETATM   21  C   UNL     1     -11.209  12.106  66.162  1.00  0.00    -0.386 A  
HETATM   22  C   UNL     1     -10.316  13.173  66.153  1.00  0.00    -0.287 A  
HETATM   23  C   UNL     1      -9.294  13.229  67.099  1.00  0.00    -0.240 A  
ENDBRANCH  13  18
BRANCH  13  24
HETATM   24  C   UNL     1      -9.066   9.154  69.276  1.00  0.00    -0.146 A  
HETATM   25  C   UNL     1      -8.406   6.885  68.696  1.00  0.00    -0.121 A  
HETATM   26  C   UNL     1      -9.351   7.914  68.681  1.00  0.00    -0.145 A  
HETATM   27  C   UNL     1      -7.157   7.087  69.272  1.00  0.00    -0.083 A  
HETATM   28  C   UNL     1      -6.865   8.312  69.874  1.00  0.00    -0.043 A  
HETATM   29  C   UNL     1      -7.819   9.344  69.878  1.00  0.00    -0.126 A  
BRANCH  27  30
HETATM   30  O   UNL     1      -6.323   5.999  69.248  1.00  0.00    -0.037 OA 
HETATM   31  C   UNL     1      -6.952   4.724  69.204  1.00  0.00    -0.051 C  
ENDBRANCH  27  30
ENDBRANCH  13  24
ENDBRANCH  10  12
ENDBRANCH   9  10
ENDBRANCH   7   9
ENDBRANCH   3   4
ENDBRANCH   2   3
TORSDOF 9
ENDMDL
MODEL       61
REMARK 921   NORMALIZED FREE ENERGY PREDICTED BY IDOCK:   -4.67 KCAL/MOL
REMARK 922        TOTAL FREE ENERGY PREDICTED BY IDOCK:   -9.20 KCAL/MOL
REMARK 923 INTER-LIGAND FREE ENERGY PREDICTED BY IDOCK:   -8.04 KCAL/MOL
REMARK 924 INTRA-LIGAND FREE ENERGY PREDICTED BY IDOCK:   -1.16 KCAL/MOL
REMARK 927      BINDING AFFINITY PREDICTED BY RF-SCORE:    0.00 PKD
ROOT
HETATM    1  C   UNL     1     -12.294  15.574  74.432  1.00  0.00    -0.798 C  
HETATM    2  C   UNL     1     -12.986  15.929  73.123  1.00  0.00    -0.653 C  
ENDROOT
BRANCH   2   3
HETATM    3  C   UNL     1     -11.960  16.338  72.071  1.00  0.00    -0.544 C  
BRANCH   3   4
HETATM    4  C   UNL     1     -11.219  15.137  71.476  1.00  0.00    -0.323 C  
HETATM    5  C   UNL     1     -12.017  14.460  70.343  1.00  0.00    -0.395 C  
HETATM    6  C   UNL     1     -12.397  15.427  69.194  1.00  0.00    -0.087 C  
HETATM    7  C   UNL     1     -11.285  13.202  69.837  1.00  0.00     0.135 C  
HETATM    8  C   UNL     1     -11.220  16.045  68.452  1.00  0.00    -0.364 C  
BRANCH   7   9
HETATM    9  O   UNL     1     -12.091  12.601  68.812  1.00  0.00    -0.269 OA 
BRANCH   9  10
HETATM   10  C   UNL     1     -11.776  11.365  68.363  1.00  0.00    -0.303 C  
HETATM   11  O   UNL     1     -11.568  11.060  67.200  1.00  0.00    -0.469 OA 
BRANCH  10  12
HETATM   12  C   UNL     1     -11.489  10.468  69.519  1.00  0.00    -0.339 C  
HETATM   13  C   UNL     1     -10.370   9.705  69.683  1.00  0.00    -0.245 C  
BRANCH  12  14
HETATM   14  C   UNL     1     -12.658  10.328  70.482  1.00  0.00    -0.258 C  
HETATM   15  H1  UNL     1     -14.411  10.118  71.926  1.00  0.00     0.000 HD 
HETATM   16  N   UNL     1     -13.627  10.212  71.280  1.00  0.00    -0.216 NA 
HETATM   17  H2  UNL     1     -13.920  10.906  71.968  1.00  0.00     0.000 HD 
ENDBRANCH  12  14
BRANCH  13  18
HETATM   18  C   UNL     1      -9.199   9.851  68.780  1.00  0.00    -0.147 A  
HETATM   19  C   UNL     1      -8.307  10.917  68.947  1.00  0.00    -0.139 A  
HETATM   20  C   UNL     1      -8.991   8.952  67.724  1.00  0.00    -0.140 A  
HETATM   21  C   UNL     1      -7.969   9.171  66.797  1.00  0.00    -0.104 A  
HETATM   22  C   UNL     1      -7.120  10.263  66.941  1.00  0.00    -0.092 A  
HETATM   23  C   UNL     1      -7.271  11.119  68.031  1.00  0.00    -0.079 A  
ENDBRANCH  13  18
BRANCH  13  24
HETATM   24  C   UNL     1     -10.351   8.659  70.744  1.00  0.00    -0.249 A  
HETATM   25  C   UNL     1      -9.777   7.996  73.014  1.00  0.00    -0.348 A  
HETATM   26  C   UNL     1      -9.822   8.965  72.009  1.00  0.00    -0.325 A  
HETATM   27  C   UNL     1     -10.286   6.722  72.785  1.00  0.00    -0.209 A  
HETATM   28  C   UNL     1     -10.806   6.403  71.528  1.00  0.00    -0.299 A  
HETATM   29  C   UNL     1     -10.837   7.370  70.509  1.00  0.00    -0.259 A  
BRANCH  27  30
HETATM   30  O   UNL     1     -10.166   5.850  73.835  1.00  0.00    -0.212 OA 
HETATM   31  C   UNL     1     -10.879   4.624  73.721  1.00  0.00    -0.306 C  
ENDBRANCH  27  30
ENDBRANCH  13  24
ENDBRANCH  10  12
ENDBRANCH   9  10
ENDBRANCH   7   9
ENDBRANCH   3   4
ENDBRANCH   2   3
TORSDOF 9
ENDMDL
MODEL       62
REMARK 921   NORMALIZED FREE ENERGY PREDICTED BY IDOCK:   -4.65 KCAL/MOL
REMARK 922        TOTAL FREE ENERGY PREDICTED BY IDOCK:   -9.16 KCAL/MOL
REMARK 923 INTER-LIGAND FREE ENERGY PREDICTED BY IDOCK:   -8.38 KCAL/MOL
REMARK 924 INTRA-LIGAND FREE ENERGY PREDICTED BY IDOCK:   -0.79 KCAL/MOL
REMARK 927      BINDING AFFINITY PREDICTED BY RF-SCORE:    0.00 PKD
ROOT
HETATM    1  C   UNL     1      -7.559  19.900  66.229  1.00  0.00    -0.327 C  
HETATM    2  C   UNL     1      -8.643  20.317  67.215  1.00  0.00    -0.425 C  
ENDROOT
BRANCH   2   3
HETATM    3  C   UNL     1      -9.092  19.122  68.051  1.00  0.00    -0.358 C  
BRANCH   3   4
HETATM    4  C   UNL     1     -10.142  18.267  67.335  1.00  0.00    -0.364 C  
HETATM    5  C   UNL     1      -9.868  16.757  67.486  1.00  0.00    -0.255 C  
HETATM    6  C   UNL     1      -9.770  16.292  68.961  1.00  0.00    -0.252 C  
HETATM    7  C   UNL     1     -10.888  15.934  66.675  1.00  0.00    -0.213 C  
HETATM    8  C   UNL     1     -11.035  16.488  69.787  1.00  0.00    -0.292 C  
BRANCH   7   9
HETATM    9  O   UNL     1     -10.561  14.545  66.829  1.00  0.00    -0.271 OA 
BRANCH   9  10
HETATM   10  C   UNL     1     -11.538  13.618  66.708  1.00  0.00    -0.364 C  
HETATM   11  O   UNL     1     -12.717  13.850  66.491  1.00  0.00    -0.302 OA 
BRANCH  10  12
HETATM   12  C   UNL     1     -10.936  12.256  66.646  1.00  0.00    -0.321 C  
HETATM   13  C   UNL     1     -10.802  11.391  67.692  1.00  0.00    -0.286 C  
BRANCH  12  14
HETATM   14  C   UNL     1     -10.302  11.935  65.302  1.00  0.00    -0.276 C  
HETATM   15  H1  UNL     1      -9.350  11.453  63.286  1.00  0.00     0.000 HD 
HETATM   16  N   UNL     1      -9.776  11.668  64.187  1.00  0.00    -0.389 NA 
HETATM   17  H2  UNL     1      -8.920  12.083  63.817  1.00  0.00     0.000 HD 
ENDBRANCH  12  14
BRANCH  13  18
HETATM   18  C   UNL     1     -11.444  11.663  69.005  1.00  0.00    -0.356 A  
HETATM   19  C   UNL     1     -11.977  10.611  69.760  1.00  0.00    -0.363 A  
HETATM   20  C   UNL     1     -11.565  12.973  69.487  1.00  0.00    -0.342 A  
HETATM   21  C   UNL     1     -12.288  13.237  70.652  1.00  0.00    -0.416 A  
HETATM   22  C   UNL     1     -12.859  12.190  71.368  1.00  0.00    -0.378 A  
HETATM   23  C   UNL     1     -12.680  10.876  70.938  1.00  0.00    -0.464 A  
ENDBRANCH  13  18
BRANCH  13  24
HETATM   24  C   UNL     1      -9.937  10.187  67.535  1.00  0.00    -0.231 A  
HETATM   25  C   UNL     1      -7.809   9.077  67.937  1.00  0.00    -0.101 A  
HETATM   26  C   UNL     1      -8.645  10.186  68.086  1.00  0.00    -0.118 A  
HETATM   27  C   UNL     1      -8.259   7.944  67.267  1.00  0.00    -0.122 A  
HETATM   28  C   UNL     1      -9.538   7.936  66.707  1.00  0.00    -0.278 A  
HETATM   29  C   UNL     1     -10.376   9.057  66.839  1.00  0.00    -0.324 A  
BRANCH  27  30
HETATM   30  O   UNL     1      -7.345   6.929  67.162  1.00  0.00    -0.085 OA 
HETATM   31  C   UNL     1      -7.834   5.688  66.668  1.00  0.00    -0.101 C  
ENDBRANCH  27  30
ENDBRANCH  13  24
ENDBRANCH  10  12
ENDBRANCH   9  10
ENDBRANCH   7   9
ENDBRANCH   3   4
ENDBRANCH   2   3
TORSDOF 9
ENDMDL
MODEL       63
REMARK 921   NORMALIZED FREE ENERGY PREDICTED BY IDOCK:   -4.64 KCAL/MOL
REMARK 922        TOTAL FREE ENERGY PREDICTED BY IDOCK:   -9.16 KCAL/MOL
REMARK 923 INTER-LIGAND FREE ENERGY PREDICTED BY IDOCK:   -7.69 KCAL/MOL
REMARK 924 INTRA-LIGAND FREE ENERGY PREDICTED BY IDOCK:   -1.47 KCAL/MOL
REMARK 927      BINDING AFFINITY PREDICTED BY RF-SCORE:    0.00 PKD
ROOT
HETATM    1  C   UNL     1     -12.316   6.882  71.068  1.00  0.00    -0.401 C  
HETATM    2  C   UNL     1     -10.849   6.558  70.821  1.00  0.00    -0.311 C  
ENDROOT
BRANCH   2   3
HETATM    3  C   UNL     1     -10.700   5.650  69.604  1.00  0.00    -0.398 C  
BRANCH   3   4
HETATM    4  C   UNL     1     -11.055   6.362  68.295  1.00  0.00    -0.359 C  
HETATM    5  C   UNL     1     -10.032   7.457  67.929  1.00  0.00    -0.201 C  
HETATM    6  C   UNL     1      -8.577   6.935  67.832  1.00  0.00    -0.122 C  
HETATM    7  C   UNL     1     -10.474   8.213  66.661  1.00  0.00    -0.134 C  
HETATM    8  C   UNL     1      -8.338   5.880  66.759  1.00  0.00    -0.109 C  
BRANCH   7   9
HETATM    9  O   UNL     1      -9.503   9.236  66.393  1.00  0.00    -0.182 OA 
BRANCH   9  10
HETATM   10  C   UNL     1      -9.844  10.280  65.605  1.00  0.00    -0.268 C  
HETATM   11  O   UNL     1      -9.932  10.256  64.388  1.00  0.00    -0.335 OA 
BRANCH  10  12
HETATM   12  C   UNL     1     -10.325  11.412  66.448  1.00  0.00    -0.284 C  
HETATM   13  C   UNL     1      -9.837  11.762  67.673  1.00  0.00    -0.192 C  
BRANCH  12  14
HETATM   14  C   UNL     1     -11.568  12.092  65.897  1.00  0.00    -0.364 C  
HETATM   15  H1  UNL     1     -13.432  13.113  65.070  1.00  0.00     0.000 HD 
HETATM   16  N   UNL     1     -12.598  12.657  65.440  1.00  0.00    -0.642 NA 
HETATM   17  H2  UNL     1     -12.610  13.457  64.806  1.00  0.00     0.000 HD 
ENDBRANCH  12  14
BRANCH  13  18
HETATM   18  C   UNL     1      -8.602  11.140  68.218  1.00  0.00    -0.146 A  
HETATM   19  C   UNL     1      -8.646  10.417  69.416  1.00  0.00    -0.143 A  
HETATM   20  C   UNL     1      -7.370  11.300  67.567  1.00  0.00    -0.105 A  
HETATM   21  C   UNL     1      -6.192  10.832  68.153  1.00  0.00    -0.057 A  
HETATM   22  C   UNL     1      -6.239  10.161  69.371  1.00  0.00    -0.046 A  
HETATM   23  C   UNL     1      -7.468   9.929  69.987  1.00  0.00    -0.173 A  
ENDBRANCH  13  18
BRANCH  13  24
HETATM   24  C   UNL     1     -10.597  12.735  68.508  1.00  0.00    -0.270 A  
HETATM   25  C   UNL     1     -10.882  15.007  69.330  1.00  0.00    -0.263 A  
HETATM   26  C   UNL     1     -10.196  14.081  68.540  1.00  0.00    -0.237 A  
HETATM   27  C   UNL     1     -11.992  14.614  70.070  1.00  0.00    -0.320 A  
HETATM   28  C   UNL     1     -12.394  13.277  70.053  1.00  0.00    -0.269 A  
HETATM   29  C   UNL     1     -11.696  12.338  69.274  1.00  0.00    -0.388 A  
BRANCH  27  30
HETATM   30  O   UNL     1     -12.568  15.603  70.824  1.00  0.00    -0.434 OA 
HETATM   31  C   UNL     1     -11.801  16.087  71.920  1.00  0.00    -0.534 C  
ENDBRANCH  27  30
ENDBRANCH  13  24
ENDBRANCH  10  12
ENDBRANCH   9  10
ENDBRANCH   7   9
ENDBRANCH   3   4
ENDBRANCH   2   3
TORSDOF 9
ENDMDL
MODEL       64
REMARK 921   NORMALIZED FREE ENERGY PREDICTED BY IDOCK:   -4.64 KCAL/MOL
REMARK 922        TOTAL FREE ENERGY PREDICTED BY IDOCK:   -9.15 KCAL/MOL
REMARK 923 INTER-LIGAND FREE ENERGY PREDICTED BY IDOCK:   -7.81 KCAL/MOL
REMARK 924 INTRA-LIGAND FREE ENERGY PREDICTED BY IDOCK:   -1.33 KCAL/MOL
REMARK 927      BINDING AFFINITY PREDICTED BY RF-SCORE:    0.00 PKD
ROOT
HETATM    1  C   UNL     1     -14.391   7.323  71.593  1.00  0.00    -0.583 C  
HETATM    2  C   UNL     1     -14.080   8.794  71.836  1.00  0.00    -0.488 C  
ENDROOT
BRANCH   2   3
HETATM    3  C   UNL     1     -12.588   8.990  72.086  1.00  0.00    -0.461 C  
BRANCH   3   4
HETATM    4  C   UNL     1     -11.725   8.005  71.290  1.00  0.00    -0.311 C  
HETATM    5  C   UNL     1     -10.280   8.511  71.103  1.00  0.00    -0.272 C  
HETATM    6  C   UNL     1      -9.562   8.834  72.438  1.00  0.00    -0.197 C  
HETATM    7  C   UNL     1      -9.473   7.542  70.219  1.00  0.00    -0.165 C  
HETATM    8  C   UNL     1      -9.385   7.650  73.380  1.00  0.00    -0.324 C  
BRANCH   7   9
HETATM    9  O   UNL     1      -8.153   8.083  70.056  1.00  0.00    -0.111 OA 
BRANCH   9  10
HETATM   10  C   UNL     1      -7.692   8.335  68.810  1.00  0.00    -0.114 C  
HETATM   11  O   UNL     1      -6.808   7.717  68.239  1.00  0.00    -0.063 OA 
BRANCH  10  12
HETATM   12  C   UNL     1      -8.574   9.331  68.138  1.00  0.00    -0.125 C  
HETATM   13  C   UNL     1      -9.426   9.078  67.104  1.00  0.00    -0.196 C  
BRANCH  12  14
HETATM   14  C   UNL     1      -8.335  10.760  68.599  1.00  0.00    -0.141 C  
HETATM   15  H1  UNL     1      -7.976  12.904  69.291  1.00  0.00     0.000 HD 
HETATM   16  N   UNL     1      -8.137  11.945  68.982  1.00  0.00    -0.358 NA 
HETATM   17  H2  UNL     1      -7.304  12.286  69.462  1.00  0.00     0.000 HD 
ENDBRANCH  12  14
BRANCH  13  18
HETATM   18  C   UNL     1      -9.707   7.687  66.659  1.00  0.00    -0.283 A  
HETATM   19  C   UNL     1     -10.775   6.972  67.213  1.00  0.00    -0.412 A  
HETATM   20  C   UNL     1      -8.887   7.057  65.713  1.00  0.00    -0.088 A  
HETATM   21  C   UNL     1      -9.071   5.708  65.400  1.00  0.00    -0.027 A  
HETATM   22  C   UNL     1     -10.103   4.990  65.996  1.00  0.00    -0.234 A  
HETATM   23  C   UNL     1     -10.971   5.629  66.880  1.00  0.00    -0.162 A  
ENDBRANCH  13  18
BRANCH  13  24
HETATM   24  C   UNL     1     -10.032  10.220  66.362  1.00  0.00    -0.287 A  
HETATM   25  C   UNL     1     -10.107  11.609  64.366  1.00  0.00    -0.322 A  
HETATM   26  C   UNL     1      -9.568  10.532  65.074  1.00  0.00    -0.331 A  
HETATM   27  C   UNL     1     -11.135  12.367  64.917  1.00  0.00    -0.303 A  
HETATM   28  C   UNL     1     -11.598  12.072  66.201  1.00  0.00    -0.371 A  
HETATM   29  C   UNL     1     -11.046  11.001  66.923  1.00  0.00    -0.280 A  
BRANCH  27  30
HETATM   30  O   UNL     1     -11.567  13.412  64.141  1.00  0.00    -0.382 OA 
HETATM   31  C   UNL     1     -11.999  14.575  64.836  1.00  0.00    -0.422 C  
ENDBRANCH  27  30
ENDBRANCH  13  24
ENDBRANCH  10  12
ENDBRANCH   9  10
ENDBRANCH   7   9
ENDBRANCH   3   4
ENDBRANCH   2   3
TORSDOF 9
ENDMDL
MODEL       65
REMARK 921   NORMALIZED FREE ENERGY PREDICTED BY IDOCK:   -4.63 KCAL/MOL
REMARK 922        TOTAL FREE ENERGY PREDICTED BY IDOCK:   -9.14 KCAL/MOL
REMARK 923 INTER-LIGAND FREE ENERGY PREDICTED BY IDOCK:   -8.13 KCAL/MOL
REMARK 924 INTRA-LIGAND FREE ENERGY PREDICTED BY IDOCK:   -1.02 KCAL/MOL
REMARK 927      BINDING AFFINITY PREDICTED BY RF-SCORE:    0.00 PKD
ROOT
HETATM    1  C   UNL     1     -11.686   9.982  71.094  1.00  0.00    -0.472 C  
HETATM    2  C   UNL     1     -13.154  10.290  71.359  1.00  0.00    -0.512 C  
ENDROOT
BRANCH   2   3
HETATM    3  C   UNL     1     -13.335  11.765  71.705  1.00  0.00    -0.242 C  
BRANCH   3   4
HETATM    4  C   UNL     1     -12.166  12.628  71.222  1.00  0.00     0.031 C  
HETATM    5  C   UNL     1     -12.635  13.823  70.367  1.00  0.00    -0.325 C  
HETATM    6  C   UNL     1     -13.659  14.734  71.088  1.00  0.00    -0.432 C  
HETATM    7  C   UNL     1     -11.428  14.610  69.822  1.00  0.00    -0.282 C  
HETATM    8  C   UNL     1     -13.147  15.408  72.355  1.00  0.00    -0.501 C  
BRANCH   7   9
HETATM    9  O   UNL     1     -11.927  15.684  69.010  1.00  0.00    -0.374 OA 
BRANCH   9  10
HETATM   10  C   UNL     1     -11.298  15.985  67.851  1.00  0.00    -0.218 C  
HETATM   11  O   UNL     1     -10.800  17.063  67.569  1.00  0.00    -0.305 OA 
BRANCH  10  12
HETATM   12  C   UNL     1     -11.092  14.743  67.053  1.00  0.00    -0.333 C  
HETATM   13  C   UNL     1      -9.895  14.136  66.809  1.00  0.00    -0.275 C  
BRANCH  12  14
HETATM   14  C   UNL     1     -12.352  14.254  66.358  1.00  0.00    -0.350 C  
HETATM   15  H1  UNL     1     -14.242  13.519  65.313  1.00  0.00     0.000 HD 
HETATM   16  N   UNL     1     -13.397  13.847  65.780  1.00  0.00    -0.579 NA 
HETATM   17  H2  UNL     1     -13.431  13.192  65.000  1.00  0.00     0.000 HD 
ENDBRANCH  12  14
BRANCH  13  18
HETATM   18  C   UNL     1      -8.655  14.570  67.506  1.00  0.00    -0.198 A  
HETATM   19  C   UNL     1      -8.376  14.112  68.799  1.00  0.00    -0.069 A  
HETATM   20  C   UNL     1      -7.769  15.472  66.900  1.00  0.00    -0.200 A  
HETATM   21  C   UNL     1      -6.680  15.982  67.609  1.00  0.00    -0.188 A  
HETATM   22  C   UNL     1      -6.440  15.561  68.913  1.00  0.00    -0.110 A  
HETATM   23  C   UNL     1      -7.271  14.607  69.497  1.00  0.00    -0.131 A  
ENDBRANCH  13  18
BRANCH  13  24
HETATM   24  C   UNL     1      -9.817  13.067  65.774  1.00  0.00    -0.217 A  
HETATM   25  C   UNL     1      -9.224  10.787  65.165  1.00  0.00    -0.239 A  
HETATM   26  C   UNL     1      -9.322  11.800  66.123  1.00  0.00    -0.236 A  
HETATM   27  C   UNL     1      -9.645  11.012  63.860  1.00  0.00    -0.272 A  
HETATM   28  C   UNL     1     -10.130  12.271  63.499  1.00  0.00    -0.344 A  
HETATM   29  C   UNL     1     -10.215  13.298  64.454  1.00  0.00    -0.300 A  
BRANCH  27  30
HETATM   30  O   UNL     1      -9.478   9.954  63.004  1.00  0.00    -0.276 OA 
HETATM   31  C   UNL     1      -8.218   9.297  63.055  1.00  0.00    -0.177 C  
ENDBRANCH  27  30
ENDBRANCH  13  24
ENDBRANCH  10  12
ENDBRANCH   9  10
ENDBRANCH   7   9
ENDBRANCH   3   4
ENDBRANCH   2   3
TORSDOF 9
ENDMDL
MODEL       66
REMARK 921   NORMALIZED FREE ENERGY PREDICTED BY IDOCK:   -4.63 KCAL/MOL
REMARK 922        TOTAL FREE ENERGY PREDICTED BY IDOCK:   -9.13 KCAL/MOL
REMARK 923 INTER-LIGAND FREE ENERGY PREDICTED BY IDOCK:   -7.45 KCAL/MOL
REMARK 924 INTRA-LIGAND FREE ENERGY PREDICTED BY IDOCK:   -1.68 KCAL/MOL
REMARK 927      BINDING AFFINITY PREDICTED BY RF-SCORE:    0.00 PKD
ROOT
HETATM    1  C   UNL     1     -12.913   9.184  72.299  1.00  0.00    -0.492 C  
HETATM    2  C   UNL     1     -13.242  10.622  71.924  1.00  0.00    -0.528 C  
ENDROOT
BRANCH   2   3
HETATM    3  C   UNL     1     -12.193  11.177  70.964  1.00  0.00    -0.438 C  
BRANCH   3   4
HETATM    4  C   UNL     1     -12.373  10.658  69.534  1.00  0.00    -0.154 C  
HETATM    5  C   UNL     1     -11.043  10.613  68.756  1.00  0.00    -0.316 C  
HETATM    6  C   UNL     1      -9.947   9.770  69.455  1.00  0.00    -0.230 C  
HETATM    7  C   UNL     1     -11.279  10.178  67.297  1.00  0.00     0.053 C  
HETATM    8  C   UNL     1     -10.281   8.295  69.634  1.00  0.00    -0.209 C  
BRANCH   7   9
HETATM    9  O   UNL     1     -10.013  10.189  66.619  1.00  0.00    -0.197 OA 
BRANCH   9  10
HETATM   10  C   UNL     1      -9.904  10.828  65.432  1.00  0.00    -0.262 C  
HETATM   11  O   UNL     1      -9.904  10.296  64.334  1.00  0.00    -0.327 OA 
BRANCH  10  12
HETATM   12  C   UNL     1     -10.018  12.299  65.641  1.00  0.00    -0.271 C  
HETATM   13  C   UNL     1      -9.270  13.047  66.503  1.00  0.00    -0.187 C  
BRANCH  12  14
HETATM   14  C   UNL     1     -11.192  12.926  64.906  1.00  0.00    -0.300 C  
HETATM   15  H1  UNL     1     -12.953  13.868  63.804  1.00  0.00     0.000 HD 
HETATM   16  N   UNL     1     -12.166  13.447  64.297  1.00  0.00    -0.535 NA 
HETATM   17  H2  UNL     1     -12.102  14.137  63.548  1.00  0.00     0.000 HD 
ENDBRANCH  12  14
BRANCH  13  18
HETATM   18  C   UNL     1      -8.094  12.468  67.204  1.00  0.00    -0.156 A  
HETATM   19  C   UNL     1      -7.206  11.631  66.518  1.00  0.00     0.048 A  
HETATM   20  C   UNL     1      -7.877  12.716  68.566  1.00  0.00    -0.104 A  
HETATM   21  C   UNL     1      -6.850  12.063  69.252  1.00  0.00    -0.066 A  
HETATM   22  C   UNL     1      -6.005  11.191  68.573  1.00  0.00    -0.042 A  
HETATM   23  C   UNL     1      -6.166  10.997  67.202  1.00  0.00    -0.075 A  
ENDBRANCH  13  18
BRANCH  13  24
HETATM   24  C   UNL     1      -9.684  14.447  66.800  1.00  0.00    -0.278 A  
HETATM   25  C   UNL     1      -9.423  16.833  66.397  1.00  0.00    -0.307 A  
HETATM   26  C   UNL     1      -9.064  15.511  66.123  1.00  0.00    -0.359 A  
HETATM   27  C   UNL     1     -10.422  17.112  67.323  1.00  0.00    -0.313 A  
HETATM   28  C   UNL     1     -11.039  16.064  68.009  1.00  0.00    -0.334 A  
HETATM   29  C   UNL     1     -10.669  14.733  67.749  1.00  0.00    -0.268 A  
BRANCH  27  30
HETATM   30  O   UNL     1     -10.671  18.444  67.526  1.00  0.00    -0.424 OA 
HETATM   31  C   UNL     1     -10.114  19.016  68.704  1.00  0.00    -0.382 C  
ENDBRANCH  27  30
ENDBRANCH  13  24
ENDBRANCH  10  12
ENDBRANCH   9  10
ENDBRANCH   7   9
ENDBRANCH   3   4
ENDBRANCH   2   3
TORSDOF 9
ENDMDL
MODEL       67
REMARK 921   NORMALIZED FREE ENERGY PREDICTED BY IDOCK:   -4.62 KCAL/MOL
REMARK 922        TOTAL FREE ENERGY PREDICTED BY IDOCK:   -9.12 KCAL/MOL
REMARK 923 INTER-LIGAND FREE ENERGY PREDICTED BY IDOCK:   -7.93 KCAL/MOL
REMARK 924 INTRA-LIGAND FREE ENERGY PREDICTED BY IDOCK:   -1.19 KCAL/MOL
REMARK 927      BINDING AFFINITY PREDICTED BY RF-SCORE:    0.00 PKD
ROOT
HETATM    1  C   UNL     1      -7.626   7.730  65.669  1.00  0.00    -0.085 C  
HETATM    2  C   UNL     1      -9.083   7.643  66.102  1.00  0.00    -0.189 C  
ENDROOT
BRANCH   2   3
HETATM    3  C   UNL     1      -9.269   8.276  67.478  1.00  0.00    -0.155 C  
BRANCH   3   4
HETATM    4  C   UNL     1     -10.572   9.074  67.584  1.00  0.00    -0.298 C  
HETATM    5  C   UNL     1     -10.321  10.575  67.836  1.00  0.00    -0.226 C  
HETATM    6  C   UNL     1      -9.419  11.238  66.765  1.00  0.00    -0.196 C  
HETATM    7  C   UNL     1     -11.652  11.325  68.032  1.00  0.00    -0.272 C  
HETATM    8  C   UNL     1      -9.979  11.225  65.349  1.00  0.00    -0.297 C  
BRANCH   7   9
HETATM    9  O   UNL     1     -11.350  12.704  68.296  1.00  0.00    -0.252 OA 
BRANCH   9  10
HETATM   10  C   UNL     1     -11.771  13.650  67.426  1.00  0.00    -0.381 C  
HETATM   11  O   UNL     1     -12.829  13.639  66.817  1.00  0.00     0.006 OA 
BRANCH  10  12
HETATM   12  C   UNL     1     -10.864  14.832  67.490  1.00  0.00    -0.287 C  
HETATM   13  C   UNL     1     -10.799  15.738  68.507  1.00  0.00    -0.290 C  
BRANCH  12  14
HETATM   14  C   UNL     1     -10.084  15.066  66.206  1.00  0.00    -0.282 C  
HETATM   15  H1  UNL     1      -8.913  15.417  64.280  1.00  0.00     0.000 HD 
HETATM   16  N   UNL     1      -9.437  15.260  65.141  1.00  0.00    -0.213 NA 
HETATM   17  H2  UNL     1      -8.860  14.571  64.659  1.00  0.00     0.000 HD 
ENDBRANCH  12  14
BRANCH  13  18
HETATM   18  C   UNL     1     -11.521  15.513  69.787  1.00  0.00    -0.339 A  
HETATM   19  C   UNL     1     -12.906  15.315  69.789  1.00  0.00     0.052 A  
HETATM   20  C   UNL     1     -10.837  15.539  71.011  1.00  0.00    -0.203 A  
HETATM   21  C   UNL     1     -11.538  15.464  72.217  1.00  0.00    -0.554 A  
HETATM   22  C   UNL     1     -12.921  15.320  72.210  1.00  0.00    -0.459 A  
HETATM   23  C   UNL     1     -13.601  15.217  70.998  1.00  0.00    -0.486 A  
ENDBRANCH  13  18
BRANCH  13  24
HETATM   24  C   UNL     1     -10.046  17.008  68.304  1.00  0.00    -0.306 A  
HETATM   25  C   UNL     1     -10.039  19.348  67.635  1.00  0.00    -0.505 A  
HETATM   26  C   UNL     1     -10.726  18.150  67.850  1.00  0.00    -0.331 A  
HETATM   27  C   UNL     1      -8.677  19.433  67.899  1.00  0.00    -0.317 A  
HETATM   28  C   UNL     1      -7.988  18.301  68.342  1.00  0.00    -0.320 A  
HETATM   29  C   UNL     1      -8.672  17.090  68.542  1.00  0.00    -0.253 A  
BRANCH  27  30
HETATM   30  O   UNL     1      -8.106  20.649  67.628  1.00  0.00    -0.256 OA 
HETATM   31  C   UNL     1      -7.135  20.672  66.589  1.00  0.00    -0.238 C  
ENDBRANCH  27  30
ENDBRANCH  13  24
ENDBRANCH  10  12
ENDBRANCH   9  10
ENDBRANCH   7   9
ENDBRANCH   3   4
ENDBRANCH   2   3
TORSDOF 9
ENDMDL
MODEL       68
REMARK 921   NORMALIZED FREE ENERGY PREDICTED BY IDOCK:   -4.60 KCAL/MOL
REMARK 922        TOTAL FREE ENERGY PREDICTED BY IDOCK:   -9.09 KCAL/MOL
REMARK 923 INTER-LIGAND FREE ENERGY PREDICTED BY IDOCK:   -6.90 KCAL/MOL
REMARK 924 INTRA-LIGAND FREE ENERGY PREDICTED BY IDOCK:   -2.19 KCAL/MOL
REMARK 927      BINDING AFFINITY PREDICTED BY RF-SCORE:    0.00 PKD
ROOT
HETATM    1  C   UNL     1      -5.831   5.099  71.421  1.00  0.00    -0.017 C  
HETATM    2  C   UNL     1      -6.436   5.769  72.648  1.00  0.00    -0.066 C  
ENDROOT
BRANCH   2   3
HETATM    3  C   UNL     1      -7.818   5.194  72.943  1.00  0.00    -0.098 C  
BRANCH   3   4
HETATM    4  C   UNL     1      -8.850   6.281  73.260  1.00  0.00    -0.126 C  
HETATM    5  C   UNL     1      -9.075   7.238  72.071  1.00  0.00    -0.144 C  
HETATM    6  C   UNL     1      -9.500   6.515  70.768  1.00  0.00    -0.180 C  
HETATM    7  C   UNL     1     -10.045   8.370  72.460  1.00  0.00    -0.292 C  
HETATM    8  C   UNL     1     -10.821   5.761  70.848  1.00  0.00    -0.326 C  
BRANCH   7   9
HETATM    9  O   UNL     1     -10.186   9.242  71.328  1.00  0.00    -0.303 OA 
BRANCH   9  10
HETATM   10  C   UNL     1     -11.406   9.403  70.765  1.00  0.00    -0.300 C  
HETATM   11  O   UNL     1     -12.427   8.825  71.101  1.00  0.00    -0.280 OA 
BRANCH  10  12
HETATM   12  C   UNL     1     -11.378  10.559  69.826  1.00  0.00    -0.367 C  
HETATM   13  C   UNL     1     -10.721  10.606  68.631  1.00  0.00    -0.239 C  
BRANCH  12  14
HETATM   14  C   UNL     1     -12.035  11.811  70.386  1.00  0.00    -0.332 C  
HETATM   15  H1  UNL     1     -13.021  13.689  71.226  1.00  0.00     0.000 HD 
HETATM   16  N   UNL     1     -12.580  12.849  70.851  1.00  0.00    -0.320 NA 
HETATM   17  H2  UNL     1     -13.314  13.392  70.396  1.00  0.00     0.000 HD 
ENDBRANCH  12  14
BRANCH  13  18
HETATM   18  C   UNL     1     -10.104   9.388  68.043  1.00  0.00    -0.230 A  
HETATM   19  C   UNL     1     -10.895   8.457  67.359  1.00  0.00    -0.091 A  
HETATM   20  C   UNL     1      -8.735   9.131  68.197  1.00  0.00    -0.129 A  
HETATM   21  C   UNL     1      -8.186   7.923  67.763  1.00  0.00    -0.129 A  
HETATM   22  C   UNL     1      -8.991   6.980  67.131  1.00  0.00    -0.123 A  
HETATM   23  C   UNL     1     -10.338   7.259  66.904  1.00  0.00    -0.358 A  
ENDBRANCH  13  18
BRANCH  13  24
HETATM   24  C   UNL     1     -10.560  11.916  67.939  1.00  0.00    -0.229 A  
HETATM   25  C   UNL     1     -11.439  13.595  66.413  1.00  0.00    -0.358 A  
HETATM   26  C   UNL     1     -11.576  12.379  67.086  1.00  0.00    -0.435 A  
HETATM   27  C   UNL     1     -10.308  14.381  66.605  1.00  0.00    -0.275 A  
HETATM   28  C   UNL     1      -9.287  13.927  67.443  1.00  0.00    -0.228 A  
HETATM   29  C   UNL     1      -9.412  12.695  68.108  1.00  0.00    -0.218 A  
BRANCH  27  30
HETATM   30  O   UNL     1     -10.273  15.540  65.874  1.00  0.00    -0.297 OA 
HETATM   31  C   UNL     1     -11.145  15.602  64.752  1.00  0.00    -0.412 C  
ENDBRANCH  27  30
ENDBRANCH  13  24
ENDBRANCH  10  12
ENDBRANCH   9  10
ENDBRANCH   7   9
ENDBRANCH   3   4
ENDBRANCH   2   3
TORSDOF 9
ENDMDL
MODEL       69
REMARK 921   NORMALIZED FREE ENERGY PREDICTED BY IDOCK:   -4.60 KCAL/MOL
REMARK 922        TOTAL FREE ENERGY PREDICTED BY IDOCK:   -9.09 KCAL/MOL
REMARK 923 INTER-LIGAND FREE ENERGY PREDICTED BY IDOCK:   -8.24 KCAL/MOL
REMARK 924 INTRA-LIGAND FREE ENERGY PREDICTED BY IDOCK:   -0.85 KCAL/MOL
REMARK 927      BINDING AFFINITY PREDICTED BY RF-SCORE:    0.00 PKD
ROOT
HETATM    1  C   UNL     1      -8.026   5.592  63.803  1.00  0.00    -0.112 C  
HETATM    2  C   UNL     1      -9.029   4.556  64.293  1.00  0.00    -0.150 C  
ENDROOT
BRANCH   2   3
HETATM    3  C   UNL     1      -9.237   4.685  65.799  1.00  0.00    -0.147 C  
BRANCH   3   4
HETATM    4  C   UNL     1      -8.441   5.846  66.403  1.00  0.00    -0.120 C  
HETATM    5  C   UNL     1      -9.217   7.178  66.348  1.00  0.00    -0.196 C  
HETATM    6  C   UNL     1     -10.602   7.114  67.039  1.00  0.00    -0.413 C  
HETATM    7  C   UNL     1      -8.349   8.337  66.876  1.00  0.00    -0.114 C  
HETATM    8  C   UNL     1     -10.569   6.806  68.530  1.00  0.00    -0.265 C  
BRANCH   7   9
HETATM    9  O   UNL     1      -9.111   9.548  66.768  1.00  0.00    -0.141 OA 
BRANCH   9  10
HETATM   10  C   UNL     1      -8.714  10.643  67.456  1.00  0.00    -0.125 C  
HETATM   11  O   UNL     1      -7.739  11.330  67.200  1.00  0.00    -0.132 OA 
BRANCH  10  12
HETATM   12  C   UNL     1      -9.768  11.030  68.437  1.00  0.00    -0.181 C  
HETATM   13  C   UNL     1     -10.703  12.009  68.264  1.00  0.00    -0.252 C  
BRANCH  12  14
HETATM   14  C   UNL     1      -9.629  10.335  69.782  1.00  0.00    -0.108 C  
HETATM   15  H1  UNL     1      -9.421   9.291  71.799  1.00  0.00     0.000 HD 
HETATM   16  N   UNL     1      -9.514   9.758  70.897  1.00  0.00    -0.318 NA 
HETATM   17  H2  UNL     1     -10.087   8.982  71.229  1.00  0.00     0.000 HD 
ENDBRANCH  12  14
BRANCH  13  18
HETATM   18  C   UNL     1     -10.885  12.677  66.949  1.00  0.00    -0.282 A  
HETATM   19  C   UNL     1     -10.100  13.784  66.605  1.00  0.00    -0.277 A  
HETATM   20  C   UNL     1     -11.869  12.239  66.051  1.00  0.00    -0.409 A  
HETATM   21  C   UNL     1     -12.129  12.953  64.879  1.00  0.00    -0.479 A  
HETATM   22  C   UNL     1     -11.379  14.083  64.572  1.00  0.00    -0.365 A  
HETATM   23  C   UNL     1     -10.347  14.482  65.420  1.00  0.00    -0.405 A  
ENDBRANCH  13  18
BRANCH  13  24
HETATM   24  C   UNL     1     -11.506  12.463  69.434  1.00  0.00    -0.336 A  
HETATM   25  C   UNL     1     -12.216  14.265  70.907  1.00  0.00    -0.425 A  
HETATM   26  C   UNL     1     -11.485  13.819  69.803  1.00  0.00    -0.267 A  
HETATM   27  C   UNL     1     -13.000  13.378  71.636  1.00  0.00    -0.355 A  
HETATM   28  C   UNL     1     -13.022  12.027  71.284  1.00  0.00    -0.315 A  
HETATM   29  C   UNL     1     -12.274  11.570  70.185  1.00  0.00    -0.387 A  
BRANCH  27  30
HETATM   30  O   UNL     1     -13.652  13.925  72.710  1.00  0.00    -0.654 OA 
HETATM   31  C   UNL     1     -13.447  15.316  72.930  1.00  0.00    -0.512 C  
ENDBRANCH  27  30
ENDBRANCH  13  24
ENDBRANCH  10  12
ENDBRANCH   9  10
ENDBRANCH   7   9
ENDBRANCH   3   4
ENDBRANCH   2   3
TORSDOF 9
ENDMDL
MODEL       70
REMARK 921   NORMALIZED FREE ENERGY PREDICTED BY IDOCK:   -4.60 KCAL/MOL
REMARK 922        TOTAL FREE ENERGY PREDICTED BY IDOCK:   -9.09 KCAL/MOL
REMARK 923 INTER-LIGAND FREE ENERGY PREDICTED BY IDOCK:   -7.18 KCAL/MOL
REMARK 924 INTRA-LIGAND FREE ENERGY PREDICTED BY IDOCK:   -1.91 KCAL/MOL
REMARK 927      BINDING AFFINITY PREDICTED BY RF-SCORE:    0.00 PKD
ROOT
HETATM    1  C   UNL     1      -6.189  20.047  69.137  1.00  0.00    -0.355 C  
HETATM    2  C   UNL     1      -6.489  20.975  67.969  1.00  0.00    -0.313 C  
ENDROOT
BRANCH   2   3
HETATM    3  C   UNL     1      -7.980  20.960  67.644  1.00  0.00    -0.098 C  
BRANCH   3   4
HETATM    4  C   UNL     1      -8.656  19.649  68.057  1.00  0.00    -0.355 C  
HETATM    5  C   UNL     1      -9.295  18.917  66.859  1.00  0.00    -0.333 C  
HETATM    6  C   UNL     1      -8.296  18.621  65.713  1.00  0.00     0.292 C  
HETATM    7  C   UNL     1     -10.046  17.656  67.328  1.00  0.00    -0.331 C  
HETATM    8  C   UNL     1      -7.137  17.706  66.085  1.00  0.00    -0.347 C  
BRANCH   7   9
HETATM    9  O   UNL     1     -10.644  17.042  66.176  1.00  0.00    -0.290 OA 
BRANCH   9  10
HETATM   10  C   UNL     1     -10.252  15.801  65.810  1.00  0.00    -0.370 C  
HETATM   11  O   UNL     1      -9.406  15.539  64.969  1.00  0.00     0.075 OA 
BRANCH  10  12
HETATM   12  C   UNL     1     -10.830  14.794  66.745  1.00  0.00    -0.316 C  
HETATM   13  C   UNL     1     -10.168  14.171  67.762  1.00  0.00    -0.242 C  
BRANCH  12  14
HETATM   14  C   UNL     1     -12.240  14.363  66.374  1.00  0.00    -0.340 C  
HETATM   15  H1  UNL     1     -14.356  13.716  65.819  1.00  0.00     0.000 HD 
HETATM   16  N   UNL     1     -13.410  14.005  66.068  1.00  0.00    -0.366 NA 
HETATM   17  H2  UNL     1     -14.148  13.751  66.724  1.00  0.00     0.000 HD 
ENDBRANCH  12  14
BRANCH  13  18
HETATM   18  C   UNL     1      -8.803  14.599  68.170  1.00  0.00    -0.173 A  
HETATM   19  C   UNL     1      -8.636  15.537  69.196  1.00  0.00    -0.246 A  
HETATM   20  C   UNL     1      -7.669  14.105  67.510  1.00  0.00    -0.201 A  
HETATM   21  C   UNL     1      -6.401  14.611  67.803  1.00  0.00    -0.170 A  
HETATM   22  C   UNL     1      -6.250  15.582  68.788  1.00  0.00    -0.099 A  
HETATM   23  C   UNL     1      -7.362  16.024  69.502  1.00  0.00    -0.146 A  
ENDBRANCH  13  18
BRANCH  13  24
HETATM   24  C   UNL     1     -10.796  12.995  68.428  1.00  0.00    -0.280 A  
HETATM   25  C   UNL     1     -12.251  12.110  70.166  1.00  0.00    -0.308 A  
HETATM   26  C   UNL     1     -11.664  13.197  69.514  1.00  0.00    -0.382 A  
HETATM   27  C   UNL     1     -12.009  10.813  69.727  1.00  0.00    -0.325 A  
HETATM   28  C   UNL     1     -11.141  10.599  68.654  1.00  0.00    -0.315 A  
HETATM   29  C   UNL     1     -10.534  11.689  68.007  1.00  0.00    -0.217 A  
BRANCH  27  30
HETATM   30  O   UNL     1     -12.619   9.828  70.458  1.00  0.00    -0.165 OA 
HETATM   31  C   UNL     1     -13.152  10.217  71.718  1.00  0.00    -0.463 C  
ENDBRANCH  27  30
ENDBRANCH  13  24
ENDBRANCH  10  12
ENDBRANCH   9  10
ENDBRANCH   7   9
ENDBRANCH   3   4
ENDBRANCH   2   3
TORSDOF 9
ENDMDL
MODEL       71
REMARK 921   NORMALIZED FREE ENERGY PREDICTED BY IDOCK:   -4.57 KCAL/MOL
REMARK 922        TOTAL FREE ENERGY PREDICTED BY IDOCK:   -9.05 KCAL/MOL
REMARK 923 INTER-LIGAND FREE ENERGY PREDICTED BY IDOCK:   -7.40 KCAL/MOL
REMARK 924 INTRA-LIGAND FREE ENERGY PREDICTED BY IDOCK:   -1.65 KCAL/MOL
REMARK 927      BINDING AFFINITY PREDICTED BY RF-SCORE:    0.00 PKD
ROOT
HETATM    1  C   UNL     1     -10.771   5.358  66.336  1.00  0.00    -0.284 C  
HETATM    2  C   UNL     1     -10.287   5.806  67.708  1.00  0.00    -0.266 C  
ENDROOT
BRANCH   2   3
HETATM    3  C   UNL     1     -10.755   7.229  68.000  1.00  0.00    -0.209 C  
BRANCH   3   4
HETATM    4  C   UNL     1      -9.653   8.090  68.626  1.00  0.00    -0.150 C  
HETATM    5  C   UNL     1      -9.882   9.597  68.386  1.00  0.00    -0.170 C  
HETATM    6  C   UNL     1     -11.256  10.101  68.894  1.00  0.00    -0.220 C  
HETATM    7  C   UNL     1      -8.708  10.422  68.946  1.00  0.00    -0.157 C  
HETATM    8  C   UNL     1     -11.483   9.962  70.394  1.00  0.00    -0.372 C  
BRANCH   7   9
HETATM    9  O   UNL     1      -8.963  11.807  68.662  1.00  0.00    -0.155 OA 
BRANCH   9  10
HETATM   10  C   UNL     1      -8.322  12.398  67.629  1.00  0.00    -0.169 C  
HETATM   11  O   UNL     1      -7.846  11.824  66.663  1.00  0.00    -0.132 OA 
BRANCH  10  12
HETATM   12  C   UNL     1      -8.482  13.878  67.718  1.00  0.00    -0.183 C  
HETATM   13  C   UNL     1      -9.374  14.631  67.013  1.00  0.00    -0.244 C  
BRANCH  12  14
HETATM   14  C   UNL     1      -7.423  14.551  68.576  1.00  0.00    -0.123 C  
HETATM   15  H1  UNL     1      -5.833  15.560  69.863  1.00  0.00     0.000 HD 
HETATM   16  N   UNL     1      -6.544  15.109  69.288  1.00  0.00    -0.128 NA 
HETATM   17  H2  UNL     1      -5.538  14.956  69.223  1.00  0.00     0.000 HD 
ENDBRANCH  12  14
BRANCH  13  18
HETATM   18  C   UNL     1     -10.443  13.998  66.197  1.00  0.00    -0.297 A  
HETATM   19  C   UNL     1     -11.583  13.470  66.816  1.00  0.00    -0.397 A  
HETATM   20  C   UNL     1     -10.312  13.882  64.806  1.00  0.00    -0.419 A  
HETATM   21  C   UNL     1     -11.252  13.167  64.062  1.00  0.00    -0.418 A  
HETATM   22  C   UNL     1     -12.354  12.600  64.693  1.00  0.00    -0.546 A  
HETATM   23  C   UNL     1     -12.534  12.775  66.064  1.00  0.00    -0.076 A  
ENDBRANCH  13  18
BRANCH  13  24
HETATM   24  C   UNL     1      -9.228  16.115  67.005  1.00  0.00    -0.227 A  
HETATM   25  C   UNL     1      -8.119  18.100  66.138  1.00  0.00    -0.198 A  
HETATM   26  C   UNL     1      -8.286  16.713  66.151  1.00  0.00    -0.305 A  
HETATM   27  C   UNL     1      -8.907  18.910  66.949  1.00  0.00    -0.297 A  
HETATM   28  C   UNL     1      -9.839  18.326  67.809  1.00  0.00    -0.328 A  
HETATM   29  C   UNL     1      -9.999  16.930  67.838  1.00  0.00    -0.274 A  
BRANCH  27  30
HETATM   30  O   UNL     1      -8.636  20.251  66.870  1.00  0.00    -0.320 OA 
HETATM   31  C   UNL     1      -7.292  20.638  67.124  1.00  0.00    -0.337 C  
ENDBRANCH  27  30
ENDBRANCH  13  24
ENDBRANCH  10  12
ENDBRANCH   9  10
ENDBRANCH   7   9
ENDBRANCH   3   4
ENDBRANCH   2   3
TORSDOF 9
ENDMDL
MODEL       72
REMARK 921   NORMALIZED FREE ENERGY PREDICTED BY IDOCK:   -4.57 KCAL/MOL
REMARK 922        TOTAL FREE ENERGY PREDICTED BY IDOCK:   -9.04 KCAL/MOL
REMARK 923 INTER-LIGAND FREE ENERGY PREDICTED BY IDOCK:   -7.39 KCAL/MOL
REMARK 924 INTRA-LIGAND FREE ENERGY PREDICTED BY IDOCK:   -1.65 KCAL/MOL
REMARK 927      BINDING AFFINITY PREDICTED BY RF-SCORE:    0.00 PKD
ROOT
HETATM    1  C   UNL     1      -8.126   1.986  68.327  1.00  0.00    -0.067 C  
HETATM    2  C   UNL     1      -9.401   2.621  68.866  1.00  0.00    -0.223 C  
ENDROOT
BRANCH   2   3
HETATM    3  C   UNL     1      -9.460   2.495  70.385  1.00  0.00    -0.178 C  
BRANCH   3   4
HETATM    4  C   UNL     1      -8.670   3.598  71.096  1.00  0.00    -0.122 C  
HETATM    5  C   UNL     1      -9.560   4.796  71.485  1.00  0.00    -0.220 C  
HETATM    6  C   UNL     1     -10.770   4.405  72.369  1.00  0.00    -0.115 C  
HETATM    7  C   UNL     1      -8.714   5.923  72.109  1.00  0.00    -0.136 C  
HETATM    8  C   UNL     1     -10.416   3.797  73.720  1.00  0.00    -0.268 C  
BRANCH   7   9
HETATM    9  O   UNL     1      -9.590   7.018  72.418  1.00  0.00    -0.146 OA 
BRANCH   9  10
HETATM   10  C   UNL     1      -9.100   8.278  72.411  1.00  0.00    -0.237 C  
HETATM   11  O   UNL     1      -8.519   8.822  73.336  1.00  0.00    -0.351 OA 
BRANCH  10  12
HETATM   12  C   UNL     1      -9.164   8.835  71.030  1.00  0.00    -0.278 C  
HETATM   13  C   UNL     1     -10.293   8.989  70.279  1.00  0.00    -0.243 C  
BRANCH  12  14
HETATM   14  C   UNL     1      -7.797   9.089  70.415  1.00  0.00    -0.116 C  
HETATM   15  H1  UNL     1      -5.746   9.471  69.492  1.00  0.00     0.000 HD 
HETATM   16  N   UNL     1      -6.663   9.300  69.905  1.00  0.00    -0.047 NA 
HETATM   17  H2  UNL     1      -6.173  10.194  69.889  1.00  0.00     0.000 HD 
ENDBRANCH  12  14
BRANCH  13  18
HETATM   18  C   UNL     1     -11.643   8.784  70.866  1.00  0.00    -0.320 A  
HETATM   19  C   UNL     1     -12.309   9.846  71.491  1.00  0.00    -0.504 A  
HETATM   20  C   UNL     1     -12.253   7.522  70.842  1.00  0.00    -0.224 A  
HETATM   21  C   UNL     1     -13.458   7.304  71.514  1.00  0.00    -0.439 A  
HETATM   22  C   UNL     1     -14.085   8.353  72.177  1.00  0.00    -0.460 A  
HETATM   23  C   UNL     1     -13.526   9.629  72.142  1.00  0.00    -0.516 A  
ENDBRANCH  13  18
BRANCH  13  24
HETATM   24  C   UNL     1     -10.165   9.298  68.827  1.00  0.00    -0.223 A  
HETATM   25  C   UNL     1      -9.926   8.512  66.536  1.00  0.00    -0.350 A  
HETATM   26  C   UNL     1     -10.064   8.246  67.901  1.00  0.00    -0.252 A  
HETATM   27  C   UNL     1      -9.919   9.823  66.073  1.00  0.00    -0.272 A  
HETATM   28  C   UNL     1     -10.010  10.877  66.985  1.00  0.00    -0.227 A  
HETATM   29  C   UNL     1     -10.131  10.615  68.360  1.00  0.00    -0.181 A  
BRANCH  27  30
HETATM   30  O   UNL     1      -9.754   9.960  64.720  1.00  0.00    -0.309 OA 
HETATM   31  C   UNL     1     -10.383  11.086  64.119  1.00  0.00    -0.369 C  
ENDBRANCH  27  30
ENDBRANCH  13  24
ENDBRANCH  10  12
ENDBRANCH   9  10
ENDBRANCH   7   9
ENDBRANCH   3   4
ENDBRANCH   2   3
TORSDOF 9
ENDMDL
MODEL       73
REMARK 921   NORMALIZED FREE ENERGY PREDICTED BY IDOCK:   -4.55 KCAL/MOL
REMARK 922        TOTAL FREE ENERGY PREDICTED BY IDOCK:   -9.02 KCAL/MOL
REMARK 923 INTER-LIGAND FREE ENERGY PREDICTED BY IDOCK:   -7.58 KCAL/MOL
REMARK 924 INTRA-LIGAND FREE ENERGY PREDICTED BY IDOCK:   -1.44 KCAL/MOL
REMARK 927      BINDING AFFINITY PREDICTED BY RF-SCORE:    0.00 PKD
ROOT
HETATM    1  C   UNL     1     -11.884  13.288  63.642  1.00  0.00    -0.515 C  
HETATM    2  C   UNL     1     -12.403  14.541  64.332  1.00  0.00    -0.437 C  
ENDROOT
BRANCH   2   3
HETATM    3  C   UNL     1     -11.284  15.222  65.114  1.00  0.00    -0.374 C  
BRANCH   3   4
HETATM    4  C   UNL     1     -11.369  14.949  66.619  1.00  0.00    -0.326 C  
HETATM    5  C   UNL     1     -10.665  13.635  67.015  1.00  0.00    -0.278 C  
HETATM    6  C   UNL     1      -9.178  13.577  66.584  1.00  0.00    -0.221 C  
HETATM    7  C   UNL     1     -10.855  13.347  68.517  1.00  0.00    -0.265 C  
HETATM    8  C   UNL     1      -8.282  14.639  67.207  1.00  0.00    -0.235 C  
BRANCH   7   9
HETATM    9  O   UNL     1     -10.209  12.100  68.815  1.00  0.00    -0.201 OA 
BRANCH   9  10
HETATM   10  C   UNL     1     -10.931  11.095  69.360  1.00  0.00    -0.244 C  
HETATM   11  O   UNL     1     -11.763  11.213  70.245  1.00  0.00    -0.311 OA 
BRANCH  10  12
HETATM   12  C   UNL     1     -10.738   9.848  68.566  1.00  0.00    -0.260 C  
HETATM   13  C   UNL     1     -10.487   8.606  69.072  1.00  0.00    -0.216 C  
BRANCH  12  14
HETATM   14  C   UNL     1     -10.678  10.088  67.066  1.00  0.00    -0.178 C  
HETATM   15  H1  UNL     1     -10.587  10.448  64.815  1.00  0.00     0.000 HD 
HETATM   16  N   UNL     1     -10.628  10.288  65.821  1.00  0.00    -0.073 NA 
HETATM   17  H2  UNL     1      -9.792  10.227  65.240  1.00  0.00     0.000 HD 
ENDBRANCH  12  14
BRANCH  13  18
HETATM   18  C   UNL     1     -10.577   8.336  70.531  1.00  0.00    -0.233 A  
HETATM   19  C   UNL     1      -9.447   8.477  71.345  1.00  0.00    -0.279 A  
HETATM   20  C   UNL     1     -11.777   7.897  71.107  1.00  0.00    -0.306 A  
HETATM   21  C   UNL     1     -11.822   7.513  72.449  1.00  0.00    -0.305 A  
HETATM   22  C   UNL     1     -10.680   7.607  73.237  1.00  0.00    -0.409 A  
HETATM   23  C   UNL     1      -9.502   8.115  72.693  1.00  0.00    -0.346 A  
ENDBRANCH  13  18
BRANCH  13  24
HETATM   24  C   UNL     1     -10.046   7.520  68.151  1.00  0.00    -0.215 A  
HETATM   25  C   UNL     1     -10.602   5.578  66.794  1.00  0.00    -0.360 A  
HETATM   26  C   UNL     1     -10.994   6.616  67.644  1.00  0.00    -0.392 A  
HETATM   27  C   UNL     1      -9.271   5.448  66.413  1.00  0.00    -0.147 A  
HETATM   28  C   UNL     1      -8.319   6.336  66.918  1.00  0.00    -0.109 A  
HETATM   29  C   UNL     1      -8.706   7.370  67.788  1.00  0.00    -0.126 A  
BRANCH  27  30
HETATM   30  O   UNL     1      -9.002   4.380  65.597  1.00  0.00    -0.123 OA 
HETATM   31  C   UNL     1      -8.017   3.465  66.062  1.00  0.00    -0.092 C  
ENDBRANCH  27  30
ENDBRANCH  13  24
ENDBRANCH  10  12
ENDBRANCH   9  10
ENDBRANCH   7   9
ENDBRANCH   3   4
ENDBRANCH   2   3
TORSDOF 9
ENDMDL
MODEL       74
REMARK 921   NORMALIZED FREE ENERGY PREDICTED BY IDOCK:   -4.55 KCAL/MOL
REMARK 922        TOTAL FREE ENERGY PREDICTED BY IDOCK:   -9.01 KCAL/MOL
REMARK 923 INTER-LIGAND FREE ENERGY PREDICTED BY IDOCK:   -8.04 KCAL/MOL
REMARK 924 INTRA-LIGAND FREE ENERGY PREDICTED BY IDOCK:   -0.97 KCAL/MOL
REMARK 927      BINDING AFFINITY PREDICTED BY RF-SCORE:    0.00 PKD
ROOT
HETATM    1  C   UNL     1      -9.947   9.553  70.138  1.00  0.00    -0.285 C  
HETATM    2  C   UNL     1      -8.522   9.338  70.627  1.00  0.00    -0.258 C  
ENDROOT
BRANCH   2   3
HETATM    3  C   UNL     1      -7.544  10.176  69.808  1.00  0.00    -0.175 C  
BRANCH   3   4
HETATM    4  C   UNL     1      -8.103  10.548  68.431  1.00  0.00    -0.119 C  
HETATM    5  C   UNL     1      -8.123  12.073  68.200  1.00  0.00    -0.160 C  
HETATM    6  C   UNL     1      -6.736  12.741  68.371  1.00  0.00    -0.087 C  
HETATM    7  C   UNL     1      -8.778  12.411  66.848  1.00  0.00    -0.191 C  
HETATM    8  C   UNL     1      -5.665  12.269  67.396  1.00  0.00    -0.139 C  
BRANCH   7   9
HETATM    9  O   UNL     1      -8.797  13.840  66.708  1.00  0.00    -0.217 OA 
BRANCH   9  10
HETATM   10  C   UNL     1      -9.942  14.452  66.329  1.00  0.00    -0.306 C  
HETATM   11  O   UNL     1     -10.296  14.653  65.179  1.00  0.00    -0.371 OA 
BRANCH  10  12
HETATM   12  C   UNL     1     -10.827  14.642  67.514  1.00  0.00    -0.286 C  
HETATM   13  C   UNL     1     -10.918  15.771  68.274  1.00  0.00    -0.325 C  
BRANCH  12  14
HETATM   14  C   UNL     1     -11.548  13.373  67.941  1.00  0.00    -0.339 C  
HETATM   15  H1  UNL     1     -12.628  11.469  68.583  1.00  0.00     0.000 HD 
HETATM   16  N   UNL     1     -12.145  12.320  68.296  1.00  0.00    -0.345 NA 
HETATM   17  H2  UNL     1     -11.722  11.529  68.782  1.00  0.00     0.000 HD 
ENDBRANCH  12  14
BRANCH  13  18
HETATM   18  C   UNL     1     -10.256  17.035  67.858  1.00  0.00    -0.317 A  
HETATM   19  C   UNL     1     -10.953  17.979  67.094  1.00  0.00    -0.025 A  
HETATM   20  C   UNL     1      -8.916  17.285  68.187  1.00  0.00    -0.254 A  
HETATM   21  C   UNL     1      -8.258  18.408  67.679  1.00  0.00    -0.262 A  
HETATM   22  C   UNL     1      -8.945  19.313  66.876  1.00  0.00    -0.339 A  
HETATM   23  C   UNL     1     -10.298  19.113  66.608  1.00  0.00    -0.515 A  
ENDBRANCH  13  18
BRANCH  13  24
HETATM   24  C   UNL     1     -11.636  15.715  69.579  1.00  0.00    -0.366 A  
HETATM   25  C   UNL     1     -11.590  15.952  72.000  1.00  0.00    -0.525 A  
HETATM   26  C   UNL     1     -10.943  16.015  70.763  1.00  0.00    -0.232 A  
HETATM   27  C   UNL     1     -12.939  15.622  72.071  1.00  0.00    -0.452 A  
HETATM   28  C   UNL     1     -13.635  15.312  70.901  1.00  0.00    -0.402 A  
HETATM   29  C   UNL     1     -12.984  15.357  69.657  1.00  0.00     0.341 A  
BRANCH  27  30
HETATM   30  O   UNL     1     -13.458  15.568  73.338  1.00  0.00    -0.452 OA 
HETATM   31  C   UNL     1     -12.530  15.716  74.406  1.00  0.00    -0.634 C  
ENDBRANCH  27  30
ENDBRANCH  13  24
ENDBRANCH  10  12
ENDBRANCH   9  10
ENDBRANCH   7   9
ENDBRANCH   3   4
ENDBRANCH   2   3
TORSDOF 9
ENDMDL
MODEL       75
REMARK 921   NORMALIZED FREE ENERGY PREDICTED BY IDOCK:   -4.52 KCAL/MOL
REMARK 922        TOTAL FREE ENERGY PREDICTED BY IDOCK:   -8.96 KCAL/MOL
REMARK 923 INTER-LIGAND FREE ENERGY PREDICTED BY IDOCK:   -6.55 KCAL/MOL
REMARK 924 INTRA-LIGAND FREE ENERGY PREDICTED BY IDOCK:   -2.41 KCAL/MOL
REMARK 927      BINDING AFFINITY PREDICTED BY RF-SCORE:    0.00 PKD
ROOT
HETATM    1  C   UNL     1      -8.483   8.870  62.854  1.00  0.00    -0.178 C  
HETATM    2  C   UNL     1      -7.981  10.271  62.533  1.00  0.00    -0.166 C  
ENDROOT
BRANCH   2   3
HETATM    3  C   UNL     1      -9.077  11.302  62.786  1.00  0.00    -0.327 C  
BRANCH   3   4
HETATM    4  C   UNL     1     -10.092  10.832  63.833  1.00  0.00    -0.397 C  
HETATM    5  C   UNL     1     -10.396  11.921  64.882  1.00  0.00    -0.328 C  
HETATM    6  C   UNL     1     -10.898  13.251  64.265  1.00  0.00    -0.414 C  
HETATM    7  C   UNL     1     -11.345  11.381  65.969  1.00  0.00    -0.026 C  
HETATM    8  C   UNL     1     -12.208  13.152  63.494  1.00  0.00    -0.552 C  
BRANCH   7   9
HETATM    9  O   UNL     1     -11.561  12.426  66.930  1.00  0.00    -0.340 OA 
BRANCH   9  10
HETATM   10  C   UNL     1     -10.597  12.699  67.837  1.00  0.00    -0.220 C  
HETATM   11  O   UNL     1     -10.044  13.776  67.987  1.00  0.00    -0.232 OA 
BRANCH  10  12
HETATM   12  C   UNL     1     -10.466  11.560  68.790  1.00  0.00    -0.227 C  
HETATM   13  C   UNL     1      -9.478  10.619  68.782  1.00  0.00    -0.186 C  
BRANCH  12  14
HETATM   14  C   UNL     1     -11.654  11.413  69.727  1.00  0.00    -0.332 C  
HETATM   15  H1  UNL     1     -13.437  11.193  71.132  1.00  0.00     0.000 HD 
HETATM   16  N   UNL     1     -12.640  11.292  70.504  1.00  0.00    -0.274 NA 
HETATM   17  H2  UNL     1     -13.122  12.054  70.980  1.00  0.00     0.000 HD 
ENDBRANCH  12  14
BRANCH  13  18
HETATM   18  C   UNL     1      -8.287  10.758  67.904  1.00  0.00    -0.117 A  
HETATM   19  C   UNL     1      -8.103   9.890  66.821  1.00  0.00    -0.117 A  
HETATM   20  C   UNL     1      -7.310  11.729  68.168  1.00  0.00    -0.094 A  
HETATM   21  C   UNL     1      -6.129  11.768  67.424  1.00  0.00    -0.108 A  
HETATM   22  C   UNL     1      -5.932  10.866  66.384  1.00  0.00    -0.131 A  
HETATM   23  C   UNL     1      -6.930   9.947  66.065  1.00  0.00    -0.104 A  
ENDBRANCH  13  18
BRANCH  13  24
HETATM   24  C   UNL     1      -9.633   9.394  69.617  1.00  0.00    -0.199 A  
HETATM   25  C   UNL     1      -9.044   8.144  71.620  1.00  0.00    -0.214 A  
HETATM   26  C   UNL     1      -8.929   9.289  70.829  1.00  0.00    -0.292 A  
HETATM   27  C   UNL     1      -9.883   7.104  71.234  1.00  0.00    -0.177 A  
HETATM   28  C   UNL     1     -10.580   7.193  70.027  1.00  0.00    -0.248 A  
HETATM   29  C   UNL     1     -10.453   8.336  69.219  1.00  0.00    -0.218 A  
BRANCH  27  30
HETATM   30  O   UNL     1      -9.896   6.023  72.076  1.00  0.00    -0.157 OA 
HETATM   31  C   UNL     1      -9.843   6.309  73.468  1.00  0.00    -0.179 C  
ENDBRANCH  27  30
ENDBRANCH  13  24
ENDBRANCH  10  12
ENDBRANCH   9  10
ENDBRANCH   7   9
ENDBRANCH   3   4
ENDBRANCH   2   3
TORSDOF 9
ENDMDL
MODEL       76
REMARK 921   NORMALIZED FREE ENERGY PREDICTED BY IDOCK:   -4.50 KCAL/MOL
REMARK 922        TOTAL FREE ENERGY PREDICTED BY IDOCK:   -8.93 KCAL/MOL
REMARK 923 INTER-LIGAND FREE ENERGY PREDICTED BY IDOCK:   -7.10 KCAL/MOL
REMARK 924 INTRA-LIGAND FREE ENERGY PREDICTED BY IDOCK:   -1.83 KCAL/MOL
REMARK 927      BINDING AFFINITY PREDICTED BY RF-SCORE:    0.00 PKD
ROOT
HETATM    1  C   UNL     1      -5.367  12.286  70.720  1.00  0.00    -0.161 C  
HETATM    2  C   UNL     1      -5.798  11.421  69.543  1.00  0.00    -0.070 C  
ENDROOT
BRANCH   2   3
HETATM    3  C   UNL     1      -6.095   9.998  70.006  1.00  0.00    -0.059 C  
BRANCH   3   4
HETATM    4  C   UNL     1      -7.560   9.806  70.407  1.00  0.00    -0.165 C  
HETATM    5  C   UNL     1      -8.531  10.161  69.262  1.00  0.00    -0.167 C  
HETATM    6  C   UNL     1      -8.265   9.367  67.959  1.00  0.00    -0.114 C  
HETATM    7  C   UNL     1      -9.994  10.047  69.733  1.00  0.00    -0.241 C  
HETATM    8  C   UNL     1      -8.422   7.857  68.076  1.00  0.00    -0.123 C  
BRANCH   7   9
HETATM    9  O   UNL     1     -10.844  10.421  68.638  1.00  0.00    -0.205 OA 
BRANCH   9  10
HETATM   10  C   UNL     1     -11.959  11.144  68.884  1.00  0.00    -0.298 C  
HETATM   11  O   UNL     1     -13.032  10.696  69.257  1.00  0.00     0.019 OA 
BRANCH  10  12
HETATM   12  C   UNL     1     -11.632  12.598  68.861  1.00  0.00    -0.363 C  
HETATM   13  C   UNL     1     -11.058  13.273  67.823  1.00  0.00    -0.289 C  
BRANCH  12  14
HETATM   14  C   UNL     1     -11.844  13.289  70.198  1.00  0.00    -0.263 C  
HETATM   15  H1  UNL     1     -12.163  14.325  72.205  1.00  0.00     0.000 HD 
HETATM   16  N   UNL     1     -12.020  13.862  71.308  1.00  0.00    -0.430 NA 
HETATM   17  H2  UNL     1     -12.108  13.398  72.212  1.00  0.00     0.000 HD 
ENDBRANCH  12  14
BRANCH  13  18
HETATM   18  C   UNL     1     -10.874  12.633  66.494  1.00  0.00    -0.285 A  
HETATM   19  C   UNL     1     -11.934  12.589  65.581  1.00  0.00    -0.492 A  
HETATM   20  C   UNL     1      -9.656  12.030  66.150  1.00  0.00    -0.252 A  
HETATM   21  C   UNL     1      -9.532  11.312  64.959  1.00  0.00    -0.237 A  
HETATM   22  C   UNL     1     -10.608  11.228  64.081  1.00  0.00    -0.437 A  
HETATM   23  C   UNL     1     -11.798  11.890  64.378  1.00  0.00    -0.336 A  
ENDBRANCH  13  18
BRANCH  13  24
HETATM   24  C   UNL     1     -10.542  14.653  68.049  1.00  0.00    -0.240 A  
HETATM   25  C   UNL     1      -8.742  16.117  68.782  1.00  0.00    -0.240 A  
HETATM   26  C   UNL     1      -9.241  14.834  68.546  1.00  0.00    -0.194 A  
HETATM   27  C   UNL     1      -9.517  17.236  68.497  1.00  0.00    -0.285 A  
HETATM   28  C   UNL     1     -10.816  17.069  68.012  1.00  0.00    -0.330 A  
HETATM   29  C   UNL     1     -11.329  15.779  67.790  1.00  0.00    -0.240 A  
BRANCH  27  30
HETATM   30  O   UNL     1      -8.933  18.439  68.793  1.00  0.00    -0.304 OA 
HETATM   31  C   UNL     1      -7.524  18.517  68.611  1.00  0.00    -0.301 C  
ENDBRANCH  27  30
ENDBRANCH  13  24
ENDBRANCH  10  12
ENDBRANCH   9  10
ENDBRANCH   7   9
ENDBRANCH   3   4
ENDBRANCH   2   3
TORSDOF 9
ENDMDL
MODEL       77
REMARK 921   NORMALIZED FREE ENERGY PREDICTED BY IDOCK:   -4.46 KCAL/MOL
REMARK 922        TOTAL FREE ENERGY PREDICTED BY IDOCK:   -8.88 KCAL/MOL
REMARK 923 INTER-LIGAND FREE ENERGY PREDICTED BY IDOCK:   -7.43 KCAL/MOL
REMARK 924 INTRA-LIGAND FREE ENERGY PREDICTED BY IDOCK:   -1.45 KCAL/MOL
REMARK 927      BINDING AFFINITY PREDICTED BY RF-SCORE:    0.00 PKD
ROOT
HETATM    1  C   UNL     1      -6.463   6.546  72.640  1.00  0.00    -0.059 C  
HETATM    2  C   UNL     1      -7.360   5.325  72.787  1.00  0.00    -0.095 C  
ENDROOT
BRANCH   2   3
HETATM    3  C   UNL     1      -8.622   5.485  71.944  1.00  0.00    -0.131 C  
BRANCH   3   4
HETATM    4  C   UNL     1      -9.610   6.485  72.552  1.00  0.00    -0.156 C  
HETATM    5  C   UNL     1      -9.901   7.669  71.607  1.00  0.00    -0.193 C  
HETATM    6  C   UNL     1     -10.428   7.234  70.217  1.00  0.00    -0.231 C  
HETATM    7  C   UNL     1     -10.821   8.698  72.291  1.00  0.00    -0.322 C  
HETATM    8  C   UNL     1     -11.753   6.483  70.232  1.00  0.00    -0.430 C  
BRANCH   7   9
HETATM    9  O   UNL     1     -11.026   9.787  71.377  1.00  0.00    -0.342 OA 
BRANCH   9  10
HETATM   10  C   UNL     1     -12.285  10.217  71.133  1.00  0.00    -0.397 C  
HETATM   11  O   UNL     1     -13.310   9.652  71.477  1.00  0.00    -0.371 OA 
BRANCH  10  12
HETATM   12  C   UNL     1     -12.245  11.603  70.586  1.00  0.00    -0.461 C  
HETATM   13  C   UNL     1     -11.463  12.036  69.556  1.00  0.00    -0.351 C  
BRANCH  12  14
HETATM   14  C   UNL     1     -13.062  12.598  71.396  1.00  0.00    -0.216 C  
HETATM   15  H1  UNL     1     -14.288  14.090  72.609  1.00  0.00     0.000 HD 
HETATM   16  N   UNL     1     -13.740  13.423  72.067  1.00  0.00    -0.465 NA 
HETATM   17  H2  UNL     1     -14.078  14.327  71.736  1.00  0.00     0.000 HD 
ENDBRANCH  12  14
BRANCH  13  18
HETATM   18  C   UNL     1     -10.684  11.081  68.725  1.00  0.00    -0.240 A  
HETATM   19  C   UNL     1     -11.340  10.236  67.821  1.00  0.00    -0.137 A  
HETATM   20  C   UNL     1      -9.293  10.980  68.860  1.00  0.00    -0.155 A  
HETATM   21  C   UNL     1      -8.583   9.989  68.178  1.00  0.00    -0.118 A  
HETATM   22  C   UNL     1      -9.251   9.119  67.322  1.00  0.00    -0.157 A  
HETATM   23  C   UNL     1     -10.623   9.260  67.123  1.00  0.00    -0.286 A  
ENDBRANCH  13  18
BRANCH  13  24
HETATM   24  C   UNL     1     -11.331  13.500  69.307  1.00  0.00    -0.317 A  
HETATM   25  C   UNL     1     -11.488  15.379  67.769  1.00  0.00    -0.284 A  
HETATM   26  C   UNL     1     -11.621  14.013  68.032  1.00  0.00    -0.372 A  
HETATM   27  C   UNL     1     -11.098  16.254  68.777  1.00  0.00    -0.355 A  
HETATM   28  C   UNL     1     -10.799  15.754  70.046  1.00  0.00    -0.348 A  
HETATM   29  C   UNL     1     -10.914  14.378  70.310  1.00  0.00     0.073 A  
BRANCH  27  30
HETATM   30  O   UNL     1     -10.979  17.565  68.396  1.00  0.00    -0.251 OA 
HETATM   31  C   UNL     1     -10.646  17.796  67.032  1.00  0.00    -0.262 C  
ENDBRANCH  27  30
ENDBRANCH  13  24
ENDBRANCH  10  12
ENDBRANCH   9  10
ENDBRANCH   7   9
ENDBRANCH   3   4
ENDBRANCH   2   3
TORSDOF 9
ENDMDL
MODEL       78
REMARK 921   NORMALIZED FREE ENERGY PREDICTED BY IDOCK:   -4.46 KCAL/MOL
REMARK 922        TOTAL FREE ENERGY PREDICTED BY IDOCK:   -8.88 KCAL/MOL
REMARK 923 INTER-LIGAND FREE ENERGY PREDICTED BY IDOCK:   -6.98 KCAL/MOL
REMARK 924 INTRA-LIGAND FREE ENERGY PREDICTED BY IDOCK:   -1.89 KCAL/MOL
REMARK 927      BINDING AFFINITY PREDICTED BY RF-SCORE:    0.00 PKD
ROOT
HETATM    1  C   UNL     1      -6.149  14.276  70.757  1.00  0.00    -0.174 C  
HETATM    2  C   UNL     1      -5.324  15.004  69.704  1.00  0.00    -0.090 C  
ENDROOT
BRANCH   2   3
HETATM    3  C   UNL     1      -6.112  15.135  68.405  1.00  0.00    -0.107 C  
BRANCH   3   4
HETATM    4  C   UNL     1      -7.596  14.796  68.582  1.00  0.00    -0.126 C  
HETATM    5  C   UNL     1      -8.134  13.910  67.440  1.00  0.00    -0.190 C  
HETATM    6  C   UNL     1      -7.343  12.591  67.256  1.00  0.00    -0.113 C  
HETATM    7  C   UNL     1      -9.648  13.672  67.603  1.00  0.00    -0.221 C  
HETATM    8  C   UNL     1      -7.368  11.649  68.452  1.00  0.00    -0.096 C  
BRANCH   7   9
HETATM    9  O   UNL     1     -10.093  12.873  66.496  1.00  0.00    -0.249 OA 
BRANCH   9  10
HETATM   10  C   UNL     1     -11.217  12.133  66.625  1.00  0.00    -0.324 C  
HETATM   11  O   UNL     1     -12.293  12.372  66.099  1.00  0.00    -0.606 OA 
BRANCH  10  12
HETATM   12  C   UNL     1     -10.899  10.851  67.316  1.00  0.00    -0.342 C  
HETATM   13  C   UNL     1     -10.187   9.813  66.791  1.00  0.00    -0.300 C  
BRANCH  12  14
HETATM   14  C   UNL     1     -11.592  10.700  68.661  1.00  0.00    -0.227 C  
HETATM   15  H1  UNL     1     -12.631  10.474  70.679  1.00  0.00     0.000 HD 
HETATM   16  N   UNL     1     -12.166  10.575  69.777  1.00  0.00    -0.512 NA 
HETATM   17  H2  UNL     1     -12.753  11.277  70.228  1.00  0.00     0.000 HD 
ENDBRANCH  12  14
BRANCH  13  18
HETATM   18  C   UNL     1      -9.468   9.948  65.497  1.00  0.00    -0.313 A  
HETATM   19  C   UNL     1      -8.106   9.636  65.411  1.00  0.00    -0.127 A  
HETATM   20  C   UNL     1     -10.128  10.425  64.356  1.00  0.00    -0.342 A  
HETATM   21  C   UNL     1      -9.419  10.679  63.180  1.00  0.00    -0.360 A  
HETATM   22  C   UNL     1      -8.054  10.417  63.120  1.00  0.00    -0.141 A  
HETATM   23  C   UNL     1      -7.404   9.870  64.225  1.00  0.00    -0.133 A  
ENDBRANCH  13  18
BRANCH  13  24
HETATM   24  C   UNL     1     -10.188   8.499  67.495  1.00  0.00    -0.307 A  
HETATM   25  C   UNL     1      -9.409   7.117  69.340  1.00  0.00    -0.147 A  
HETATM   26  C   UNL     1      -9.438   8.344  68.673  1.00  0.00    -0.147 A  
HETATM   27  C   UNL     1     -10.150   6.041  68.864  1.00  0.00    -0.176 A  
HETATM   28  C   UNL     1     -10.892   6.181  67.689  1.00  0.00    -0.421 A  
HETATM   29  C   UNL     1     -10.909   7.408  67.005  1.00  0.00    -0.307 A  
BRANCH  27  30
HETATM   30  O   UNL     1     -10.025   4.883  69.587  1.00  0.00    -0.200 OA 
HETATM   31  C   UNL     1      -9.695   5.032  70.962  1.00  0.00    -0.184 C  
ENDBRANCH  27  30
ENDBRANCH  13  24
ENDBRANCH  10  12
ENDBRANCH   9  10
ENDBRANCH   7   9
ENDBRANCH   3   4
ENDBRANCH   2   3
TORSDOF 9
ENDMDL
MODEL       79
REMARK 921   NORMALIZED FREE ENERGY PREDICTED BY IDOCK:   -4.45 KCAL/MOL
REMARK 922        TOTAL FREE ENERGY PREDICTED BY IDOCK:   -8.86 KCAL/MOL
REMARK 923 INTER-LIGAND FREE ENERGY PREDICTED BY IDOCK:   -7.88 KCAL/MOL
REMARK 924 INTRA-LIGAND FREE ENERGY PREDICTED BY IDOCK:   -0.99 KCAL/MOL
REMARK 927      BINDING AFFINITY PREDICTED BY RF-SCORE:    0.00 PKD
ROOT
HETATM    1  C   UNL     1      -5.182  12.363  70.797  1.00  0.00    -0.150 C  
HETATM    2  C   UNL     1      -5.151  12.779  69.333  1.00  0.00    -0.074 C  
ENDROOT
BRANCH   2   3
HETATM    3  C   UNL     1      -5.680  14.201  69.170  1.00  0.00    -0.085 C  
BRANCH   3   4
HETATM    4  C   UNL     1      -7.118  14.352  69.674  1.00  0.00    -0.049 C  
HETATM    5  C   UNL     1      -8.151  14.269  68.531  1.00  0.00    -0.147 C  
HETATM    6  C   UNL     1      -8.050  12.963  67.703  1.00  0.00    -0.167 C  
HETATM    7  C   UNL     1      -9.574  14.521  69.063  1.00  0.00    -0.102 C  
HETATM    8  C   UNL     1      -8.308  11.681  68.482  1.00  0.00    -0.140 C  
BRANCH   7   9
HETATM    9  O   UNL     1     -10.481  14.464  67.951  1.00  0.00    -0.235 OA 
BRANCH   9  10
HETATM   10  C   UNL     1     -11.801  14.281  68.183  1.00  0.00    -0.339 C  
HETATM   11  O   UNL     1     -12.705  14.961  67.726  1.00  0.00     0.550 OA 
BRANCH  10  12
HETATM   12  C   UNL     1     -12.013  12.987  68.892  1.00  0.00    -0.303 C  
HETATM   13  C   UNL     1     -12.249  12.834  70.227  1.00  0.00    -0.351 C  
BRANCH  12  14
HETATM   14  C   UNL     1     -11.780  11.769  68.012  1.00  0.00    -0.293 C  
HETATM   15  H1  UNL     1     -11.430   9.942  66.692  1.00  0.00     0.000 HD 
HETATM   16  N   UNL     1     -11.587  10.759  67.282  1.00  0.00    -0.397 NA 
HETATM   17  H2  UNL     1     -10.873  10.674  66.559  1.00  0.00     0.000 HD 
ENDBRANCH  12  14
BRANCH  13  18
HETATM   18  C   UNL     1     -12.518  14.005  71.101  1.00  0.00    -0.447 A  
HETATM   19  C   UNL     1     -11.456  14.719  71.670  1.00  0.00    -0.167 A  
HETATM   20  C   UNL     1     -13.832  14.388  71.405  1.00  0.00    -0.409 A  
HETATM   21  C   UNL     1     -14.080  15.401  72.334  1.00  0.00    -0.645 A  
HETATM   22  C   UNL     1     -13.018  16.070  72.934  1.00  0.00    -0.555 A  
HETATM   23  C   UNL     1     -11.708  15.748  72.581  1.00  0.00    -0.542 A  
ENDBRANCH  13  18
BRANCH  13  24
HETATM   24  C   UNL     1     -12.166  11.474  70.829  1.00  0.00    -0.463 A  
HETATM   25  C   UNL     1     -10.913   9.417  71.180  1.00  0.00    -0.430 A  
HETATM   26  C   UNL     1     -11.007  10.702  70.640  1.00  0.00     0.073 A  
HETATM   27  C   UNL     1     -11.954   8.897  71.942  1.00  0.00    -0.371 A  
HETATM   28  C   UNL     1     -13.114   9.651  72.129  1.00  0.00    -0.520 A  
HETATM   29  C   UNL     1     -13.220  10.937  71.573  1.00  0.00    -0.420 A  
BRANCH  27  30
HETATM   30  O   UNL     1     -11.759   7.620  72.399  1.00  0.00    -0.311 OA 
HETATM   31  C   UNL     1     -10.633   7.419  73.245  1.00  0.00    -0.392 C  
ENDBRANCH  27  30
ENDBRANCH  13  24
ENDBRANCH  10  12
ENDBRANCH   9  10
ENDBRANCH   7   9
ENDBRANCH   3   4
ENDBRANCH   2   3
TORSDOF 9
ENDMDL
MODEL       80
REMARK 921   NORMALIZED FREE ENERGY PREDICTED BY IDOCK:   -4.44 KCAL/MOL
REMARK 922        TOTAL FREE ENERGY PREDICTED BY IDOCK:   -8.85 KCAL/MOL
REMARK 923 INTER-LIGAND FREE ENERGY PREDICTED BY IDOCK:   -7.65 KCAL/MOL
REMARK 924 INTRA-LIGAND FREE ENERGY PREDICTED BY IDOCK:   -1.20 KCAL/MOL
REMARK 927      BINDING AFFINITY PREDICTED BY RF-SCORE:    0.00 PKD
ROOT
HETATM    1  C   UNL     1      -8.220   1.718  67.878  1.00  0.00    -0.070 C  
HETATM    2  C   UNL     1      -9.154   2.919  67.945  1.00  0.00    -0.224 C  
ENDROOT
BRANCH   2   3
HETATM    3  C   UNL     1      -9.518   3.232  69.393  1.00  0.00    -0.203 C  
BRANCH   3   4
HETATM    4  C   UNL     1      -8.760   4.447  69.939  1.00  0.00    -0.111 C  
HETATM    5  C   UNL     1      -9.318   5.777  69.393  1.00  0.00    -0.151 C  
HETATM    6  C   UNL     1     -10.830   5.972  69.668  1.00  0.00    -0.439 C  
HETATM    7  C   UNL     1      -8.471   6.966  69.887  1.00  0.00    -0.140 C  
HETATM    8  C   UNL     1     -11.219   6.022  71.140  1.00  0.00    -0.328 C  
BRANCH   7   9
HETATM    9  O   UNL     1      -9.018   8.167  69.321  1.00  0.00    -0.146 OA 
BRANCH   9  10
HETATM   10  C   UNL     1      -8.949   9.320  70.024  1.00  0.00    -0.198 C  
HETATM   11  O   UNL     1      -8.491   9.443  71.149  1.00  0.00    -0.303 OA 
BRANCH  10  12
HETATM   12  C   UNL     1      -9.298  10.469  69.141  1.00  0.00    -0.200 C  
HETATM   13  C   UNL     1     -10.502  11.110  69.099  1.00  0.00    -0.211 C  
BRANCH  12  14
HETATM   14  C   UNL     1      -8.220  10.800  68.122  1.00  0.00    -0.119 C  
HETATM   15  H1  UNL     1      -6.602  11.298  66.593  1.00  0.00     0.000 HD 
HETATM   16  N   UNL     1      -7.326  11.076  67.276  1.00  0.00    -0.100 NA 
HETATM   17  H2  UNL     1      -6.531  11.697  67.429  1.00  0.00     0.000 HD 
ENDBRANCH  12  14
BRANCH  13  18
HETATM   18  C   UNL     1     -11.559  10.832  70.107  1.00  0.00    -0.424 A  
HETATM   19  C   UNL     1     -12.177  11.888  70.788  1.00  0.00    -0.401 A  
HETATM   20  C   UNL     1     -11.924   9.516  70.421  1.00  0.00    -0.123 A  
HETATM   21  C   UNL     1     -12.816   9.256  71.463  1.00  0.00    -0.427 A  
HETATM   22  C   UNL     1     -13.385  10.310  72.171  1.00  0.00    -0.404 A  
HETATM   23  C   UNL     1     -13.088  11.624  71.815  1.00  0.00    -0.487 A  
ENDBRANCH  13  18
BRANCH  13  24
HETATM   24  C   UNL     1     -10.787  12.052  67.979  1.00  0.00    -0.254 A  
HETATM   25  C   UNL     1     -11.907  12.510  65.868  1.00  0.00    -0.489 A  
HETATM   26  C   UNL     1     -11.639  11.651  66.937  1.00  0.00    -0.246 A  
HETATM   27  C   UNL     1     -11.358  13.788  65.839  1.00  0.00    -0.307 A  
HETATM   28  C   UNL     1     -10.501  14.193  66.865  1.00  0.00    -0.272 A  
HETATM   29  C   UNL     1     -10.215  13.326  67.933  1.00  0.00    -0.233 A  
BRANCH  27  30
HETATM   30  O   UNL     1     -11.671  14.530  64.731  1.00  0.00    -0.382 OA 
HETATM   31  C   UNL     1     -12.181  13.811  63.615  1.00  0.00    -0.256 C  
ENDBRANCH  27  30
ENDBRANCH  13  24
ENDBRANCH  10  12
ENDBRANCH   9  10
ENDBRANCH   7   9
ENDBRANCH   3   4
ENDBRANCH   2   3
TORSDOF 9
ENDMDL
MODEL       81
REMARK 921   NORMALIZED FREE ENERGY PREDICTED BY IDOCK:   -4.42 KCAL/MOL
REMARK 922        TOTAL FREE ENERGY PREDICTED BY IDOCK:   -8.82 KCAL/MOL
REMARK 923 INTER-LIGAND FREE ENERGY PREDICTED BY IDOCK:   -6.79 KCAL/MOL
REMARK 924 INTRA-LIGAND FREE ENERGY PREDICTED BY IDOCK:   -2.03 KCAL/MOL
REMARK 927      BINDING AFFINITY PREDICTED BY RF-SCORE:    0.00 PKD
ROOT
HETATM    1  C   UNL     1     -10.243  17.347  65.792  1.00  0.00    -0.204 C  
HETATM    2  C   UNL     1     -11.105  16.541  64.830  1.00  0.00    -0.199 C  
ENDROOT
BRANCH   2   3
HETATM    3  C   UNL     1     -11.123  15.070  65.235  1.00  0.00    -0.391 C  
BRANCH   3   4
HETATM    4  C   UNL     1     -11.163  14.881  66.755  1.00  0.00    -0.338 C  
HETATM    5  C   UNL     1     -10.713  13.468  67.180  1.00  0.00    -0.282 C  
HETATM    6  C   UNL     1      -9.301  13.090  66.670  1.00  0.00    -0.242 C  
HETATM    7  C   UNL     1     -10.858  13.286  68.703  1.00  0.00    -0.259 C  
HETATM    8  C   UNL     1      -8.169  13.971  67.183  1.00  0.00    -0.146 C  
BRANCH   7   9
HETATM    9  O   UNL     1     -10.458  11.946  69.031  1.00  0.00    -0.172 OA 
BRANCH   9  10
HETATM   10  C   UNL     1     -11.362  10.945  68.937  1.00  0.00    -0.288 C  
HETATM   11  O   UNL     1     -12.393  10.975  68.284  1.00  0.00    -0.479 OA 
BRANCH  10  12
HETATM   12  C   UNL     1     -10.810   9.708  69.559  1.00  0.00    -0.253 C  
HETATM   13  C   UNL     1      -9.961   8.822  68.963  1.00  0.00    -0.197 C  
BRANCH  12  14
HETATM   14  C   UNL     1     -11.410   9.394  70.920  1.00  0.00    -0.319 C  
HETATM   15  H1  UNL     1     -12.310   8.923  72.962  1.00  0.00     0.000 HD 
HETATM   16  N   UNL     1     -11.908   9.134  72.049  1.00  0.00    -0.360 NA 
HETATM   17  H2  UNL     1     -11.907   8.221  72.505  1.00  0.00     0.000 HD 
ENDBRANCH  12  14
BRANCH  13  18
HETATM   18  C   UNL     1      -9.331   9.121  67.650  1.00  0.00    -0.154 A  
HETATM   19  C   UNL     1      -8.004   9.565  67.590  1.00  0.00    -0.106 A  
HETATM   20  C   UNL     1     -10.062   9.006  66.460  1.00  0.00    -0.354 A  
HETATM   21  C   UNL     1      -9.510   9.419  65.245  1.00  0.00    -0.296 A  
HETATM   22  C   UNL     1      -8.209   9.908  65.202  1.00  0.00    -0.144 A  
HETATM   23  C   UNL     1      -7.447   9.954  66.369  1.00  0.00    -0.101 A  
ENDBRANCH  13  18
BRANCH  13  24
HETATM   24  C   UNL     1      -9.718   7.500  69.607  1.00  0.00    -0.167 A  
HETATM   25  C   UNL     1     -10.346   5.166  69.889  1.00  0.00    -0.347 A  
HETATM   26  C   UNL     1     -10.543   6.410  69.285  1.00  0.00    -0.311 A  
HETATM   27  C   UNL     1      -9.307   4.983  70.795  1.00  0.00    -0.154 A  
HETATM   28  C   UNL     1      -8.486   6.061  71.131  1.00  0.00    -0.125 A  
HETATM   29  C   UNL     1      -8.692   7.319  70.539  1.00  0.00    -0.148 A  
BRANCH  27  30
HETATM   30  O   UNL     1      -9.226   3.728  71.341  1.00  0.00    -0.108 OA 
HETATM   31  C   UNL     1      -9.346   2.638  70.435  1.00  0.00    -0.142 C  
ENDBRANCH  27  30
ENDBRANCH  13  24
ENDBRANCH  10  12
ENDBRANCH   9  10
ENDBRANCH   7   9
ENDBRANCH   3   4
ENDBRANCH   2   3
TORSDOF 9
ENDMDL
MODEL       82
REMARK 921   NORMALIZED FREE ENERGY PREDICTED BY IDOCK:   -4.41 KCAL/MOL
REMARK 922        TOTAL FREE ENERGY PREDICTED BY IDOCK:   -8.80 KCAL/MOL
REMARK 923 INTER-LIGAND FREE ENERGY PREDICTED BY IDOCK:   -6.91 KCAL/MOL
REMARK 924 INTRA-LIGAND FREE ENERGY PREDICTED BY IDOCK:   -1.90 KCAL/MOL
REMARK 927      BINDING AFFINITY PREDICTED BY RF-SCORE:    0.00 PKD
ROOT
HETATM    1  C   UNL     1      -8.115  16.839  68.125  1.00  0.00    -0.197 C  
HETATM    2  C   UNL     1      -9.363  17.524  67.586  1.00  0.00    -0.244 C  
ENDROOT
BRANCH   2   3
HETATM    3  C   UNL     1     -10.491  17.462  68.612  1.00  0.00    -0.355 C  
BRANCH   3   4
HETATM    4  C   UNL     1     -11.430  16.274  68.380  1.00  0.00    -0.243 C  
HETATM    5  C   UNL     1     -10.992  15.020  69.165  1.00  0.00    -0.265 C  
HETATM    6  C   UNL     1     -10.864  15.261  70.690  1.00  0.00    -0.278 C  
HETATM    7  C   UNL     1     -11.903  13.824  68.831  1.00  0.00    -0.360 C  
HETATM    8  C   UNL     1     -12.154  15.663  71.393  1.00  0.00    -0.476 C  
BRANCH   7   9
HETATM    9  O   UNL     1     -11.426  12.684  69.563  1.00  0.00    -0.266 OA 
BRANCH   9  10
HETATM   10  C   UNL     1     -11.758  11.442  69.144  1.00  0.00    -0.342 C  
HETATM   11  O   UNL     1     -12.892  10.998  69.060  1.00  0.00    -0.086 OA 
BRANCH  10  12
HETATM   12  C   UNL     1     -10.558  10.765  68.575  1.00  0.00    -0.223 C  
HETATM   13  C   UNL     1     -10.046  10.959  67.326  1.00  0.00    -0.225 C  
BRANCH  12  14
HETATM   14  C   UNL     1     -10.002   9.667  69.468  1.00  0.00    -0.209 C  
HETATM   15  H1  UNL     1      -9.167   8.020  70.807  1.00  0.00     0.000 HD 
HETATM   16  N   UNL     1      -9.540   8.757  70.208  1.00  0.00    -0.170 NA 
HETATM   17  H2  UNL     1      -8.554   8.524  70.324  1.00  0.00     0.000 HD 
ENDBRANCH  12  14
BRANCH  13  18
HETATM   18  C   UNL     1     -10.545  12.050  66.448  1.00  0.00    -0.278 A  
HETATM   19  C   UNL     1      -9.767  13.194  66.234  1.00  0.00    -0.269 A  
HETATM   20  C   UNL     1     -11.813  11.972  65.856  1.00  0.00    -0.232 A  
HETATM   21  C   UNL     1     -12.333  13.056  65.146  1.00  0.00    -0.536 A  
HETATM   22  C   UNL     1     -11.573  14.210  64.983  1.00  0.00    -0.362 A  
HETATM   23  C   UNL     1     -10.281  14.268  65.503  1.00  0.00    -0.379 A  
ENDBRANCH  13  18
BRANCH  13  24
HETATM   24  C   UNL     1      -9.016  10.014  66.807  1.00  0.00    -0.151 A  
HETATM   25  C   UNL     1      -8.474   7.900  65.730  1.00  0.00    -0.152 A  
HETATM   26  C   UNL     1      -9.421   8.810  66.208  1.00  0.00    -0.300 A  
HETATM   27  C   UNL     1      -7.117   8.192  65.811  1.00  0.00    -0.064 A  
HETATM   28  C   UNL     1      -6.702   9.382  66.413  1.00  0.00    -0.075 A  
HETATM   29  C   UNL     1      -7.651  10.292  66.911  1.00  0.00    -0.105 A  
BRANCH  27  30
HETATM   30  O   UNL     1      -6.282   7.216  65.333  1.00  0.00    -0.036 OA 
HETATM   31  C   UNL     1      -5.996   6.141  66.220  1.00  0.00    -0.028 C  
ENDBRANCH  27  30
ENDBRANCH  13  24
ENDBRANCH  10  12
ENDBRANCH   9  10
ENDBRANCH   7   9
ENDBRANCH   3   4
ENDBRANCH   2   3
TORSDOF 9
ENDMDL
MODEL       83
REMARK 921   NORMALIZED FREE ENERGY PREDICTED BY IDOCK:   -4.40 KCAL/MOL
REMARK 922        TOTAL FREE ENERGY PREDICTED BY IDOCK:   -8.79 KCAL/MOL
REMARK 923 INTER-LIGAND FREE ENERGY PREDICTED BY IDOCK:   -8.37 KCAL/MOL
REMARK 924 INTRA-LIGAND FREE ENERGY PREDICTED BY IDOCK:   -0.41 KCAL/MOL
REMARK 927      BINDING AFFINITY PREDICTED BY RF-SCORE:    0.00 PKD
ROOT
HETATM    1  C   UNL     1     -11.235   5.087  72.834  1.00  0.00    -0.344 C  
HETATM    2  C   UNL     1      -9.975   5.373  72.027  1.00  0.00    -0.232 C  
ENDROOT
BRANCH   2   3
HETATM    3  C   UNL     1     -10.067   4.729  70.647  1.00  0.00    -0.288 C  
BRANCH   3   4
HETATM    4  C   UNL     1     -10.064   5.763  69.517  1.00  0.00    -0.278 C  
HETATM    5  C   UNL     1      -8.881   6.746  69.626  1.00  0.00    -0.144 C  
HETATM    6  C   UNL     1      -7.499   6.046  69.663  1.00  0.00    -0.080 C  
HETATM    7  C   UNL     1      -8.966   7.825  68.531  1.00  0.00    -0.133 C  
HETATM    8  C   UNL     1      -7.150   5.237  68.420  1.00  0.00    -0.062 C  
BRANCH   7   9
HETATM    9  O   UNL     1      -7.861   8.725  68.706  1.00  0.00    -0.098 OA 
BRANCH   9  10
HETATM   10  C   UNL     1      -8.003   9.797  69.518  1.00  0.00    -0.137 C  
HETATM   11  O   UNL     1      -7.424   9.971  70.578  1.00  0.00    -0.269 OA 
BRANCH  10  12
HETATM   12  C   UNL     1      -8.797  10.851  68.824  1.00  0.00    -0.162 C  
HETATM   13  C   UNL     1     -10.127  11.100  69.002  1.00  0.00    -0.173 C  
BRANCH  12  14
HETATM   14  C   UNL     1      -8.025  11.569  67.729  1.00  0.00    -0.128 C  
HETATM   15  H1  UNL     1      -6.866  12.646  66.086  1.00  0.00     0.000 HD 
HETATM   16  N   UNL     1      -7.385  12.165  66.821  1.00  0.00    -0.378 NA 
HETATM   17  H2  UNL     1      -6.895  13.054  66.921  1.00  0.00     0.000 HD 
ENDBRANCH  12  14
BRANCH  13  18
HETATM   18  C   UNL     1     -10.896  10.441  70.090  1.00  0.00    -0.333 A  
HETATM   19  C   UNL     1     -10.247   9.599  71.002  1.00  0.00    -0.252 A  
HETATM   20  C   UNL     1     -12.282  10.616  70.197  1.00  0.00    -0.398 A  
HETATM   21  C   UNL     1     -13.020   9.889  71.134  1.00  0.00    -0.456 A  
HETATM   22  C   UNL     1     -12.373   9.014  72.001  1.00  0.00    -0.455 A  
HETATM   23  C   UNL     1     -10.986   8.891  71.954  1.00  0.00    -0.439 A  
ENDBRANCH  13  18
BRANCH  13  24
HETATM   24  C   UNL     1     -10.835  11.995  68.044  1.00  0.00    -0.254 A  
HETATM   25  C   UNL     1     -11.807  12.345  65.841  1.00  0.00    -0.467 A  
HETATM   26  C   UNL     1     -11.159  11.519  66.763  1.00  0.00    -0.361 A  
HETATM   27  C   UNL     1     -12.168  13.641  66.192  1.00  0.00    -0.444 A  
HETATM   28  C   UNL     1     -11.842  14.129  67.459  1.00  0.00    -0.437 A  
HETATM   29  C   UNL     1     -11.174  13.307  68.383  1.00  0.00    -0.314 A  
BRANCH  27  30
HETATM   30  O   UNL     1     -12.775  14.365  65.199  1.00  0.00    -0.549 OA 
HETATM   31  C   UNL     1     -11.915  15.109  64.345  1.00  0.00    -0.310 C  
ENDBRANCH  27  30
ENDBRANCH  13  24
ENDBRANCH  10  12
ENDBRANCH   9  10
ENDBRANCH   7   9
ENDBRANCH   3   4
ENDBRANCH   2   3
TORSDOF 9
ENDMDL
MODEL       84
REMARK 921   NORMALIZED FREE ENERGY PREDICTED BY IDOCK:   -4.37 KCAL/MOL
REMARK 922        TOTAL FREE ENERGY PREDICTED BY IDOCK:   -8.74 KCAL/MOL
REMARK 923 INTER-LIGAND FREE ENERGY PREDICTED BY IDOCK:   -7.56 KCAL/MOL
REMARK 924 INTRA-LIGAND FREE ENERGY PREDICTED BY IDOCK:   -1.18 KCAL/MOL
REMARK 927      BINDING AFFINITY PREDICTED BY RF-SCORE:    0.00 PKD
ROOT
HETATM    1  C   UNL     1      -7.927  16.938  66.257  1.00  0.00    -0.350 C  
HETATM    2  C   UNL     1      -9.282  17.535  66.614  1.00  0.00    -0.277 C  
ENDROOT
BRANCH   2   3
HETATM    3  C   UNL     1     -10.406  16.734  65.963  1.00  0.00    -0.346 C  
BRANCH   3   4
HETATM    4  C   UNL     1      -9.947  15.347  65.503  1.00  0.00    -0.379 C  
HETATM    5  C   UNL     1     -10.359  14.236  66.490  1.00  0.00    -0.278 C  
HETATM    6  C   UNL     1     -11.883  14.188  66.765  1.00  0.00    -0.449 C  
HETATM    7  C   UNL     1      -9.797  12.873  66.043  1.00  0.00    -0.255 C  
HETATM    8  C   UNL     1     -12.750  13.894  65.548  1.00  0.00    -0.536 C  
BRANCH   7   9
HETATM    9  O   UNL     1     -10.185  11.891  67.017  1.00  0.00    -0.207 OA 
BRANCH   9  10
HETATM   10  C   UNL     1      -9.249  11.054  67.519  1.00  0.00    -0.145 C  
HETATM   11  O   UNL     1      -8.418  11.339  68.366  1.00  0.00    -0.141 OA 
BRANCH  10  12
HETATM   12  C   UNL     1      -9.523   9.662  67.062  1.00  0.00    -0.195 C  
HETATM   13  C   UNL     1      -9.740   8.582  67.867  1.00  0.00    -0.193 C  
BRANCH  12  14
HETATM   14  C   UNL     1      -9.381   9.478  65.559  1.00  0.00    -0.255 C  
HETATM   15  H1  UNL     1      -9.169   9.203  63.305  1.00  0.00     0.000 HD 
HETATM   16  N   UNL     1      -9.264   9.326  64.313  1.00  0.00    -0.425 NA 
HETATM   17  H2  UNL     1      -8.772   8.562  63.849  1.00  0.00     0.000 HD 
ENDBRANCH  12  14
BRANCH  13  18
HETATM   18  C   UNL     1      -9.920   8.738  69.334  1.00  0.00    -0.196 A  
HETATM   19  C   UNL     1      -8.910   8.335  70.216  1.00  0.00    -0.141 A  
HETATM   20  C   UNL     1     -11.115   9.249  69.860  1.00  0.00    -0.200 A  
HETATM   21  C   UNL     1     -11.333   9.266  71.239  1.00  0.00    -0.423 A  
HETATM   22  C   UNL     1     -10.343   8.814  72.106  1.00  0.00    -0.378 A  
HETATM   23  C   UNL     1      -9.123   8.376  71.596  1.00  0.00    -0.268 A  
ENDBRANCH  13  18
BRANCH  13  24
HETATM   24  C   UNL     1      -9.724   7.215  67.273  1.00  0.00    -0.198 A  
HETATM   25  C   UNL     1      -8.457   5.338  66.384  1.00  0.00    -0.113 A  
HETATM   26  C   UNL     1      -8.496   6.611  66.959  1.00  0.00    -0.113 A  
HETATM   27  C   UNL     1      -9.635   4.638  66.146  1.00  0.00    -0.184 A  
HETATM   28  C   UNL     1     -10.862   5.233  66.445  1.00  0.00    -0.198 A  
HETATM   29  C   UNL     1     -10.907   6.521  67.006  1.00  0.00    -0.465 A  
BRANCH  27  30
HETATM   30  O   UNL     1      -9.474   3.411  65.557  1.00  0.00    -0.160 OA 
HETATM   31  C   UNL     1      -8.223   3.177  64.920  1.00  0.00    -0.090 C  
ENDBRANCH  27  30
ENDBRANCH  13  24
ENDBRANCH  10  12
ENDBRANCH   9  10
ENDBRANCH   7   9
ENDBRANCH   3   4
ENDBRANCH   2   3
TORSDOF 9
ENDMDL
MODEL       85
REMARK 921   NORMALIZED FREE ENERGY PREDICTED BY IDOCK:   -4.36 KCAL/MOL
REMARK 922        TOTAL FREE ENERGY PREDICTED BY IDOCK:   -8.73 KCAL/MOL
REMARK 923 INTER-LIGAND FREE ENERGY PREDICTED BY IDOCK:   -6.34 KCAL/MOL
REMARK 924 INTRA-LIGAND FREE ENERGY PREDICTED BY IDOCK:   -2.38 KCAL/MOL
REMARK 927      BINDING AFFINITY PREDICTED BY RF-SCORE:    0.00 PKD
ROOT
HETATM    1  C   UNL     1     -11.787  13.581  64.204  1.00  0.00    -0.483 C  
HETATM    2  C   UNL     1     -12.681  13.877  65.401  1.00  0.00    -0.525 C  
ENDROOT
BRANCH   2   3
HETATM    3  C   UNL     1     -11.858  14.437  66.557  1.00  0.00    -0.406 C  
BRANCH   3   4
HETATM    4  C   UNL     1     -11.964  13.579  67.821  1.00  0.00    -0.369 C  
HETATM    5  C   UNL     1     -11.432  12.148  67.603  1.00  0.00    -0.399 C  
HETATM    6  C   UNL     1      -9.969  12.104  67.095  1.00  0.00    -0.210 C  
HETATM    7  C   UNL     1     -11.643  11.290  68.866  1.00  0.00    -0.319 C  
HETATM    8  C   UNL     1      -8.937  12.706  68.040  1.00  0.00    -0.200 C  
BRANCH   7   9
HETATM    9  O   UNL     1     -11.160   9.966  68.589  1.00  0.00    -0.209 OA 
BRANCH   9  10
HETATM   10  C   UNL     1     -10.170   9.451  69.352  1.00  0.00    -0.207 C  
HETATM   11  O   UNL     1      -9.713   9.958  70.364  1.00  0.00    -0.234 OA 
BRANCH  10  12
HETATM   12  C   UNL     1      -9.869   8.059  68.914  1.00  0.00    -0.176 C  
HETATM   13  C   UNL     1      -9.104   7.704  67.842  1.00  0.00    -0.134 C  
BRANCH  12  14
HETATM   14  C   UNL     1     -10.641   7.000  69.686  1.00  0.00    -0.234 C  
HETATM   15  H1  UNL     1     -11.798   5.412  70.843  1.00  0.00     0.000 HD 
HETATM   16  N   UNL     1     -11.281   6.122  70.326  1.00  0.00    -0.367 NA 
HETATM   17  H2  UNL     1     -11.537   5.198  69.977  1.00  0.00     0.000 HD 
ENDBRANCH  12  14
BRANCH  13  18
HETATM   18  C   UNL     1      -8.309   8.713  67.093  1.00  0.00    -0.107 A  
HETATM   19  C   UNL     1      -8.620   9.008  65.760  1.00  0.00    -0.180 A  
HETATM   20  C   UNL     1      -7.215   9.354  67.693  1.00  0.00    -0.083 A  
HETATM   21  C   UNL     1      -6.390  10.197  66.945  1.00  0.00    -0.069 A  
HETATM   22  C   UNL     1      -6.676  10.442  65.606  1.00  0.00    -0.127 A  
HETATM   23  C   UNL     1      -7.805   9.871  65.022  1.00  0.00    -0.131 A  
ENDBRANCH  13  18
BRANCH  13  24
HETATM   24  C   UNL     1      -9.122   6.290  67.370  1.00  0.00    -0.111 A  
HETATM   25  C   UNL     1     -10.229   4.517  66.124  1.00  0.00    -0.283 A  
HETATM   26  C   UNL     1     -10.181   5.843  66.564  1.00  0.00    -0.217 A  
HETATM   27  C   UNL     1      -9.209   3.631  66.453  1.00  0.00    -0.167 A  
HETATM   28  C   UNL     1      -8.155   4.062  67.262  1.00  0.00    -0.095 A  
HETATM   29  C   UNL     1      -8.113   5.390  67.721  1.00  0.00    -0.100 A  
BRANCH  27  30
HETATM   30  O   UNL     1      -9.376   2.353  65.987  1.00  0.00    -0.066 OA 
HETATM   31  C   UNL     1      -9.175   2.160  64.592  1.00  0.00    -0.133 C  
ENDBRANCH  27  30
ENDBRANCH  13  24
ENDBRANCH  10  12
ENDBRANCH   9  10
ENDBRANCH   7   9
ENDBRANCH   3   4
ENDBRANCH   2   3
TORSDOF 9
ENDMDL
MODEL       86
REMARK 921   NORMALIZED FREE ENERGY PREDICTED BY IDOCK:   -4.36 KCAL/MOL
REMARK 922        TOTAL FREE ENERGY PREDICTED BY IDOCK:   -8.73 KCAL/MOL
REMARK 923 INTER-LIGAND FREE ENERGY PREDICTED BY IDOCK:   -7.11 KCAL/MOL
REMARK 924 INTRA-LIGAND FREE ENERGY PREDICTED BY IDOCK:   -1.61 KCAL/MOL
REMARK 927      BINDING AFFINITY PREDICTED BY RF-SCORE:    0.00 PKD
ROOT
HETATM    1  C   UNL     1      -7.441   5.257  63.991  1.00  0.00    -0.059 C  
HETATM    2  C   UNL     1      -8.243   6.268  63.184  1.00  0.00     0.002 C  
ENDROOT
BRANCH   2   3
HETATM    3  C   UNL     1      -7.338   7.389  62.681  1.00  0.00    -0.093 C  
BRANCH   3   4
HETATM    4  C   UNL     1      -8.041   8.750  62.673  1.00  0.00    -0.171 C  
HETATM    5  C   UNL     1      -8.254   9.307  64.096  1.00  0.00    -0.159 C  
HETATM    6  C   UNL     1      -6.943   9.430  64.913  1.00  0.00    -0.097 C  
HETATM    7  C   UNL     1      -9.046  10.628  64.051  1.00  0.00    -0.224 C  
HETATM    8  C   UNL     1      -5.905  10.381  64.332  1.00  0.00    -0.123 C  
BRANCH   7   9
HETATM    9  O   UNL     1      -9.240  11.076  65.401  1.00  0.00    -0.203 OA 
BRANCH   9  10
HETATM   10  C   UNL     1     -10.495  11.318  65.844  1.00  0.00    -0.259 C  
HETATM   11  O   UNL     1     -11.393  11.829  65.194  1.00  0.00    -0.293 OA 
BRANCH  10  12
HETATM   12  C   UNL     1     -10.698  10.662  67.166  1.00  0.00    -0.327 C  
HETATM   13  C   UNL     1     -10.683  11.284  68.380  1.00  0.00    -0.238 C  
BRANCH  12  14
HETATM   14  C   UNL     1     -10.769   9.146  67.086  1.00  0.00    -0.143 C  
HETATM   15  H1  UNL     1     -10.876   6.870  66.966  1.00  0.00     0.000 HD 
HETATM   16  N   UNL     1     -10.828   7.888  67.020  1.00  0.00    -0.457 NA 
HETATM   17  H2  UNL     1     -10.372   7.234  67.657  1.00  0.00     0.000 HD 
ENDBRANCH  12  14
BRANCH  13  18
HETATM   18  C   UNL     1     -10.653  12.767  68.486  1.00  0.00    -0.270 A  
HETATM   19  C   UNL     1      -9.429  13.447  68.515  1.00  0.00    -0.121 A  
HETATM   20  C   UNL     1     -11.840  13.503  68.601  1.00  0.00    -0.404 A  
HETATM   21  C   UNL     1     -11.802  14.879  68.838  1.00  0.00    -0.334 A  
HETATM   22  C   UNL     1     -10.580  15.538  68.918  1.00  0.00    -0.240 A  
HETATM   23  C   UNL     1      -9.396  14.827  68.729  1.00  0.00    -0.198 A  
ENDBRANCH  13  18
BRANCH  13  24
HETATM   24  C   UNL     1     -10.625  10.460  69.621  1.00  0.00    -0.289 A  
HETATM   25  C   UNL     1      -9.349   9.036  71.125  1.00  0.00    -0.336 A  
HETATM   26  C   UNL     1      -9.422   9.828  69.977  1.00  0.00    -0.278 A  
HETATM   27  C   UNL     1     -10.459   8.890  71.950  1.00  0.00    -0.345 A  
HETATM   28  C   UNL     1     -11.663   9.505  71.601  1.00  0.00    -0.460 A  
HETATM   29  C   UNL     1     -11.746  10.288  70.437  1.00  0.00    -0.404 A  
BRANCH  27  30
HETATM   30  O   UNL     1     -10.275   8.071  73.033  1.00  0.00    -0.315 OA 
HETATM   31  C   UNL     1     -10.851   6.773  72.947  1.00  0.00    -0.272 C  
ENDBRANCH  27  30
ENDBRANCH  13  24
ENDBRANCH  10  12
ENDBRANCH   9  10
ENDBRANCH   7   9
ENDBRANCH   3   4
ENDBRANCH   2   3
TORSDOF 9
ENDMDL
MODEL       87
REMARK 921   NORMALIZED FREE ENERGY PREDICTED BY IDOCK:   -4.34 KCAL/MOL
REMARK 922        TOTAL FREE ENERGY PREDICTED BY IDOCK:   -8.70 KCAL/MOL
REMARK 923 INTER-LIGAND FREE ENERGY PREDICTED BY IDOCK:   -7.61 KCAL/MOL
REMARK 924 INTRA-LIGAND FREE ENERGY PREDICTED BY IDOCK:   -1.09 KCAL/MOL
REMARK 927      BINDING AFFINITY PREDICTED BY RF-SCORE:    0.00 PKD
ROOT
HETATM    1  C   UNL     1     -10.871  15.102  65.142  1.00  0.00    -0.437 C  
HETATM    2  C   UNL     1     -12.062  14.385  64.522  1.00  0.00    -0.498 C  
ENDROOT
BRANCH   2   3
HETATM    3  C   UNL     1     -11.988  12.887  64.802  1.00  0.00    -0.445 C  
BRANCH   3   4
HETATM    4  C   UNL     1     -12.007  12.570  66.301  1.00  0.00    -0.410 C  
HETATM    5  C   UNL     1     -11.325  11.224  66.622  1.00  0.00    -0.154 C  
HETATM    6  C   UNL     1      -9.864  11.135  66.114  1.00  0.00    -0.265 C  
HETATM    7  C   UNL     1     -11.449  10.895  68.122  1.00  0.00    -0.295 C  
HETATM    8  C   UNL     1      -8.905  12.151  66.721  1.00  0.00    -0.198 C  
BRANCH   7   9
HETATM    9  O   UNL     1     -10.828   9.620  68.350  1.00  0.00    -0.219 OA 
BRANCH   9  10
HETATM   10  C   UNL     1      -9.820   9.528  69.247  1.00  0.00    -0.181 C  
HETATM   11  O   UNL     1      -9.280  10.465  69.813  1.00  0.00    -0.135 OA 
BRANCH  10  12
HETATM   12  C   UNL     1      -9.613   8.101  69.625  1.00  0.00    -0.168 C  
HETATM   13  C   UNL     1     -10.391   7.378  70.481  1.00  0.00    -0.220 C  
BRANCH  12  14
HETATM   14  C   UNL     1      -8.316   7.514  69.092  1.00  0.00    -0.135 C  
HETATM   15  H1  UNL     1      -6.370   6.635  68.290  1.00  0.00     0.000 HD 
HETATM   16  N   UNL     1      -7.240   7.028  68.648  1.00  0.00    -0.092 NA 
HETATM   17  H2  UNL     1      -6.805   7.258  67.755  1.00  0.00     0.000 HD 
ENDBRANCH  12  14
BRANCH  13  18
HETATM   18  C   UNL     1     -11.683   7.912  70.987  1.00  0.00    -0.293 A  
HETATM   19  C   UNL     1     -11.728   9.155  71.629  1.00  0.00    -0.448 A  
HETATM   20  C   UNL     1     -12.864   7.167  70.868  1.00  0.00    -0.180 A  
HETATM   21  C   UNL     1     -14.046   7.610  71.465  1.00  0.00    -0.535 A  
HETATM   22  C   UNL     1     -14.069   8.823  72.147  1.00  0.00    -0.519 A  
HETATM   23  C   UNL     1     -12.919   9.607  72.204  1.00  0.00    -0.493 A  
ENDBRANCH  13  18
BRANCH  13  24
HETATM   24  C   UNL     1      -9.903   6.058  70.971  1.00  0.00    -0.220 A  
HETATM   25  C   UNL     1      -8.728   4.762  72.662  1.00  0.00    -0.116 A  
HETATM   26  C   UNL     1      -9.211   5.985  72.191  1.00  0.00    -0.148 A  
HETATM   27  C   UNL     1      -8.955   3.593  71.944  1.00  0.00    -0.105 A  
HETATM   28  C   UNL     1      -9.633   3.654  70.725  1.00  0.00    -0.249 A  
HETATM   29  C   UNL     1     -10.105   4.885  70.238  1.00  0.00    -0.322 A  
BRANCH  27  30
HETATM   30  O   UNL     1      -8.414   2.459  72.491  1.00  0.00    -0.061 OA 
HETATM   31  C   UNL     1      -9.310   1.615  73.204  1.00  0.00    -0.069 C  
ENDBRANCH  27  30
ENDBRANCH  13  24
ENDBRANCH  10  12
ENDBRANCH   9  10
ENDBRANCH   7   9
ENDBRANCH   3   4
ENDBRANCH   2   3
TORSDOF 9
ENDMDL
MODEL       88
REMARK 921   NORMALIZED FREE ENERGY PREDICTED BY IDOCK:   -4.33 KCAL/MOL
REMARK 922        TOTAL FREE ENERGY PREDICTED BY IDOCK:   -8.68 KCAL/MOL
REMARK 923 INTER-LIGAND FREE ENERGY PREDICTED BY IDOCK:   -6.92 KCAL/MOL
REMARK 924 INTRA-LIGAND FREE ENERGY PREDICTED BY IDOCK:   -1.76 KCAL/MOL
REMARK 927      BINDING AFFINITY PREDICTED BY RF-SCORE:    0.00 PKD
ROOT
HETATM    1  C   UNL     1     -10.010   3.553  72.236  1.00  0.00    -0.236 C  
HETATM    2  C   UNL     1     -10.820   4.159  73.374  1.00  0.00    -0.331 C  
ENDROOT
BRANCH   2   3
HETATM    3  C   UNL     1     -11.575   5.394  72.893  1.00  0.00    -0.296 C  
BRANCH   3   4
HETATM    4  C   UNL     1     -10.802   6.691  73.151  1.00  0.00    -0.298 C  
HETATM    5  C   UNL     1     -10.665   7.554  71.880  1.00  0.00    -0.253 C  
HETATM    6  C   UNL     1     -12.024   7.908  71.225  1.00  0.00    -0.321 C  
HETATM    7  C   UNL     1      -9.802   8.799  72.157  1.00  0.00    -0.277 C  
HETATM    8  C   UNL     1     -12.964   8.735  72.092  1.00  0.00    -0.457 C  
BRANCH   7   9
HETATM    9  O   UNL     1      -9.684   9.540  70.932  1.00  0.00    -0.259 OA 
BRANCH   9  10
HETATM   10  C   UNL     1      -8.524   9.492  70.240  1.00  0.00    -0.207 C  
HETATM   11  O   UNL     1      -7.507  10.110  70.511  1.00  0.00    -0.281 OA 
BRANCH  10  12
HETATM   12  C   UNL     1      -8.585   8.399  69.228  1.00  0.00    -0.130 C  
HETATM   13  C   UNL     1      -9.185   8.472  68.005  1.00  0.00    -0.143 C  
BRANCH  12  14
HETATM   14  C   UNL     1      -8.045   7.072  69.736  1.00  0.00    -0.126 C  
HETATM   15  H1  UNL     1      -7.234   5.081  70.498  1.00  0.00     0.000 HD 
HETATM   16  N   UNL     1      -7.596   5.971  70.157  1.00  0.00    -0.092 NA 
HETATM   17  H2  UNL     1      -7.904   5.047  69.855  1.00  0.00     0.000 HD 
ENDBRANCH  12  14
BRANCH  13  18
HETATM   18  C   UNL     1      -9.687   9.764  67.468  1.00  0.00    -0.192 A  
HETATM   19  C   UNL     1     -10.953  10.237  67.838  1.00  0.00    -0.350 A  
HETATM   20  C   UNL     1      -8.926  10.508  66.556  1.00  0.00    -0.171 A  
HETATM   21  C   UNL     1      -9.457  11.648  65.951  1.00  0.00    -0.246 A  
HETATM   22  C   UNL     1     -10.737  12.081  66.284  1.00  0.00    -0.302 A  
HETATM   23  C   UNL     1     -11.472  11.392  67.247  1.00  0.00    -0.301 A  
ENDBRANCH  13  18
BRANCH  13  24
HETATM   24  C   UNL     1      -9.403   7.221  67.225  1.00  0.00    -0.156 A  
HETATM   25  C   UNL     1      -8.574   5.586  65.625  1.00  0.00    -0.148 A  
HETATM   26  C   UNL     1      -8.386   6.746  66.380  1.00  0.00    -0.121 A  
HETATM   27  C   UNL     1      -9.760   4.866  65.726  1.00  0.00    -0.169 A  
HETATM   28  C   UNL     1     -10.781   5.334  66.556  1.00  0.00    -0.290 A  
HETATM   29  C   UNL     1     -10.604   6.511  67.303  1.00  0.00    -0.383 A  
BRANCH  27  30
HETATM   30  O   UNL     1      -9.839   3.760  64.921  1.00  0.00    -0.175 OA 
HETATM   31  C   UNL     1     -10.626   3.893  63.743  1.00  0.00    -0.205 C  
ENDBRANCH  27  30
ENDBRANCH  13  24
ENDBRANCH  10  12
ENDBRANCH   9  10
ENDBRANCH   7   9
ENDBRANCH   3   4
ENDBRANCH   2   3
TORSDOF 9
ENDMDL
MODEL       89
REMARK 921   NORMALIZED FREE ENERGY PREDICTED BY IDOCK:   -4.33 KCAL/MOL
REMARK 922        TOTAL FREE ENERGY PREDICTED BY IDOCK:   -8.68 KCAL/MOL
REMARK 923 INTER-LIGAND FREE ENERGY PREDICTED BY IDOCK:   -7.27 KCAL/MOL
REMARK 924 INTRA-LIGAND FREE ENERGY PREDICTED BY IDOCK:   -1.40 KCAL/MOL
REMARK 927      BINDING AFFINITY PREDICTED BY RF-SCORE:    0.00 PKD
ROOT
HETATM    1  C   UNL     1     -14.351  13.761  72.176  1.00  0.00    -0.465 C  
HETATM    2  C   UNL     1     -13.015  14.081  72.831  1.00  0.00    -0.437 C  
ENDROOT
BRANCH   2   3
HETATM    3  C   UNL     1     -12.517  15.452  72.386  1.00  0.00    -0.463 C  
BRANCH   3   4
HETATM    4  C   UNL     1     -12.817  15.735  70.911  1.00  0.00    -0.387 C  
HETATM    5  C   UNL     1     -11.561  15.610  70.024  1.00  0.00    -0.360 C  
HETATM    6  C   UNL     1     -10.863  14.232  70.133  1.00  0.00     0.185 C  
HETATM    7  C   UNL     1     -11.883  15.995  68.567  1.00  0.00    -0.120 C  
HETATM    8  C   UNL     1     -11.705  13.043  69.691  1.00  0.00    -0.364 C  
BRANCH   7   9
HETATM    9  O   UNL     1     -10.671  15.892  67.803  1.00  0.00    -0.304 OA 
BRANCH   9  10
HETATM   10  C   UNL     1     -10.732  15.459  66.523  1.00  0.00    -0.308 C  
HETATM   11  O   UNL     1     -10.666  16.163  65.529  1.00  0.00    -0.366 OA 
BRANCH  10  12
HETATM   12  C   UNL     1     -10.660  13.971  66.491  1.00  0.00    -0.279 C  
HETATM   13  C   UNL     1      -9.582  13.213  66.846  1.00  0.00    -0.248 C  
BRANCH  12  14
HETATM   14  C   UNL     1     -11.875  13.318  65.853  1.00  0.00    -0.393 C  
HETATM   15  H1  UNL     1     -13.700  12.340  64.894  1.00  0.00     0.000 HD 
HETATM   16  N   UNL     1     -12.884  12.777  65.323  1.00  0.00    -0.699 NA 
HETATM   17  H2  UNL     1     -13.809  13.198  65.234  1.00  0.00     0.000 HD 
ENDBRANCH  12  14
BRANCH  13  18
HETATM   18  C   UNL     1      -8.397  13.820  67.507  1.00  0.00    -0.197 A  
HETATM   19  C   UNL     1      -7.806  14.973  66.975  1.00  0.00    -0.164 A  
HETATM   20  C   UNL     1      -7.828  13.230  68.645  1.00  0.00    -0.063 A  
HETATM   21  C   UNL     1      -6.637  13.724  69.180  1.00  0.00    -0.112 A  
HETATM   22  C   UNL     1      -6.028  14.838  68.612  1.00  0.00    -0.089 A  
HETATM   23  C   UNL     1      -6.627  15.478  67.528  1.00  0.00    -0.206 A  
ENDBRANCH  13  18
BRANCH  13  24
HETATM   24  C   UNL     1      -9.565  11.764  66.501  1.00  0.00    -0.225 A  
HETATM   25  C   UNL     1      -9.922   9.452  67.171  1.00  0.00    -0.263 A  
HETATM   26  C   UNL     1      -9.947  10.817  67.466  1.00  0.00    -0.203 A  
HETATM   27  C   UNL     1      -9.549   9.013  65.905  1.00  0.00    -0.247 A  
HETATM   28  C   UNL     1      -9.159   9.944  64.940  1.00  0.00    -0.271 A  
HETATM   29  C   UNL     1      -9.165  11.318  65.238  1.00  0.00    -0.191 A  
BRANCH  27  30
HETATM   30  O   UNL     1      -9.539   7.653  65.740  1.00  0.00     0.101 OA 
HETATM   31  C   UNL     1      -9.057   6.889  66.839  1.00  0.00    -0.139 C  
ENDBRANCH  27  30
ENDBRANCH  13  24
ENDBRANCH  10  12
ENDBRANCH   9  10
ENDBRANCH   7   9
ENDBRANCH   3   4
ENDBRANCH   2   3
TORSDOF 9
ENDMDL
MODEL       90
REMARK 921   NORMALIZED FREE ENERGY PREDICTED BY IDOCK:   -4.33 KCAL/MOL
REMARK 922        TOTAL FREE ENERGY PREDICTED BY IDOCK:   -8.68 KCAL/MOL
REMARK 923 INTER-LIGAND FREE ENERGY PREDICTED BY IDOCK:   -6.87 KCAL/MOL
REMARK 924 INTRA-LIGAND FREE ENERGY PREDICTED BY IDOCK:   -1.81 KCAL/MOL
REMARK 927      BINDING AFFINITY PREDICTED BY RF-SCORE:    0.00 PKD
ROOT
HETATM    1  C   UNL     1     -12.774  11.859  63.591  1.00  0.00    -0.509 C  
HETATM    2  C   UNL     1     -11.612  12.842  63.537  1.00  0.00    -0.565 C  
ENDROOT
BRANCH   2   3
HETATM    3  C   UNL     1     -10.297  12.131  63.844  1.00  0.00    -0.441 C  
BRANCH   3   4
HETATM    4  C   UNL     1     -10.505  10.814  64.599  1.00  0.00    -0.346 C  
HETATM    5  C   UNL     1      -9.824  10.820  65.983  1.00  0.00    -0.285 C  
HETATM    6  C   UNL     1     -10.281  11.990  66.890  1.00  0.00    -0.230 C  
HETATM    7  C   UNL     1      -9.973   9.449  66.669  1.00  0.00    -0.258 C  
HETATM    8  C   UNL     1     -11.762  11.994  67.245  1.00  0.00    -0.339 C  
BRANCH   7   9
HETATM    9  O   UNL     1      -9.293   9.507  67.932  1.00  0.00    -0.132 OA 
BRANCH   9  10
HETATM   10  C   UNL     1      -8.207   8.728  68.134  1.00  0.00    -0.114 C  
HETATM   11  O   UNL     1      -7.117   8.872  67.604  1.00  0.00    -0.074 OA 
BRANCH  10  12
HETATM   12  C   UNL     1      -8.457   7.802  69.276  1.00  0.00    -0.138 C  
HETATM   13  C   UNL     1      -9.011   6.558  69.192  1.00  0.00    -0.130 C  
BRANCH  12  14
HETATM   14  C   UNL     1      -8.186   8.429  70.634  1.00  0.00    -0.116 C  
HETATM   15  H1  UNL     1      -7.781   9.368  72.673  1.00  0.00     0.000 HD 
HETATM   16  N   UNL     1      -7.962   8.948  71.761  1.00  0.00    -0.340 NA 
HETATM   17  H2  UNL     1      -8.645   9.068  72.509  1.00  0.00     0.000 HD 
ENDBRANCH  12  14
BRANCH  13  18
HETATM   18  C   UNL     1      -9.250   5.907  67.877  1.00  0.00    -0.108 A  
HETATM   19  C   UNL     1     -10.537   5.884  67.326  1.00  0.00    -0.365 A  
HETATM   20  C   UNL     1      -8.206   5.273  67.190  1.00  0.00    -0.108 A  
HETATM   21  C   UNL     1      -8.461   4.547  66.025  1.00  0.00    -0.114 A  
HETATM   22  C   UNL     1      -9.753   4.484  65.513  1.00  0.00    -0.204 A  
HETATM   23  C   UNL     1     -10.784   5.175  66.147  1.00  0.00    -0.247 A  
ENDBRANCH  13  18
BRANCH  13  24
HETATM   24  C   UNL     1      -9.449   5.871  70.440  1.00  0.00    -0.192 A  
HETATM   25  C   UNL     1     -11.089   5.615  72.219  1.00  0.00    -0.318 A  
HETATM   26  C   UNL     1     -10.666   6.233  71.039  1.00  0.00    -0.313 A  
HETATM   27  C   UNL     1     -10.324   4.609  72.798  1.00  0.00    -0.189 A  
HETATM   28  C   UNL     1      -9.107   4.247  72.216  1.00  0.00    -0.146 A  
HETATM   29  C   UNL     1      -8.669   4.878  71.040  1.00  0.00    -0.143 A  
BRANCH  27  30
HETATM   30  O   UNL     1     -10.826   4.094  73.964  1.00  0.00    -0.238 OA 
HETATM   31  C   UNL     1     -10.641   2.698  74.168  1.00  0.00    -0.168 C  
ENDBRANCH  27  30
ENDBRANCH  13  24
ENDBRANCH  10  12
ENDBRANCH   9  10
ENDBRANCH   7   9
ENDBRANCH   3   4
ENDBRANCH   2   3
TORSDOF 9
ENDMDL
MODEL       91
REMARK 921   NORMALIZED FREE ENERGY PREDICTED BY IDOCK:   -4.33 KCAL/MOL
REMARK 922        TOTAL FREE ENERGY PREDICTED BY IDOCK:   -8.68 KCAL/MOL
REMARK 923 INTER-LIGAND FREE ENERGY PREDICTED BY IDOCK:   -7.90 KCAL/MOL
REMARK 924 INTRA-LIGAND FREE ENERGY PREDICTED BY IDOCK:   -0.77 KCAL/MOL
REMARK 927      BINDING AFFINITY PREDICTED BY RF-SCORE:    0.00 PKD
ROOT
HETATM    1  C   UNL     1      -9.014  20.523  67.325  1.00  0.00    -0.431 C  
HETATM    2  C   UNL     1     -10.304  19.718  67.403  1.00  0.00    -0.582 C  
ENDROOT
BRANCH   2   3
HETATM    3  C   UNL     1     -10.060  18.383  68.099  1.00  0.00    -0.408 C  
BRANCH   3   4
HETATM    4  C   UNL     1     -10.807  17.227  67.428  1.00  0.00    -0.167 C  
HETATM    5  C   UNL     1     -10.344  15.850  67.949  1.00  0.00    -0.269 C  
HETATM    6  C   UNL     1     -10.469  15.698  69.485  1.00  0.00    -0.270 C  
HETATM    7  C   UNL     1     -11.048  14.713  67.184  1.00  0.00    -0.326 C  
HETATM    8  C   UNL     1     -11.887  15.804  70.033  1.00  0.00    -0.365 C  
BRANCH   7   9
HETATM    9  O   UNL     1     -10.552  13.464  67.688  1.00  0.00    -0.239 OA 
BRANCH   9  10
HETATM   10  C   UNL     1     -11.191  12.318  67.361  1.00  0.00    -0.301 C  
HETATM   11  O   UNL     1     -12.215  12.237  66.703  1.00  0.00    -0.574 OA 
BRANCH  10  12
HETATM   12  C   UNL     1     -10.341  11.148  67.721  1.00  0.00    -0.215 C  
HETATM   13  C   UNL     1     -10.312  10.521  68.932  1.00  0.00    -0.226 C  
BRANCH  12  14
HETATM   14  C   UNL     1      -9.337  10.773  66.642  1.00  0.00    -0.166 C  
HETATM   15  H1  UNL     1      -7.831  10.211  65.024  1.00  0.00     0.000 HD 
HETATM   16  N   UNL     1      -8.505  10.463  65.747  1.00  0.00    -0.160 NA 
HETATM   17  H2  UNL     1      -7.616   9.985  65.899  1.00  0.00     0.000 HD 
ENDBRANCH  12  14
BRANCH  13  18
HETATM   18  C   UNL     1     -11.306  10.841  69.990  1.00  0.00    -0.397 A  
HETATM   19  C   UNL     1     -11.860   9.818  70.769  1.00  0.00    -0.400 A  
HETATM   20  C   UNL     1     -11.734  12.159  70.197  1.00  0.00    -0.301 A  
HETATM   21  C   UNL     1     -12.766  12.437  71.097  1.00  0.00    -0.336 A  
HETATM   22  C   UNL     1     -13.348  11.406  71.828  1.00  0.00    -0.368 A  
HETATM   23  C   UNL     1     -12.876  10.103  71.685  1.00  0.00    -0.559 A  
ENDBRANCH  13  18
BRANCH  13  24
HETATM   24  C   UNL     1      -9.220   9.549  69.223  1.00  0.00    -0.169 A  
HETATM   25  C   UNL     1      -8.335   7.289  69.053  1.00  0.00    -0.126 A  
HETATM   26  C   UNL     1      -9.337   8.222  68.777  1.00  0.00    -0.143 A  
HETATM   27  C   UNL     1      -7.191   7.671  69.746  1.00  0.00    -0.079 A  
HETATM   28  C   UNL     1      -7.067   8.985  70.202  1.00  0.00    -0.052 A  
HETATM   29  C   UNL     1      -8.081   9.922  69.942  1.00  0.00    -0.200 A  
BRANCH  27  30
HETATM   30  O   UNL     1      -6.289   6.665  69.979  1.00  0.00    -0.037 OA 
HETATM   31  C   UNL     1      -6.521   5.440  69.294  1.00  0.00    -0.038 C  
ENDBRANCH  27  30
ENDBRANCH  13  24
ENDBRANCH  10  12
ENDBRANCH   9  10
ENDBRANCH   7   9
ENDBRANCH   3   4
ENDBRANCH   2   3
TORSDOF 9
ENDMDL
MODEL       92
REMARK 921   NORMALIZED FREE ENERGY PREDICTED BY IDOCK:   -4.31 KCAL/MOL
REMARK 922        TOTAL FREE ENERGY PREDICTED BY IDOCK:   -8.65 KCAL/MOL
REMARK 923 INTER-LIGAND FREE ENERGY PREDICTED BY IDOCK:   -7.34 KCAL/MOL
REMARK 924 INTRA-LIGAND FREE ENERGY PREDICTED BY IDOCK:   -1.31 KCAL/MOL
REMARK 927      BINDING AFFINITY PREDICTED BY RF-SCORE:    0.00 PKD
ROOT
HETATM    1  C   UNL     1     -13.444  15.254  72.869  1.00  0.00    -0.611 C  
HETATM    2  C   UNL     1     -12.858  14.595  71.627  1.00  0.00    -0.403 C  
ENDROOT
BRANCH   2   3
HETATM    3  C   UNL     1     -13.510  13.237  71.386  1.00  0.00    -0.149 C  
BRANCH   3   4
HETATM    4  C   UNL     1     -12.676  12.079  71.943  1.00  0.00    -0.208 C  
HETATM    5  C   UNL     1     -12.711  10.839  71.026  1.00  0.00    -0.513 C  
HETATM    6  C   UNL     1     -12.250  11.131  69.576  1.00  0.00    -0.347 C  
HETATM    7  C   UNL     1     -11.942   9.667  71.664  1.00  0.00    -0.394 C  
HETATM    8  C   UNL     1     -10.811  11.610  69.438  1.00  0.00    -0.151 C  
BRANCH   7   9
HETATM    9  O   UNL     1     -12.040   8.538  70.782  1.00  0.00    -0.206 OA 
BRANCH   9  10
HETATM   10  C   UNL     1     -12.441   7.346  71.277  1.00  0.00    -0.346 C  
HETATM   11  O   UNL     1     -13.599   6.981  71.405  1.00  0.00    -0.334 OA 
BRANCH  10  12
HETATM   12  C   UNL     1     -11.266   6.443  71.431  1.00  0.00    -0.340 C  
HETATM   13  C   UNL     1     -10.351   6.146  70.463  1.00  0.00    -0.270 C  
BRANCH  12  14
HETATM   14  C   UNL     1     -11.236   5.708  72.762  1.00  0.00    -0.299 C  
HETATM   15  H1  UNL     1     -11.191   4.606  74.759  1.00  0.00     0.000 HD 
HETATM   16  N   UNL     1     -11.211   5.099  73.866  1.00  0.00    -0.427 NA 
HETATM   17  H2  UNL     1     -11.597   5.442  74.746  1.00  0.00     0.000 HD 
ENDBRANCH  12  14
BRANCH  13  18
HETATM   18  C   UNL     1     -10.335   6.876  69.168  1.00  0.00    -0.207 A  
HETATM   19  C   UNL     1     -11.085   6.406  68.084  1.00  0.00    -0.358 A  
HETATM   20  C   UNL     1      -9.539   8.017  68.998  1.00  0.00    -0.156 A  
HETATM   21  C   UNL     1      -9.420   8.619  67.743  1.00  0.00    -0.165 A  
HETATM   22  C   UNL     1     -10.129   8.112  66.659  1.00  0.00    -0.344 A  
HETATM   23  C   UNL     1     -10.982   7.025  66.835  1.00  0.00    -0.271 A  
ENDBRANCH  13  18
BRANCH  13  24
HETATM   24  C   UNL     1      -9.398   5.021  70.682  1.00  0.00    -0.216 A  
HETATM   25  C   UNL     1      -7.284   4.219  71.580  1.00  0.00    -0.054 A  
HETATM   26  C   UNL     1      -8.201   5.254  71.378  1.00  0.00    -0.116 A  
HETATM   27  C   UNL     1      -7.561   2.936  71.122  1.00  0.00    -0.040 A  
HETATM   28  C   UNL     1      -8.744   2.694  70.420  1.00  0.00    -0.131 A  
HETATM   29  C   UNL     1      -9.661   3.736  70.199  1.00  0.00    -0.258 A  
BRANCH  27  30
HETATM   30  O   UNL     1      -6.578   2.010  71.356  1.00  0.00    -0.022 OA 
HETATM   31  C   UNL     1      -5.256   2.516  71.496  1.00  0.00    -0.004 C  
ENDBRANCH  27  30
ENDBRANCH  13  24
ENDBRANCH  10  12
ENDBRANCH   9  10
ENDBRANCH   7   9
ENDBRANCH   3   4
ENDBRANCH   2   3
TORSDOF 9
ENDMDL
MODEL       93
REMARK 921   NORMALIZED FREE ENERGY PREDICTED BY IDOCK:   -4.31 KCAL/MOL
REMARK 922        TOTAL FREE ENERGY PREDICTED BY IDOCK:   -8.64 KCAL/MOL
REMARK 923 INTER-LIGAND FREE ENERGY PREDICTED BY IDOCK:   -6.73 KCAL/MOL
REMARK 924 INTRA-LIGAND FREE ENERGY PREDICTED BY IDOCK:   -1.91 KCAL/MOL
REMARK 927      BINDING AFFINITY PREDICTED BY RF-SCORE:    0.00 PKD
ROOT
HETATM    1  C   UNL     1     -11.126   9.951  69.912  1.00  0.00    -0.318 C  
HETATM    2  C   UNL     1      -9.692   9.486  70.125  1.00  0.00    -0.289 C  
ENDROOT
BRANCH   2   3
HETATM    3  C   UNL     1      -8.736  10.284  69.243  1.00  0.00    -0.182 C  
BRANCH   3   4
HETATM    4  C   UNL     1      -9.395  10.758  67.944  1.00  0.00    -0.154 C  
HETATM    5  C   UNL     1      -8.855  12.126  67.479  1.00  0.00    -0.175 C  
HETATM    6  C   UNL     1      -7.317  12.151  67.293  1.00  0.00    -0.149 C  
HETATM    7  C   UNL     1      -9.608  12.613  66.227  1.00  0.00    -0.244 C  
HETATM    8  C   UNL     1      -6.778  11.199  66.233  1.00  0.00    -0.064 C  
BRANCH   7   9
HETATM    9  O   UNL     1      -9.084  13.900  65.866  1.00  0.00     0.064 OA 
BRANCH   9  10
HETATM   10  C   UNL     1      -9.911  14.970  65.852  1.00  0.00    -0.326 C  
HETATM   11  O   UNL     1     -10.020  15.775  64.941  1.00  0.00    -0.341 OA 
BRANCH  10  12
HETATM   12  C   UNL     1     -10.845  14.900  67.012  1.00  0.00    -0.315 C  
HETATM   13  C   UNL     1     -10.561  15.274  68.293  1.00  0.00    -0.244 C  
BRANCH  12  14
HETATM   14  C   UNL     1     -12.155  14.198  66.693  1.00  0.00    -0.451 C  
HETATM   15  H1  UNL     1     -14.121  13.144  66.216  1.00  0.00     0.000 HD 
HETATM   16  N   UNL     1     -13.242  13.615  66.429  1.00  0.00     0.078 NA 
HETATM   17  H2  UNL     1     -13.431  12.621  66.552  1.00  0.00     0.000 HD 
ENDBRANCH  12  14
BRANCH  13  18
HETATM   18  C   UNL     1      -9.304  15.996  68.625  1.00  0.00    -0.214 A  
HETATM   19  C   UNL     1      -9.178  17.360  68.338  1.00  0.00    -0.277 A  
HETATM   20  C   UNL     1      -8.215  15.318  69.189  1.00  0.00    -0.234 A  
HETATM   21  C   UNL     1      -6.993  15.968  69.372  1.00  0.00    -0.216 A  
HETATM   22  C   UNL     1      -6.861  17.311  69.034  1.00  0.00    -0.245 A  
HETATM   23  C   UNL     1      -7.960  18.013  68.544  1.00  0.00    -0.310 A  
ENDBRANCH  13  18
BRANCH  13  24
HETATM   24  C   UNL     1     -11.496  14.889  69.388  1.00  0.00    -0.324 A  
HETATM   25  C   UNL     1     -12.484  13.153  70.777  1.00  0.00    -0.389 A  
HETATM   26  C   UNL     1     -11.602  13.540  69.765  1.00  0.00    -0.313 A  
HETATM   27  C   UNL     1     -13.246  14.104  71.447  1.00  0.00    -0.347 A  
HETATM   28  C   UNL     1     -13.155  15.447  71.074  1.00  0.00    -0.565 A  
HETATM   29  C   UNL     1     -12.283  15.839  70.045  1.00  0.00    -0.309 A  
BRANCH  27  30
HETATM   30  O   UNL     1     -14.092  13.604  72.402  1.00  0.00    -0.637 OA 
HETATM   31  C   UNL     1     -14.238  12.190  72.436  1.00  0.00     0.758 C  
ENDBRANCH  27  30
ENDBRANCH  13  24
ENDBRANCH  10  12
ENDBRANCH   9  10
ENDBRANCH   7   9
ENDBRANCH   3   4
ENDBRANCH   2   3
TORSDOF 9
ENDMDL
MODEL       94
REMARK 921   NORMALIZED FREE ENERGY PREDICTED BY IDOCK:   -4.30 KCAL/MOL
REMARK 922        TOTAL FREE ENERGY PREDICTED BY IDOCK:   -8.63 KCAL/MOL
REMARK 923 INTER-LIGAND FREE ENERGY PREDICTED BY IDOCK:   -7.56 KCAL/MOL
REMARK 924 INTRA-LIGAND FREE ENERGY PREDICTED BY IDOCK:   -1.07 KCAL/MOL
REMARK 927      BINDING AFFINITY PREDICTED BY RF-SCORE:    0.00 PKD
ROOT
HETATM    1  C   UNL     1     -10.550  19.307  66.434  1.00  0.00    -0.542 C  
HETATM    2  C   UNL     1      -9.241  18.543  66.585  1.00  0.00    -0.306 C  
ENDROOT
BRANCH   2   3
HETATM    3  C   UNL     1      -8.886  18.379  68.060  1.00  0.00    -0.302 C  
BRANCH   3   4
HETATM    4  C   UNL     1      -9.724  17.299  68.749  1.00  0.00    -0.280 C  
HETATM    5  C   UNL     1      -9.454  15.893  68.173  1.00  0.00    -0.203 C  
HETATM    6  C   UNL     1      -7.963  15.478  68.234  1.00  0.00    -0.132 C  
HETATM    7  C   UNL     1     -10.384  14.851  68.824  1.00  0.00    -0.245 C  
HETATM    8  C   UNL     1      -7.373  15.386  69.635  1.00  0.00    -0.177 C  
BRANCH   7   9
HETATM    9  O   UNL     1     -10.108  13.575  68.225  1.00  0.00    -0.236 OA 
BRANCH   9  10
HETATM   10  C   UNL     1     -11.108  12.904  67.609  1.00  0.00    -0.264 C  
HETATM   11  O   UNL     1     -12.206  13.359  67.332  1.00  0.00    -0.326 OA 
BRANCH  10  12
HETATM   12  C   UNL     1     -10.600  11.597  67.103  1.00  0.00    -0.269 C  
HETATM   13  C   UNL     1     -10.478  10.450  67.831  1.00  0.00    -0.248 C  
BRANCH  12  14
HETATM   14  C   UNL     1     -10.048  11.667  65.689  1.00  0.00    -0.240 C  
HETATM   15  H1  UNL     1      -9.219  11.774  63.566  1.00  0.00     0.000 HD 
HETATM   16  N   UNL     1      -9.590  11.726  64.515  1.00  0.00    -0.428 NA 
HETATM   17  H2  UNL     1      -9.214  12.559  64.062  1.00  0.00     0.000 HD 
ENDBRANCH  12  14
BRANCH  13  18
HETATM   18  C   UNL     1     -11.043  10.342  69.202  1.00  0.00    -0.283 A  
HETATM   19  C   UNL     1     -10.280   9.790  70.238  1.00  0.00    -0.346 A  
HETATM   20  C   UNL     1     -12.357  10.750  69.471  1.00  0.00    -0.208 A  
HETATM   21  C   UNL     1     -12.929  10.521  70.724  1.00  0.00    -0.413 A  
HETATM   22  C   UNL     1     -12.179   9.923  71.732  1.00  0.00    -0.425 A  
HETATM   23  C   UNL     1     -10.848   9.584  71.497  1.00  0.00    -0.321 A  
ENDBRANCH  13  18
BRANCH  13  24
HETATM   24  C   UNL     1      -9.703   9.309  67.267  1.00  0.00    -0.218 A  
HETATM   25  C   UNL     1      -9.661   7.031  66.412  1.00  0.00    -0.159 A  
HETATM   26  C   UNL     1     -10.369   8.120  66.925  1.00  0.00    -0.401 A  
HETATM   27  C   UNL     1      -8.289   7.121  66.201  1.00  0.00    -0.133 A  
HETATM   28  C   UNL     1      -7.614   8.294  66.546  1.00  0.00    -0.092 A  
HETATM   29  C   UNL     1      -8.320   9.386  67.079  1.00  0.00    -0.127 A  
BRANCH  27  30
HETATM   30  O   UNL     1      -7.699   5.983  65.717  1.00  0.00    -0.091 OA 
HETATM   31  C   UNL     1      -8.571   5.014  65.149  1.00  0.00    -0.148 C  
ENDBRANCH  27  30
ENDBRANCH  13  24
ENDBRANCH  10  12
ENDBRANCH   9  10
ENDBRANCH   7   9
ENDBRANCH   3   4
ENDBRANCH   2   3
TORSDOF 9
ENDMDL
MODEL       95
REMARK 921   NORMALIZED FREE ENERGY PREDICTED BY IDOCK:   -4.29 KCAL/MOL
REMARK 922        TOTAL FREE ENERGY PREDICTED BY IDOCK:   -8.62 KCAL/MOL
REMARK 923 INTER-LIGAND FREE ENERGY PREDICTED BY IDOCK:   -6.67 KCAL/MOL
REMARK 924 INTRA-LIGAND FREE ENERGY PREDICTED BY IDOCK:   -1.95 KCAL/MOL
REMARK 927      BINDING AFFINITY PREDICTED BY RF-SCORE:    0.00 PKD
ROOT
HETATM    1  C   UNL     1     -12.084  12.510  63.535  1.00  0.00    -0.653 C  
HETATM    2  C   UNL     1     -12.898  13.075  64.691  1.00  0.00    -0.279 C  
ENDROOT
BRANCH   2   3
HETATM    3  C   UNL     1     -12.050  14.031  65.525  1.00  0.00    -0.423 C  
BRANCH   3   4
HETATM    4  C   UNL     1     -12.097  13.704  67.020  1.00  0.00    -0.423 C  
HETATM    5  C   UNL     1     -11.596  12.278  67.324  1.00  0.00    -0.427 C  
HETATM    6  C   UNL     1     -10.164  12.002  66.801  1.00  0.00    -0.225 C  
HETATM    7  C   UNL     1     -11.749  11.954  68.822  1.00  0.00    -0.321 C  
HETATM    8  C   UNL     1      -9.074  12.877  67.407  1.00  0.00    -0.197 C  
BRANCH   7   9
HETATM    9  O   UNL     1     -11.300  10.606  69.034  1.00  0.00    -0.247 OA 
BRANCH   9  10
HETATM   10  C   UNL     1     -11.226  10.125  70.295  1.00  0.00    -0.318 C  
HETATM   11  O   UNL     1     -11.584  10.711  71.304  1.00  0.00    -0.202 OA 
BRANCH  10  12
HETATM   12  C   UNL     1     -10.858   8.680  70.262  1.00  0.00    -0.250 C  
HETATM   13  C   UNL     1      -9.686   8.163  69.795  1.00  0.00    -0.173 C  
BRANCH  12  14
HETATM   14  C   UNL     1     -11.998   7.756  70.656  1.00  0.00    -0.070 C  
HETATM   15  H1  UNL     1     -13.709   6.367  71.249  1.00  0.00     0.000 HD 
HETATM   16  N   UNL     1     -12.944   6.988  70.984  1.00  0.00    -0.512 NA 
HETATM   17  H2  UNL     1     -12.939   5.971  70.912  1.00  0.00     0.000 HD 
ENDBRANCH  12  14
BRANCH  13  18
HETATM   18  C   UNL     1      -8.542   9.043  69.438  1.00  0.00    -0.137 A  
HETATM   19  C   UNL     1      -8.174   9.213  68.098  1.00  0.00    -0.116 A  
HETATM   20  C   UNL     1      -7.789   9.681  70.434  1.00  0.00    -0.181 A  
HETATM   21  C   UNL     1      -6.635  10.394  70.104  1.00  0.00    -0.146 A  
HETATM   22  C   UNL     1      -6.248  10.514  68.774  1.00  0.00    -0.046 A  
HETATM   23  C   UNL     1      -7.032   9.948  67.770  1.00  0.00    -0.085 A  
ENDBRANCH  13  18
BRANCH  13  24
HETATM   24  C   UNL     1      -9.576   6.693  69.572  1.00  0.00    -0.150 A  
HETATM   25  C   UNL     1      -9.901   4.771  68.116  1.00  0.00    -0.182 A  
HETATM   26  C   UNL     1      -9.978   6.148  68.341  1.00  0.00    -0.162 A  
HETATM   27  C   UNL     1      -9.394   3.926  69.096  1.00  0.00    -0.170 A  
HETATM   28  C   UNL     1      -9.000   4.455  70.327  1.00  0.00    -0.142 A  
HETATM   29  C   UNL     1      -9.092   5.837  70.565  1.00  0.00    -0.161 A  
BRANCH  27  30
HETATM   30  O   UNL     1      -9.390   2.594  68.771  1.00  0.00    -0.161 OA 
HETATM   31  C   UNL     1      -8.739   2.245  67.556  1.00  0.00    -0.116 C  
ENDBRANCH  27  30
ENDBRANCH  13  24
ENDBRANCH  10  12
ENDBRANCH   9  10
ENDBRANCH   7   9
ENDBRANCH   3   4
ENDBRANCH   2   3
TORSDOF 9
ENDMDL
MODEL       96
REMARK 921   NORMALIZED FREE ENERGY PREDICTED BY IDOCK:   -4.29 KCAL/MOL
REMARK 922        TOTAL FREE ENERGY PREDICTED BY IDOCK:   -8.62 KCAL/MOL
REMARK 923 INTER-LIGAND FREE ENERGY PREDICTED BY IDOCK:   -7.09 KCAL/MOL
REMARK 924 INTRA-LIGAND FREE ENERGY PREDICTED BY IDOCK:   -1.53 KCAL/MOL
REMARK 927      BINDING AFFINITY PREDICTED BY RF-SCORE:    0.00 PKD
ROOT
HETATM    1  C   UNL     1     -12.123  14.548  64.629  1.00  0.00    -0.486 C  
HETATM    2  C   UNL     1     -10.735  13.939  64.769  1.00  0.00    -0.437 C  
ENDROOT
BRANCH   2   3
HETATM    3  C   UNL     1     -10.824  12.417  64.838  1.00  0.00    -0.333 C  
BRANCH   3   4
HETATM    4  C   UNL     1     -11.300  11.919  66.206  1.00  0.00    -0.394 C  
HETATM    5  C   UNL     1     -10.407  10.790  66.761  1.00  0.00    -0.294 C  
HETATM    6  C   UNL     1      -8.912  11.183  66.868  1.00  0.00    -0.164 C  
HETATM    7  C   UNL     1     -10.971  10.252  68.089  1.00  0.00    -0.274 C  
HETATM    8  C   UNL     1      -8.612  12.341  67.810  1.00  0.00    -0.170 C  
BRANCH   7   9
HETATM    9  O   UNL     1     -10.118   9.186  68.535  1.00  0.00    -0.178 OA 
BRANCH   9  10
HETATM   10  C   UNL     1     -10.512   7.905  68.354  1.00  0.00    -0.166 C  
HETATM   11  O   UNL     1     -11.106   7.472  67.379  1.00  0.00    -0.159 OA 
BRANCH  10  12
HETATM   12  C   UNL     1      -9.915   7.041  69.412  1.00  0.00    -0.165 C  
HETATM   13  C   UNL     1     -10.303   6.990  70.719  1.00  0.00    -0.222 C  
BRANCH  12  14
HETATM   14  C   UNL     1      -8.673   6.293  68.953  1.00  0.00    -0.125 C  
HETATM   15  H1  UNL     1      -6.811   5.170  68.266  1.00  0.00     0.000 HD 
HETATM   16  N   UNL     1      -7.644   5.672  68.574  1.00  0.00    -0.084 NA 
HETATM   17  H2  UNL     1      -7.486   4.668  68.660  1.00  0.00     0.000 HD 
ENDBRANCH  12  14
BRANCH  13  18
HETATM   18  C   UNL     1     -11.534   7.680  71.185  1.00  0.00    -0.296 A  
HETATM   19  C   UNL     1     -12.772   7.026  71.133  1.00  0.00    -0.361 A  
HETATM   20  C   UNL     1     -11.486   9.004  71.643  1.00  0.00    -0.431 A  
HETATM   21  C   UNL     1     -12.661   9.693  71.950  1.00  0.00    -0.499 A  
HETATM   22  C   UNL     1     -13.891   9.051  71.844  1.00  0.00    -0.477 A  
HETATM   23  C   UNL     1     -13.944   7.712  71.464  1.00  0.00    -0.500 A  
ENDBRANCH  13  18
BRANCH  13  24
HETATM   24  C   UNL     1      -9.438   6.288  71.708  1.00  0.00    -0.158 A  
HETATM   25  C   UNL     1      -8.865   4.250  72.909  1.00  0.00    -0.109 A  
HETATM   26  C   UNL     1      -9.652   4.925  71.972  1.00  0.00    -0.202 A  
HETATM   27  C   UNL     1      -7.837   4.913  73.569  1.00  0.00    -0.099 A  
HETATM   28  C   UNL     1      -7.620   6.270  73.322  1.00  0.00    -0.095 A  
HETATM   29  C   UNL     1      -8.420   6.957  72.394  1.00  0.00    -0.120 A  
BRANCH  27  30
HETATM   30  O   UNL     1      -7.149   4.156  74.482  1.00  0.00    -0.066 OA 
HETATM   31  C   UNL     1      -6.504   2.993  73.978  1.00  0.00    -0.029 C  
ENDBRANCH  27  30
ENDBRANCH  13  24
ENDBRANCH  10  12
ENDBRANCH   9  10
ENDBRANCH   7   9
ENDBRANCH   3   4
ENDBRANCH   2   3
TORSDOF 9
ENDMDL
MODEL       97
REMARK 921   NORMALIZED FREE ENERGY PREDICTED BY IDOCK:   -4.26 KCAL/MOL
REMARK 922        TOTAL FREE ENERGY PREDICTED BY IDOCK:   -8.58 KCAL/MOL
REMARK 923 INTER-LIGAND FREE ENERGY PREDICTED BY IDOCK:   -6.39 KCAL/MOL
REMARK 924 INTRA-LIGAND FREE ENERGY PREDICTED BY IDOCK:   -2.18 KCAL/MOL
REMARK 927      BINDING AFFINITY PREDICTED BY RF-SCORE:    0.00 PKD
ROOT
HETATM    1  C   UNL     1     -13.307  12.828  72.124  1.00  0.00    -0.593 C  
HETATM    2  C   UNL     1     -12.805  14.241  71.860  1.00  0.00    -0.429 C  
ENDROOT
BRANCH   2   3
HETATM    3  C   UNL     1     -12.909  14.575  70.374  1.00  0.00    -0.315 C  
BRANCH   3   4
HETATM    4  C   UNL     1     -11.547  14.889  69.748  1.00  0.00    -0.339 C  
HETATM    5  C   UNL     1     -10.990  13.703  68.934  1.00  0.00    -0.281 C  
HETATM    6  C   UNL     1     -11.949  13.216  67.818  1.00  0.00    -0.352 C  
HETATM    7  C   UNL     1      -9.580  14.022  68.401  1.00  0.00    -0.222 C  
HETATM    8  C   UNL     1     -12.263  14.245  66.741  1.00  0.00    -0.384 C  
BRANCH   7   9
HETATM    9  O   UNL     1      -9.105  12.872  67.684  1.00  0.00    -0.176 OA 
BRANCH   9  10
HETATM   10  C   UNL     1      -8.078  12.154  68.192  1.00  0.00    -0.161 C  
HETATM   11  O   UNL     1      -7.449  12.426  69.203  1.00  0.00     0.010 OA 
BRANCH  10  12
HETATM   12  C   UNL     1      -7.967  10.854  67.472  1.00  0.00    -0.115 C  
HETATM   13  C   UNL     1      -8.544   9.677  67.850  1.00  0.00    -0.122 C  
BRANCH  12  14
HETATM   14  C   UNL     1      -6.988  10.886  66.309  1.00  0.00    -0.120 C  
HETATM   15  H1  UNL     1      -5.519  10.936  64.565  1.00  0.00     0.000 HD 
HETATM   16  N   UNL     1      -6.176  10.914  65.345  1.00  0.00    -0.361 NA 
HETATM   17  H2  UNL     1      -5.669  11.735  65.014  1.00  0.00     0.000 HD 
ENDBRANCH  12  14
BRANCH  13  18
HETATM   18  C   UNL     1      -9.533   9.624  68.958  1.00  0.00    -0.168 A  
HETATM   19  C   UNL     1     -10.852  10.043  68.746  1.00  0.00    -0.252 A  
HETATM   20  C   UNL     1      -9.155   9.195  70.238  1.00  0.00    -0.247 A  
HETATM   21  C   UNL     1     -10.051   9.277  71.307  1.00  0.00    -0.361 A  
HETATM   22  C   UNL     1     -11.344   9.745  71.097  1.00  0.00    -0.459 A  
HETATM   23  C   UNL     1     -11.752  10.101  69.813  1.00  0.00    -0.205 A  
ENDBRANCH  13  18
BRANCH  13  24
HETATM   24  C   UNL     1      -8.119   8.412  67.186  1.00  0.00    -0.104 A  
HETATM   25  C   UNL     1      -6.556   6.553  67.037  1.00  0.00    -0.051 A  
HETATM   26  C   UNL     1      -6.983   7.732  67.654  1.00  0.00    -0.081 A  
HETATM   27  C   UNL     1      -7.270   6.020  65.970  1.00  0.00    -0.075 A  
HETATM   28  C   UNL     1      -8.396   6.693  65.490  1.00  0.00    -0.144 A  
HETATM   29  C   UNL     1      -8.819   7.888  66.096  1.00  0.00    -0.197 A  
BRANCH  27  30
HETATM   30  O   UNL     1      -6.743   4.876  65.430  1.00  0.00    -0.049 OA 
HETATM   31  C   UNL     1      -6.300   3.890  66.354  1.00  0.00    -0.036 C  
ENDBRANCH  27  30
ENDBRANCH  13  24
ENDBRANCH  10  12
ENDBRANCH   9  10
ENDBRANCH   7   9
ENDBRANCH   3   4
ENDBRANCH   2   3
TORSDOF 9
ENDMDL
MODEL       98
REMARK 921   NORMALIZED FREE ENERGY PREDICTED BY IDOCK:   -4.26 KCAL/MOL
REMARK 922        TOTAL FREE ENERGY PREDICTED BY IDOCK:   -8.57 KCAL/MOL
REMARK 923 INTER-LIGAND FREE ENERGY PREDICTED BY IDOCK:   -7.85 KCAL/MOL
REMARK 924 INTRA-LIGAND FREE ENERGY PREDICTED BY IDOCK:   -0.72 KCAL/MOL
REMARK 927      BINDING AFFINITY PREDICTED BY RF-SCORE:    0.00 PKD
ROOT
HETATM    1  C   UNL     1      -8.310   7.152  71.620  1.00  0.00    -0.110 C  
HETATM    2  C   UNL     1      -9.629   7.786  71.200  1.00  0.00    -0.174 C  
ENDROOT
BRANCH   2   3
HETATM    3  C   UNL     1      -9.533   8.322  69.775  1.00  0.00    -0.163 C  
BRANCH   3   4
HETATM    4  C   UNL     1      -9.293   9.834  69.732  1.00  0.00    -0.249 C  
HETATM    5  C   UNL     1     -10.436  10.588  69.021  1.00  0.00    -0.238 C  
HETATM    6  C   UNL     1     -11.830  10.324  69.643  1.00  0.00    -0.181 C  
HETATM    7  C   UNL     1     -10.113  12.090  68.913  1.00  0.00    -0.015 C  
HETATM    8  C   UNL     1     -11.986  10.766  71.092  1.00  0.00    -0.361 C  
BRANCH   7   9
HETATM    9  O   UNL     1     -11.194  12.728  68.215  1.00  0.00    -0.237 OA 
BRANCH   9  10
HETATM   10  C   UNL     1     -11.812  13.789  68.781  1.00  0.00    -0.363 C  
HETATM   11  O   UNL     1     -12.624  13.740  69.690  1.00  0.00    -0.217 OA 
BRANCH  10  12
HETATM   12  C   UNL     1     -11.187  15.053  68.296  1.00  0.00    -0.309 C  
HETATM   13  C   UNL     1     -10.731  15.287  67.031  1.00  0.00    -0.313 C  
BRANCH  12  14
HETATM   14  C   UNL     1     -10.932  16.066  69.400  1.00  0.00    -0.321 C  
HETATM   15  H1  UNL     1     -10.549  17.586  71.058  1.00  0.00     0.000 HD 
HETATM   16  N   UNL     1     -10.720  16.906  70.316  1.00  0.00    -0.149 NA 
HETATM   17  H2  UNL     1     -11.399  17.211  71.014  1.00  0.00     0.000 HD 
ENDBRANCH  12  14
BRANCH  13  18
HETATM   18  C   UNL     1     -11.000  14.331  65.925  1.00  0.00    -0.304 A  
HETATM   19  C   UNL     1      -9.966  13.543  65.407  1.00  0.00    -0.220 A  
HETATM   20  C   UNL     1     -12.278  14.233  65.356  1.00  0.00    -0.408 A  
HETATM   21  C   UNL     1     -12.494  13.436  64.230  1.00  0.00    -0.321 A  
HETATM   22  C   UNL     1     -11.447  12.697  63.689  1.00  0.00    -0.563 A  
HETATM   23  C   UNL     1     -10.192  12.729  64.294  1.00  0.00    -0.352 A  
ENDBRANCH  13  18
BRANCH  13  24
HETATM   24  C   UNL     1      -9.888  16.488  66.772  1.00  0.00    -0.274 A  
HETATM   25  C   UNL     1      -7.681  17.460  66.446  1.00  0.00    -0.343 A  
HETATM   26  C   UNL     1      -8.494  16.346  66.671  1.00  0.00    -0.306 A  
HETATM   27  C   UNL     1      -8.245  18.721  66.287  1.00  0.00    -0.252 A  
HETATM   28  C   UNL     1      -9.629  18.876  66.396  1.00  0.00    -0.377 A  
HETATM   29  C   UNL     1     -10.449  17.761  66.640  1.00  0.00    -0.300 A  
BRANCH  27  30
HETATM   30  O   UNL     1      -7.349  19.740  66.096  1.00  0.00    -0.262 OA 
HETATM   31  C   UNL     1      -7.524  20.894  66.910  1.00  0.00    -0.167 C  
ENDBRANCH  27  30
ENDBRANCH  13  24
ENDBRANCH  10  12
ENDBRANCH   9  10
ENDBRANCH   7   9
ENDBRANCH   3   4
ENDBRANCH   2   3
TORSDOF 9
ENDMDL
MODEL       99
REMARK 921   NORMALIZED FREE ENERGY PREDICTED BY IDOCK:   -4.25 KCAL/MOL
REMARK 922        TOTAL FREE ENERGY PREDICTED BY IDOCK:   -8.55 KCAL/MOL
REMARK 923 INTER-LIGAND FREE ENERGY PREDICTED BY IDOCK:   -6.13 KCAL/MOL
REMARK 924 INTRA-LIGAND FREE ENERGY PREDICTED BY IDOCK:   -2.42 KCAL/MOL
REMARK 927      BINDING AFFINITY PREDICTED BY RF-SCORE:    0.00 PKD
ROOT
HETATM    1  C   UNL     1     -11.433   2.540  73.492  1.00  0.00    -0.260 C  
HETATM    2  C   UNL     1     -10.553   3.760  73.255  1.00  0.00    -0.274 C  
ENDROOT
BRANCH   2   3
HETATM    3  C   UNL     1     -11.411   5.006  73.058  1.00  0.00    -0.374 C  
BRANCH   3   4
HETATM    4  C   UNL     1     -10.656   6.296  73.394  1.00  0.00    -0.293 C  
HETATM    5  C   UNL     1     -10.515   7.227  72.172  1.00  0.00    -0.233 C  
HETATM    6  C   UNL     1     -11.871   7.600  71.522  1.00  0.00    -0.323 C  
HETATM    7  C   UNL     1      -9.670   8.465  72.525  1.00  0.00    -0.289 C  
HETATM    8  C   UNL     1     -12.831   8.369  72.421  1.00  0.00    -0.323 C  
BRANCH   7   9
HETATM    9  O   UNL     1      -9.548   9.272  71.343  1.00  0.00    -0.266 OA 
BRANCH   9  10
HETATM   10  C   UNL     1      -8.331   9.433  70.776  1.00  0.00    -0.131 C  
HETATM   11  O   UNL     1      -7.258   9.252  71.328  1.00  0.00    -0.254 OA 
BRANCH  10  12
HETATM   12  C   UNL     1      -8.483   9.643  69.308  1.00  0.00    -0.150 C  
HETATM   13  C   UNL     1      -8.620   8.662  68.369  1.00  0.00    -0.135 C  
BRANCH  12  14
HETATM   14  C   UNL     1      -8.309  11.091  68.881  1.00  0.00    -0.123 C  
HETATM   15  H1  UNL     1      -8.046  13.264  68.239  1.00  0.00     0.000 HD 
HETATM   16  N   UNL     1      -8.163  12.292  68.526  1.00  0.00    -0.280 NA 
HETATM   17  H2  UNL     1      -7.545  12.626  67.787  1.00  0.00     0.000 HD 
ENDBRANCH  12  14
BRANCH  13  18
HETATM   18  C   UNL     1      -8.831   7.244  68.760  1.00  0.00    -0.127 A  
HETATM   19  C   UNL     1     -10.086   6.645  68.592  1.00  0.00    -0.169 A  
HETATM   20  C   UNL     1      -7.796   6.497  69.340  1.00  0.00    -0.106 A  
HETATM   21  C   UNL     1      -8.037   5.212  69.831  1.00  0.00    -0.082 A  
HETATM   22  C   UNL     1      -9.301   4.645  69.706  1.00  0.00    -0.215 A  
HETATM   23  C   UNL     1     -10.316   5.350  69.063  1.00  0.00    -0.282 A  
ENDBRANCH  13  18
BRANCH  13  24
HETATM   24  C   UNL     1      -8.485   9.012  66.927  1.00  0.00    -0.120 A  
HETATM   25  C   UNL     1      -9.527   9.692  64.835  1.00  0.00    -0.288 A  
HETATM   26  C   UNL     1      -9.626   9.378  66.193  1.00  0.00    -0.311 A  
HETATM   27  C   UNL     1      -8.290   9.679  64.200  1.00  0.00    -0.170 A  
HETATM   28  C   UNL     1      -7.151   9.307  64.916  1.00  0.00    -0.101 A  
HETATM   29  C   UNL     1      -7.248   8.973  66.278  1.00  0.00    -0.090 A  
BRANCH  27  30
HETATM   30  O   UNL     1      -8.320   9.980  62.863  1.00  0.00    -0.143 OA 
HETATM   31  C   UNL     1      -8.803  11.273  62.520  1.00  0.00    -0.216 C  
ENDBRANCH  27  30
ENDBRANCH  13  24
ENDBRANCH  10  12
ENDBRANCH   9  10
ENDBRANCH   7   9
ENDBRANCH   3   4
ENDBRANCH   2   3
TORSDOF 9
ENDMDL
MODEL      100
REMARK 921   NORMALIZED FREE ENERGY PREDICTED BY IDOCK:   -4.24 KCAL/MOL
REMARK 922        TOTAL FREE ENERGY PREDICTED BY IDOCK:   -8.55 KCAL/MOL
REMARK 923 INTER-LIGAND FREE ENERGY PREDICTED BY IDOCK:   -6.43 KCAL/MOL
REMARK 924 INTRA-LIGAND FREE ENERGY PREDICTED BY IDOCK:   -2.12 KCAL/MOL
REMARK 927      BINDING AFFINITY PREDICTED BY RF-SCORE:    0.00 PKD
ROOT
HETATM    1  C   UNL     1     -10.411  11.883  66.251  1.00  0.00    -0.274 C  
HETATM    2  C   UNL     1      -9.595  11.385  67.436  1.00  0.00    -0.185 C  
ENDROOT
BRANCH   2   3
HETATM    3  C   UNL     1      -8.103  11.461  67.127  1.00  0.00    -0.155 C  
BRANCH   3   4
HETATM    4  C   UNL     1      -7.250  10.730  68.168  1.00  0.00    -0.083 C  
HETATM    5  C   UNL     1      -7.534   9.214  68.197  1.00  0.00    -0.083 C  
HETATM    6  C   UNL     1      -7.340   8.524  66.823  1.00  0.00    -0.082 C  
HETATM    7  C   UNL     1      -6.730   8.531  69.319  1.00  0.00    -0.050 C  
HETATM    8  C   UNL     1      -5.926   8.591  66.259  1.00  0.00    -0.045 C  
BRANCH   7   9
HETATM    9  O   UNL     1      -7.062   7.133  69.315  1.00  0.00    -0.074 OA 
BRANCH   9  10
HETATM   10  C   UNL     1      -7.485   6.552  70.461  1.00  0.00    -0.090 C  
HETATM   11  O   UNL     1      -6.876   5.707  71.098  1.00  0.00    -0.057 OA 
BRANCH  10  12
HETATM   12  C   UNL     1      -8.698   7.255  70.964  1.00  0.00    -0.140 C  
HETATM   13  C   UNL     1      -9.893   7.357  70.314  1.00  0.00    -0.187 C  
BRANCH  12  14
HETATM   14  C   UNL     1      -8.459   8.031  72.250  1.00  0.00    -0.155 C  
HETATM   15  H1  UNL     1      -8.101   9.195  74.179  1.00  0.00     0.000 HD 
HETATM   16  N   UNL     1      -8.261   8.675  73.316  1.00  0.00    -0.403 NA 
HETATM   17  H2  UNL     1      -8.487   9.657  73.471  1.00  0.00     0.000 HD 
ENDBRANCH  12  14
BRANCH  13  18
HETATM   18  C   UNL     1     -10.166   6.580  69.077  1.00  0.00    -0.204 A  
HETATM   19  C   UNL     1      -9.936   5.199  69.046  1.00  0.00    -0.265 A  
HETATM   20  C   UNL     1     -10.617   7.218  67.913  1.00  0.00    -0.266 A  
HETATM   21  C   UNL     1     -10.740   6.508  66.717  1.00  0.00    -0.344 A  
HETATM   22  C   UNL     1     -10.458   5.146  66.683  1.00  0.00    -0.328 A  
HETATM   23  C   UNL     1     -10.084   4.487  67.853  1.00  0.00    -0.047 A  
ENDBRANCH  13  18
BRANCH  13  24
HETATM   24  C   UNL     1     -10.916   8.319  70.815  1.00  0.00    -0.266 A  
HETATM   25  C   UNL     1     -11.806  10.583  70.868  1.00  0.00    -0.455 A  
HETATM   26  C   UNL     1     -10.869   9.659  70.397  1.00  0.00    -0.353 A  
HETATM   27  C   UNL     1     -12.818  10.179  71.732  1.00  0.00    -0.452 A  
HETATM   28  C   UNL     1     -12.868   8.851  72.162  1.00  0.00    -0.471 A  
HETATM   29  C   UNL     1     -11.917   7.922  71.706  1.00  0.00    -0.337 A  
BRANCH  27  30
HETATM   30  O   UNL     1     -13.662  11.176  72.145  1.00  0.00    -0.164 OA 
HETATM   31  C   UNL     1     -13.199  12.509  71.965  1.00  0.00    -0.419 C  
ENDBRANCH  27  30
ENDBRANCH  13  24
ENDBRANCH  10  12
ENDBRANCH   9  10
ENDBRANCH   7   9
ENDBRANCH   3   4
ENDBRANCH   2   3
TORSDOF 9
ENDMDL
MODEL      101
REMARK 921   NORMALIZED FREE ENERGY PREDICTED BY IDOCK:   -4.24 KCAL/MOL
REMARK 922        TOTAL FREE ENERGY PREDICTED BY IDOCK:   -8.55 KCAL/MOL
REMARK 923 INTER-LIGAND FREE ENERGY PREDICTED BY IDOCK:   -7.03 KCAL/MOL
REMARK 924 INTRA-LIGAND FREE ENERGY PREDICTED BY IDOCK:   -1.52 KCAL/MOL
REMARK 927      BINDING AFFINITY PREDICTED BY RF-SCORE:    0.00 PKD
ROOT
HETATM    1  C   UNL     1     -12.060  12.957  63.377  1.00  0.00    -0.610 C  
HETATM    2  C   UNL     1     -12.874  12.729  64.643  1.00  0.00    -0.355 C  
ENDROOT
BRANCH   2   3
HETATM    3  C   UNL     1     -12.135  13.278  65.860  1.00  0.00    -0.493 C  
BRANCH   3   4
HETATM    4  C   UNL     1     -11.806  12.189  66.886  1.00  0.00    -0.295 C  
HETATM    5  C   UNL     1     -10.789  11.164  66.345  1.00  0.00    -0.284 C  
HETATM    6  C   UNL     1      -9.464  11.805  65.860  1.00  0.00    -0.239 C  
HETATM    7  C   UNL     1     -10.557  10.035  67.368  1.00  0.00    -0.271 C  
HETATM    8  C   UNL     1      -8.668  12.535  66.934  1.00  0.00    -0.182 C  
BRANCH   7   9
HETATM    9  O   UNL     1      -9.631   9.099  66.795  1.00  0.00    -0.166 OA 
BRANCH   9  10
HETATM   10  C   UNL     1      -8.505   8.784  67.474  1.00  0.00    -0.120 C  
HETATM   11  O   UNL     1      -7.385   9.208  67.233  1.00  0.00    -0.086 OA 
BRANCH  10  12
HETATM   12  C   UNL     1      -8.856   8.025  68.707  1.00  0.00    -0.138 C  
HETATM   13  C   UNL     1      -9.353   6.755  68.752  1.00  0.00    -0.132 C  
BRANCH  12  14
HETATM   14  C   UNL     1      -8.770   8.857  69.976  1.00  0.00    -0.147 C  
HETATM   15  H1  UNL     1      -8.641  10.105  71.881  1.00  0.00     0.000 HD 
HETATM   16  N   UNL     1      -8.698   9.547  71.029  1.00  0.00    -0.346 NA 
HETATM   17  H2  UNL     1      -9.226  10.398  71.222  1.00  0.00     0.000 HD 
ENDBRANCH  12  14
BRANCH  13  18
HETATM   18  C   UNL     1      -9.412   5.907  67.532  1.00  0.00    -0.110 A  
HETATM   19  C   UNL     1     -10.627   5.720  66.861  1.00  0.00    -0.377 A  
HETATM   20  C   UNL     1      -8.268   5.249  67.059  1.00  0.00    -0.108 A  
HETATM   21  C   UNL     1      -8.357   4.346  65.997  1.00  0.00    -0.113 A  
HETATM   22  C   UNL     1      -9.579   4.127  65.370  1.00  0.00    -0.187 A  
HETATM   23  C   UNL     1     -10.707   4.834  65.784  1.00  0.00    -0.220 A  
ENDBRANCH  13  18
BRANCH  13  24
HETATM   24  C   UNL     1      -9.911   6.236  70.032  1.00  0.00    -0.200 A  
HETATM   25  C   UNL     1      -9.675   4.805  71.986  1.00  0.00    -0.217 A  
HETATM   26  C   UNL     1      -9.165   5.319  70.791  1.00  0.00    -0.191 A  
HETATM   27  C   UNL     1     -10.916   5.220  72.457  1.00  0.00    -0.240 A  
HETATM   28  C   UNL     1     -11.671   6.124  71.706  1.00  0.00    -0.312 A  
HETATM   29  C   UNL     1     -11.169   6.630  70.495  1.00  0.00    -0.388 A  
BRANCH  27  30
HETATM   30  O   UNL     1     -11.322   4.630  73.625  1.00  0.00    -0.302 OA 
HETATM   31  C   UNL     1     -11.056   3.239  73.754  1.00  0.00    -0.197 C  
ENDBRANCH  27  30
ENDBRANCH  13  24
ENDBRANCH  10  12
ENDBRANCH   9  10
ENDBRANCH   7   9
ENDBRANCH   3   4
ENDBRANCH   2   3
TORSDOF 9
ENDMDL
MODEL      102
REMARK 921   NORMALIZED FREE ENERGY PREDICTED BY IDOCK:   -4.23 KCAL/MOL
REMARK 922        TOTAL FREE ENERGY PREDICTED BY IDOCK:   -8.53 KCAL/MOL
REMARK 923 INTER-LIGAND FREE ENERGY PREDICTED BY IDOCK:   -7.41 KCAL/MOL
REMARK 924 INTRA-LIGAND FREE ENERGY PREDICTED BY IDOCK:   -1.12 KCAL/MOL
REMARK 927      BINDING AFFINITY PREDICTED BY RF-SCORE:    0.00 PKD
ROOT
HETATM    1  C   UNL     1      -9.507   3.705  67.560  1.00  0.00    -0.237 C  
HETATM    2  C   UNL     1      -9.025   3.542  68.995  1.00  0.00    -0.182 C  
ENDROOT
BRANCH   2   3
HETATM    3  C   UNL     1      -9.845   4.420  69.936  1.00  0.00    -0.290 C  
BRANCH   3   4
HETATM    4  C   UNL     1      -9.314   5.854  70.010  1.00  0.00    -0.171 C  
HETATM    5  C   UNL     1     -10.372   6.893  69.584  1.00  0.00    -0.224 C  
HETATM    6  C   UNL     1     -11.685   6.807  70.401  1.00  0.00    -0.418 C  
HETATM    7  C   UNL     1      -9.772   8.312  69.580  1.00  0.00    -0.174 C  
HETATM    8  C   UNL     1     -11.537   7.072  71.893  1.00  0.00    -0.320 C  
BRANCH   7   9
HETATM    9  O   UNL     1     -10.791   9.224  69.144  1.00  0.00    -0.213 OA 
BRANCH   9  10
HETATM   10  C   UNL     1     -10.800   9.640  67.857  1.00  0.00    -0.215 C  
HETATM   11  O   UNL     1     -11.025   8.940  66.883  1.00  0.00    -0.056 OA 
BRANCH  10  12
HETATM   12  C   UNL     1     -10.723  11.128  67.808  1.00  0.00    -0.267 C  
HETATM   13  C   UNL     1     -10.104  11.867  66.843  1.00  0.00    -0.229 C  
BRANCH  12  14
HETATM   14  C   UNL     1     -11.271  11.804  69.054  1.00  0.00    -0.265 C  
HETATM   15  H1  UNL     1     -12.094  12.818  70.925  1.00  0.00     0.000 HD 
HETATM   16  N   UNL     1     -11.726  12.365  70.088  1.00  0.00    -0.534 NA 
HETATM   17  H2  UNL     1     -12.078  11.889  70.919  1.00  0.00     0.000 HD 
ENDBRANCH  12  14
BRANCH  13  18
HETATM   18  C   UNL     1      -9.593  11.236  65.597  1.00  0.00    -0.260 A  
HETATM   19  C   UNL     1      -8.343  10.606  65.588  1.00  0.00    -0.162 A  
HETATM   20  C   UNL     1     -10.331  11.296  64.407  1.00  0.00    -0.388 A  
HETATM   21  C   UNL     1      -9.788  10.824  63.210  1.00  0.00    -0.394 A  
HETATM   22  C   UNL     1      -8.522  10.247  63.201  1.00  0.00    -0.180 A  
HETATM   23  C   UNL     1      -7.813  10.113  64.392  1.00  0.00    -0.138 A  
ENDBRANCH  13  18
BRANCH  13  24
HETATM   24  C   UNL     1      -9.874  13.321  67.074  1.00  0.00    -0.242 A  
HETATM   25  C   UNL     1     -10.739  15.595  67.095  1.00  0.00    -0.314 A  
HETATM   26  C   UNL     1     -10.935  14.226  66.901  1.00  0.00    -0.304 A  
HETATM   27  C   UNL     1      -9.498  16.078  67.495  1.00  0.00    -0.223 A  
HETATM   28  C   UNL     1      -8.433  15.189  67.660  1.00  0.00    -0.171 A  
HETATM   29  C   UNL     1      -8.621  13.813  67.449  1.00  0.00    -0.208 A  
BRANCH  27  30
HETATM   30  O   UNL     1      -9.419  17.439  67.629  1.00  0.00    -0.246 OA 
HETATM   31  C   UNL     1     -10.655  18.136  67.722  1.00  0.00    -0.389 C  
ENDBRANCH  27  30
ENDBRANCH  13  24
ENDBRANCH  10  12
ENDBRANCH   9  10
ENDBRANCH   7   9
ENDBRANCH   3   4
ENDBRANCH   2   3
TORSDOF 9
ENDMDL
MODEL      103
REMARK 921   NORMALIZED FREE ENERGY PREDICTED BY IDOCK:   -4.15 KCAL/MOL
REMARK 922        TOTAL FREE ENERGY PREDICTED BY IDOCK:   -8.40 KCAL/MOL
REMARK 923 INTER-LIGAND FREE ENERGY PREDICTED BY IDOCK:   -6.93 KCAL/MOL
REMARK 924 INTRA-LIGAND FREE ENERGY PREDICTED BY IDOCK:   -1.47 KCAL/MOL
REMARK 927      BINDING AFFINITY PREDICTED BY RF-SCORE:    0.00 PKD
ROOT
HETATM    1  C   UNL     1     -11.956  10.385  70.985  1.00  0.00    -0.481 C  
HETATM    2  C   UNL     1     -13.252  10.690  71.723  1.00  0.00    -0.526 C  
ENDROOT
BRANCH   2   3
HETATM    3  C   UNL     1     -13.532  12.190  71.714  1.00  0.00    -0.211 C  
BRANCH   3   4
HETATM    4  C   UNL     1     -12.249  13.025  71.651  1.00  0.00     0.332 C  
HETATM    5  C   UNL     1     -12.377  14.222  70.688  1.00  0.00    -0.431 C  
HETATM    6  C   UNL     1     -13.564  15.160  71.023  1.00  0.00    -0.473 C  
HETATM    7  C   UNL     1     -11.040  14.979  70.579  1.00  0.00    -0.211 C  
HETATM    8  C   UNL     1     -13.491  15.833  72.388  1.00  0.00    -0.549 C  
BRANCH   7   9
HETATM    9  O   UNL     1     -11.214  16.057  69.646  1.00  0.00    -0.294 OA 
BRANCH   9  10
HETATM   10  C   UNL     1     -10.205  16.371  68.803  1.00  0.00    -0.258 C  
HETATM   11  O   UNL     1      -9.898  17.497  68.446  1.00  0.00    -0.291 OA 
BRANCH  10  12
HETATM   12  C   UNL     1      -9.368  15.164  68.548  1.00  0.00    -0.192 C  
HETATM   13  C   UNL     1      -9.598  14.216  67.595  1.00  0.00    -0.216 C  
BRANCH  12  14
HETATM   14  C   UNL     1      -8.268  14.961  69.578  1.00  0.00    -0.033 C  
HETATM   15  H1  UNL     1      -6.618  14.656  71.123  1.00  0.00     0.000 HD 
HETATM   16  N   UNL     1      -7.356  14.792  70.432  1.00  0.00    -0.181 NA 
HETATM   17  H2  UNL     1      -6.751  15.521  70.811  1.00  0.00     0.000 HD 
ENDBRANCH  12  14
BRANCH  13  18
HETATM   18  C   UNL     1     -10.641  14.407  66.553  1.00  0.00    -0.296 A  
HETATM   19  C   UNL     1     -11.855  13.714  66.634  1.00  0.00    -0.447 A  
HETATM   20  C   UNL     1     -10.413  15.249  65.455  1.00  0.00    -0.422 A  
HETATM   21  C   UNL     1     -11.338  15.320  64.411  1.00  0.00    -0.224 A  
HETATM   22  C   UNL     1     -12.518  14.586  64.475  1.00  0.00    -0.346 A  
HETATM   23  C   UNL     1     -12.789  13.806  65.598  1.00  0.00    -0.456 A  
ENDBRANCH  13  18
BRANCH  13  24
HETATM   24  C   UNL     1      -8.838  12.935  67.643  1.00  0.00    -0.187 A  
HETATM   25  C   UNL     1      -6.954  11.594  66.886  1.00  0.00    -0.123 A  
HETATM   26  C   UNL     1      -7.673  12.791  66.871  1.00  0.00     0.113 A  
HETATM   27  C   UNL     1      -7.365  10.538  67.692  1.00  0.00    -0.087 A  
HETATM   28  C   UNL     1      -8.526  10.665  68.456  1.00  0.00    -0.136 A  
HETATM   29  C   UNL     1      -9.263  11.862  68.430  1.00  0.00    -0.173 A  
BRANCH  27  30
HETATM   30  O   UNL     1      -6.596   9.407  67.605  1.00  0.00    -0.062 OA 
HETATM   31  C   UNL     1      -6.537   8.781  66.329  1.00  0.00    -0.066 C  
ENDBRANCH  27  30
ENDBRANCH  13  24
ENDBRANCH  10  12
ENDBRANCH   9  10
ENDBRANCH   7   9
ENDBRANCH   3   4
ENDBRANCH   2   3
TORSDOF 9
ENDMDL
MODEL      104
REMARK 921   NORMALIZED FREE ENERGY PREDICTED BY IDOCK:   -4.14 KCAL/MOL
REMARK 922        TOTAL FREE ENERGY PREDICTED BY IDOCK:   -8.39 KCAL/MOL
REMARK 923 INTER-LIGAND FREE ENERGY PREDICTED BY IDOCK:   -6.10 KCAL/MOL
REMARK 924 INTRA-LIGAND FREE ENERGY PREDICTED BY IDOCK:   -2.29 KCAL/MOL
REMARK 927      BINDING AFFINITY PREDICTED BY RF-SCORE:    0.00 PKD
ROOT
HETATM    1  C   UNL     1     -10.527   4.817  74.269  1.00  0.00    -0.337 C  
HETATM    2  C   UNL     1     -10.097   6.268  74.430  1.00  0.00    -0.355 C  
ENDROOT
BRANCH   2   3
HETATM    3  C   UNL     1     -10.824   7.155  73.424  1.00  0.00    -0.360 C  
BRANCH   3   4
HETATM    4  C   UNL     1      -9.905   8.210  72.800  1.00  0.00    -0.353 C  
HETATM    5  C   UNL     1     -10.093   8.321  71.273  1.00  0.00    -0.249 C  
HETATM    6  C   UNL     1     -11.553   8.623  70.852  1.00  0.00    -0.307 C  
HETATM    7  C   UNL     1      -9.087   9.320  70.671  1.00  0.00    -0.253 C  
HETATM    8  C   UNL     1     -12.112   9.948  71.356  1.00  0.00    -0.501 C  
BRANCH   7   9
HETATM    9  O   UNL     1      -9.290   9.354  69.250  1.00  0.00    -0.156 OA 
BRANCH   9  10
HETATM   10  C   UNL     1      -8.307   8.914  68.432  1.00  0.00    -0.125 C  
HETATM   11  O   UNL     1      -7.111   9.093  68.595  1.00  0.00    -0.069 OA 
BRANCH  10  12
HETATM   12  C   UNL     1      -8.875   7.976  67.422  1.00  0.00    -0.134 C  
HETATM   13  C   UNL     1      -9.039   6.631  67.580  1.00  0.00    -0.112 C  
BRANCH  12  14
HETATM   14  C   UNL     1      -9.128   8.623  66.070  1.00  0.00    -0.204 C  
HETATM   15  H1  UNL     1      -9.508   9.595  64.041  1.00  0.00     0.000 HD 
HETATM   16  N   UNL     1      -9.338   9.160  64.948  1.00  0.00    -0.446 NA 
HETATM   17  H2  UNL     1      -8.921  10.030  64.615  1.00  0.00     0.000 HD 
ENDBRANCH  12  14
BRANCH  13  18
HETATM   18  C   UNL     1      -8.835   5.979  68.900  1.00  0.00    -0.120 A  
HETATM   19  C   UNL     1      -7.562   5.951  69.484  1.00  0.00    -0.088 A  
HETATM   20  C   UNL     1      -9.898   5.349  69.562  1.00  0.00    -0.264 A  
HETATM   21  C   UNL     1      -9.675   4.622  70.733  1.00  0.00    -0.269 A  
HETATM   22  C   UNL     1      -8.396   4.554  71.277  1.00  0.00    -0.107 A  
HETATM   23  C   UNL     1      -7.347   5.241  70.668  1.00  0.00    -0.070 A  
ENDBRANCH  13  18
BRANCH  13  24
HETATM   24  C   UNL     1      -9.359   5.792  66.391  1.00  0.00    -0.168 A  
HETATM   25  C   UNL     1     -10.977   4.474  65.138  1.00  0.00    -0.017 A  
HETATM   26  C   UNL     1     -10.657   5.278  66.235  1.00  0.00    -0.308 A  
HETATM   27  C   UNL     1     -10.020   4.199  64.167  1.00  0.00    -0.116 A  
HETATM   28  C   UNL     1      -8.723   4.696  64.316  1.00  0.00    -0.148 A  
HETATM   29  C   UNL     1      -8.393   5.490  65.427  1.00  0.00    -0.142 A  
BRANCH  27  30
HETATM   30  O   UNL     1     -10.441   3.380  63.152  1.00  0.00    -0.179 OA 
HETATM   31  C   UNL     1     -10.317   1.981  63.377  1.00  0.00    -0.147 C  
ENDBRANCH  27  30
ENDBRANCH  13  24
ENDBRANCH  10  12
ENDBRANCH   9  10
ENDBRANCH   7   9
ENDBRANCH   3   4
ENDBRANCH   2   3
TORSDOF 9
ENDMDL
MODEL      105
REMARK 921   NORMALIZED FREE ENERGY PREDICTED BY IDOCK:   -4.13 KCAL/MOL
REMARK 922        TOTAL FREE ENERGY PREDICTED BY IDOCK:   -8.37 KCAL/MOL
REMARK 923 INTER-LIGAND FREE ENERGY PREDICTED BY IDOCK:   -6.27 KCAL/MOL
REMARK 924 INTRA-LIGAND FREE ENERGY PREDICTED BY IDOCK:   -2.09 KCAL/MOL
REMARK 927      BINDING AFFINITY PREDICTED BY RF-SCORE:    0.00 PKD
ROOT
HETATM    1  C   UNL     1      -7.605   1.658  71.873  1.00  0.00    -0.040 C  
HETATM    2  C   UNL     1      -7.274   3.044  71.338  1.00  0.00    -0.033 C  
ENDROOT
BRANCH   2   3
HETATM    3  C   UNL     1      -6.731   3.931  72.454  1.00  0.00    -0.032 C  
BRANCH   3   4
HETATM    4  C   UNL     1      -6.038   5.189  71.918  1.00  0.00    -0.026 C  
HETATM    5  C   UNL     1      -7.031   6.166  71.255  1.00  0.00    -0.072 C  
HETATM    6  C   UNL     1      -8.189   6.597  72.189  1.00  0.00    -0.105 C  
HETATM    7  C   UNL     1      -6.286   7.369  70.646  1.00  0.00    -0.035 C  
HETATM    8  C   UNL     1      -7.764   7.350  73.443  1.00  0.00    -0.118 C  
BRANCH   7   9
HETATM    9  O   UNL     1      -7.256   8.220  70.017  1.00  0.00    -0.056 OA 
BRANCH   9  10
HETATM   10  C   UNL     1      -7.453   9.467  70.501  1.00  0.00    -0.148 C  
HETATM   11  O   UNL     1      -6.863   9.967  71.446  1.00  0.00    -0.310 OA 
BRANCH  10  12
HETATM   12  C   UNL     1      -8.332  10.234  69.573  1.00  0.00    -0.162 C  
HETATM   13  C   UNL     1      -9.650   9.983  69.327  1.00  0.00    -0.227 C  
BRANCH  12  14
HETATM   14  C   UNL     1      -7.586  11.275  68.754  1.00  0.00    -0.130 C  
HETATM   15  H1  UNL     1      -6.465  12.836  67.524  1.00  0.00     0.000 HD 
HETATM   16  N   UNL     1      -6.966  12.138  68.074  1.00  0.00    -0.082 NA 
HETATM   17  H2  UNL     1      -5.963  12.317  68.109  1.00  0.00     0.000 HD 
ENDBRANCH  12  14
BRANCH  13  18
HETATM   18  C   UNL     1     -10.413   8.999  70.139  1.00  0.00    -0.240 A  
HETATM   19  C   UNL     1     -10.610   7.697  69.666  1.00  0.00    -0.243 A  
HETATM   20  C   UNL     1     -10.980   9.368  71.367  1.00  0.00    -0.443 A  
HETATM   21  C   UNL     1     -11.809   8.483  72.060  1.00  0.00    -0.429 A  
HETATM   22  C   UNL     1     -12.043   7.208  71.555  1.00  0.00    -0.377 A  
HETATM   23  C   UNL     1     -11.421   6.806  70.374  1.00  0.00    -0.419 A  
ENDBRANCH  13  18
BRANCH  13  24
HETATM   24  C   UNL     1     -10.317  10.657  68.176  1.00  0.00    -0.203 A  
HETATM   25  C   UNL     1     -11.701  12.473  67.335  1.00  0.00    -0.432 A  
HETATM   26  C   UNL     1     -11.052  11.834  68.395  1.00  0.00    -0.286 A  
HETATM   27  C   UNL     1     -11.599  11.969  66.043  1.00  0.00    -0.305 A  
HETATM   28  C   UNL     1     -10.879  10.795  65.815  1.00  0.00    -0.076 A  
HETATM   29  C   UNL     1     -10.240  10.139  66.881  1.00  0.00    -0.295 A  
BRANCH  27  30
HETATM   30  O   UNL     1     -12.297  12.666  65.091  1.00  0.00    -0.472 OA 
HETATM   31  C   UNL     1     -12.432  14.065  65.307  1.00  0.00    -0.475 C  
ENDBRANCH  27  30
ENDBRANCH  13  24
ENDBRANCH  10  12
ENDBRANCH   9  10
ENDBRANCH   7   9
ENDBRANCH   3   4
ENDBRANCH   2   3
TORSDOF 9
ENDMDL
MODEL      106
REMARK 921   NORMALIZED FREE ENERGY PREDICTED BY IDOCK:   -4.12 KCAL/MOL
REMARK 922        TOTAL FREE ENERGY PREDICTED BY IDOCK:   -8.37 KCAL/MOL
REMARK 923 INTER-LIGAND FREE ENERGY PREDICTED BY IDOCK:   -6.36 KCAL/MOL
REMARK 924 INTRA-LIGAND FREE ENERGY PREDICTED BY IDOCK:   -2.00 KCAL/MOL
REMARK 927      BINDING AFFINITY PREDICTED BY RF-SCORE:    0.00 PKD
ROOT
HETATM    1  C   UNL     1      -5.616  14.562  70.895  1.00  0.00    -0.171 C  
HETATM    2  C   UNL     1      -5.157  13.420  69.998  1.00  0.00    -0.086 C  
ENDROOT
BRANCH   2   3
HETATM    3  C   UNL     1      -5.532  12.075  70.612  1.00  0.00    -0.159 C  
BRANCH   3   4
HETATM    4  C   UNL     1      -5.601  10.954  69.571  1.00  0.00    -0.039 C  
HETATM    5  C   UNL     1      -7.049  10.497  69.298  1.00  0.00    -0.097 C  
HETATM    6  C   UNL     1      -7.985  11.648  68.851  1.00  0.00    -0.026 C  
HETATM    7  C   UNL     1      -7.069   9.307  68.320  1.00  0.00    -0.076 C  
HETATM    8  C   UNL     1      -7.596  12.329  67.545  1.00  0.00    -0.155 C  
BRANCH   7   9
HETATM    9  O   UNL     1      -8.436   8.908  68.134  1.00  0.00    -0.127 OA 
BRANCH   9  10
HETATM   10  C   UNL     1      -8.845   8.500  66.911  1.00  0.00    -0.137 C  
HETATM   11  O   UNL     1      -8.695   7.382  66.446  1.00  0.00    -0.129 OA 
BRANCH  10  12
HETATM   12  C   UNL     1      -9.714   9.543  66.296  1.00  0.00    -0.310 C  
HETATM   13  C   UNL     1      -9.466  10.208  65.131  1.00  0.00    -0.319 C  
BRANCH  12  14
HETATM   14  C   UNL     1     -10.882   9.956  67.178  1.00  0.00    -0.157 C  
HETATM   15  H1  UNL     1     -12.633  10.575  68.502  1.00  0.00     0.000 HD 
HETATM   16  N   UNL     1     -11.850  10.298  67.910  1.00  0.00    -0.499 NA 
HETATM   17  H2  UNL     1     -12.238   9.753  68.680  1.00  0.00     0.000 HD 
ENDBRANCH  12  14
BRANCH  13  18
HETATM   18  C   UNL     1      -8.355   9.800  64.232  1.00  0.00    -0.168 A  
HETATM   19  C   UNL     1      -8.600   8.943  63.153  1.00  0.00    -0.123 A  
HETATM   20  C   UNL     1      -7.043  10.230  64.472  1.00  0.00    -0.072 A  
HETATM   21  C   UNL     1      -5.983   9.736  63.708  1.00  0.00    -0.112 A  
HETATM   22  C   UNL     1      -6.230   8.843  62.671  1.00  0.00    -0.094 A  
HETATM   23  C   UNL     1      -7.540   8.469  62.376  1.00  0.00    -0.110 A  
ENDBRANCH  13  18
BRANCH  13  24
HETATM   24  C   UNL     1     -10.281  11.409  64.791  1.00  0.00    -0.338 A  
HETATM   25  C   UNL     1     -10.894  13.718  65.255  1.00  0.00    -0.326 A  
HETATM   26  C   UNL     1     -10.129  12.585  65.544  1.00  0.00    -0.282 A  
HETATM   27  C   UNL     1     -11.794  13.706  64.195  1.00  0.00    -0.422 A  
HETATM   28  C   UNL     1     -11.960  12.540  63.445  1.00  0.00    -0.602 A  
HETATM   29  C   UNL     1     -11.205  11.392  63.743  1.00  0.00    -0.375 A  
BRANCH  27  30
HETATM   30  O   UNL     1     -12.505  14.865  64.022  1.00  0.00    -0.807 OA 
HETATM   31  C   UNL     1     -11.829  16.073  64.350  1.00  0.00    -0.042 C  
ENDBRANCH  27  30
ENDBRANCH  13  24
ENDBRANCH  10  12
ENDBRANCH   9  10
ENDBRANCH   7   9
ENDBRANCH   3   4
ENDBRANCH   2   3
TORSDOF 9
ENDMDL
MODEL      107
REMARK 921   NORMALIZED FREE ENERGY PREDICTED BY IDOCK:   -4.12 KCAL/MOL
REMARK 922        TOTAL FREE ENERGY PREDICTED BY IDOCK:   -8.36 KCAL/MOL
REMARK 923 INTER-LIGAND FREE ENERGY PREDICTED BY IDOCK:   -6.82 KCAL/MOL
REMARK 924 INTRA-LIGAND FREE ENERGY PREDICTED BY IDOCK:   -1.54 KCAL/MOL
REMARK 927      BINDING AFFINITY PREDICTED BY RF-SCORE:    0.00 PKD
ROOT
HETATM    1  C   UNL     1      -8.737   3.015  64.764  1.00  0.00    -0.104 C  
HETATM    2  C   UNL     1      -8.826   4.295  63.945  1.00  0.00    -0.135 C  
ENDROOT
BRANCH   2   3
HETATM    3  C   UNL     1      -7.447   4.934  63.802  1.00  0.00    -0.060 C  
BRANCH   3   4
HETATM    4  C   UNL     1      -7.523   6.399  63.361  1.00  0.00    -0.073 C  
HETATM    5  C   UNL     1      -7.834   7.349  64.535  1.00  0.00    -0.129 C  
HETATM    6  C   UNL     1      -6.825   7.234  65.705  1.00  0.00    -0.056 C  
HETATM    7  C   UNL     1      -7.997   8.797  64.036  1.00  0.00    -0.156 C  
HETATM    8  C   UNL     1      -5.386   7.592  65.356  1.00  0.00    -0.029 C  
BRANCH   7   9
HETATM    9  O   UNL     1      -8.317   9.623  65.166  1.00  0.00    -0.124 OA 
BRANCH   9  10
HETATM   10  C   UNL     1      -9.483  10.307  65.175  1.00  0.00    -0.252 C  
HETATM   11  O   UNL     1      -9.986  10.872  64.217  1.00  0.00    -0.277 OA 
BRANCH  10  12
HETATM   12  C   UNL     1     -10.190  10.081  66.468  1.00  0.00    -0.291 C  
HETATM   13  C   UNL     1     -10.386  11.011  67.447  1.00  0.00    -0.242 C  
BRANCH  12  14
HETATM   14  C   UNL     1     -10.561   8.627  66.710  1.00  0.00    -0.153 C  
HETATM   15  H1  UNL     1     -11.117   6.444  67.072  1.00  0.00     0.000 HD 
HETATM   16  N   UNL     1     -10.868   7.420  66.910  1.00  0.00    -0.557 NA 
HETATM   17  H2  UNL     1     -10.297   6.733  67.402  1.00  0.00     0.000 HD 
ENDBRANCH  12  14
BRANCH  13  18
HETATM   18  C   UNL     1     -10.068  12.445  67.223  1.00  0.00    -0.214 A  
HETATM   19  C   UNL     1      -8.801  12.946  67.547  1.00  0.00    -0.192 A  
HETATM   20  C   UNL     1     -11.039  13.327  66.726  1.00  0.00    -0.313 A  
HETATM   21  C   UNL     1     -10.779  14.697  66.647  1.00  0.00    -0.305 A  
HETATM   22  C   UNL     1      -9.534  15.192  67.021  1.00  0.00    -0.237 A  
HETATM   23  C   UNL     1      -8.538  14.314  67.444  1.00  0.00    -0.223 A  
ENDBRANCH  13  18
BRANCH  13  24
HETATM   24  C   UNL     1     -10.862  10.567  68.788  1.00  0.00    -0.269 A  
HETATM   25  C   UNL     1     -12.620  10.517  70.470  1.00  0.00    -0.423 A  
HETATM   26  C   UNL     1     -12.158  10.907  69.210  1.00  0.00    -0.332 A  
HETATM   27  C   UNL     1     -11.813   9.758  71.310  1.00  0.00    -0.399 A  
HETATM   28  C   UNL     1     -10.519   9.422  70.905  1.00  0.00    -0.381 A  
HETATM   29  C   UNL     1     -10.044   9.828  69.646  1.00  0.00    -0.250 A  
BRANCH  27  30
HETATM   30  O   UNL     1     -12.363   9.457  72.529  1.00  0.00    -0.210 OA 
HETATM   31  C   UNL     1     -13.762   9.200  72.542  1.00  0.00    -0.435 C  
ENDBRANCH  27  30
ENDBRANCH  13  24
ENDBRANCH  10  12
ENDBRANCH   9  10
ENDBRANCH   7   9
ENDBRANCH   3   4
ENDBRANCH   2   3
TORSDOF 9
ENDMDL
MODEL      108
REMARK 921   NORMALIZED FREE ENERGY PREDICTED BY IDOCK:   -4.12 KCAL/MOL
REMARK 922        TOTAL FREE ENERGY PREDICTED BY IDOCK:   -8.35 KCAL/MOL
REMARK 923 INTER-LIGAND FREE ENERGY PREDICTED BY IDOCK:   -6.81 KCAL/MOL
REMARK 924 INTRA-LIGAND FREE ENERGY PREDICTED BY IDOCK:   -1.54 KCAL/MOL
REMARK 927      BINDING AFFINITY PREDICTED BY RF-SCORE:    0.00 PKD
ROOT
HETATM    1  C   UNL     1      -7.777   7.775  62.638  1.00  0.00    -0.129 C  
HETATM    2  C   UNL     1      -8.023   6.279  62.776  1.00  0.00    -0.097 C  
ENDROOT
BRANCH   2   3
HETATM    3  C   UNL     1      -7.000   5.655  63.721  1.00  0.00    -0.050 C  
BRANCH   3   4
HETATM    4  C   UNL     1      -6.844   6.448  65.023  1.00  0.00    -0.047 C  
HETATM    5  C   UNL     1      -8.039   6.245  65.978  1.00  0.00    -0.119 C  
HETATM    6  C   UNL     1      -8.302   4.759  66.330  1.00  0.00    -0.111 C  
HETATM    7  C   UNL     1      -7.892   7.131  67.230  1.00  0.00    -0.111 C  
HETATM    8  C   UNL     1      -7.165   4.056  67.060  1.00  0.00    -0.068 C  
BRANCH   7   9
HETATM    9  O   UNL     1      -9.045   6.923  68.059  1.00  0.00    -0.122 OA 
BRANCH   9  10
HETATM   10  C   UNL     1     -10.239   7.426  67.670  1.00  0.00    -0.201 C  
HETATM   11  O   UNL     1     -11.287   6.805  67.605  1.00  0.00    -0.208 OA 
BRANCH  10  12
HETATM   12  C   UNL     1     -10.145   8.909  67.551  1.00  0.00    -0.285 C  
HETATM   13  C   UNL     1     -10.294   9.805  68.568  1.00  0.00    -0.228 C  
BRANCH  12  14
HETATM   14  C   UNL     1     -10.023   9.395  66.116  1.00  0.00    -0.281 C  
HETATM   15  H1  UNL     1      -9.840  10.125  63.962  1.00  0.00     0.000 HD 
HETATM   16  N   UNL     1      -9.922   9.799  64.925  1.00  0.00    -0.394 NA 
HETATM   17  H2  UNL     1     -10.696   9.951  64.279  1.00  0.00     0.000 HD 
ENDBRANCH  12  14
BRANCH  13  18
HETATM   18  C   UNL     1     -10.377   9.358  69.984  1.00  0.00    -0.265 A  
HETATM   19  C   UNL     1      -9.209   9.084  70.706  1.00  0.00    -0.299 A  
HETATM   20  C   UNL     1     -11.619   9.164  70.604  1.00  0.00    -0.282 A  
HETATM   21  C   UNL     1     -11.694   8.614  71.885  1.00  0.00    -0.422 A  
HETATM   22  C   UNL     1     -10.529   8.295  72.575  1.00  0.00    -0.406 A  
HETATM   23  C   UNL     1      -9.288   8.556  71.997  1.00  0.00    -0.353 A  
ENDBRANCH  13  18
BRANCH  13  24
HETATM   24  C   UNL     1     -10.447  11.252  68.247  1.00  0.00    -0.220 A  
HETATM   25  C   UNL     1     -11.887  13.115  67.632  1.00  0.00    -0.405 A  
HETATM   26  C   UNL     1     -11.721  11.765  67.953  1.00  0.00    -0.347 A  
HETATM   27  C   UNL     1     -10.795  13.976  67.631  1.00  0.00    -0.262 A  
HETATM   28  C   UNL     1      -9.522  13.476  67.913  1.00  0.00    -0.215 A  
HETATM   29  C   UNL     1      -9.348  12.115  68.219  1.00  0.00    -0.198 A  
BRANCH  27  30
HETATM   30  O   UNL     1     -11.075  15.270  67.278  1.00  0.00    -0.327 OA 
HETATM   31  C   UNL     1     -11.179  16.206  68.344  1.00  0.00    -0.358 C  
ENDBRANCH  27  30
ENDBRANCH  13  24
ENDBRANCH  10  12
ENDBRANCH   9  10
ENDBRANCH   7   9
ENDBRANCH   3   4
ENDBRANCH   2   3
TORSDOF 9
ENDMDL
MODEL      109
REMARK 921   NORMALIZED FREE ENERGY PREDICTED BY IDOCK:   -4.12 KCAL/MOL
REMARK 922        TOTAL FREE ENERGY PREDICTED BY IDOCK:   -8.35 KCAL/MOL
REMARK 923 INTER-LIGAND FREE ENERGY PREDICTED BY IDOCK:   -6.90 KCAL/MOL
REMARK 924 INTRA-LIGAND FREE ENERGY PREDICTED BY IDOCK:   -1.45 KCAL/MOL
REMARK 927      BINDING AFFINITY PREDICTED BY RF-SCORE:    0.00 PKD
ROOT
HETATM    1  C   UNL     1      -8.538  16.919  67.899  1.00  0.00    -0.208 C  
HETATM    2  C   UNL     1      -9.936  17.522  67.911  1.00  0.00    -0.312 C  
ENDROOT
BRANCH   2   3
HETATM    3  C   UNL     1     -10.778  16.895  69.018  1.00  0.00    -0.308 C  
BRANCH   3   4
HETATM    4  C   UNL     1     -11.428  15.577  68.584  1.00  0.00    -0.367 C  
HETATM    5  C   UNL     1     -11.228  14.456  69.624  1.00  0.00    -0.274 C  
HETATM    6  C   UNL     1     -11.748  14.824  71.036  1.00  0.00    -0.358 C  
HETATM    7  C   UNL     1     -11.811  13.125  69.110  1.00  0.00    -0.314 C  
HETATM    8  C   UNL     1     -13.243  15.101  71.124  1.00  0.00    -0.535 C  
BRANCH   7   9
HETATM    9  O   UNL     1     -11.564  12.119  70.104  1.00  0.00    -0.248 OA 
BRANCH   9  10
HETATM   10  C   UNL     1     -12.300  10.984  70.092  1.00  0.00    -0.311 C  
HETATM   11  O   UNL     1     -13.432  10.874  69.649  1.00  0.00     0.424 OA 
BRANCH  10  12
HETATM   12  C   UNL     1     -11.448   9.827  70.488  1.00  0.00    -0.370 C  
HETATM   13  C   UNL     1     -10.430   9.294  69.753  1.00  0.00    -0.235 C  
BRANCH  12  14
HETATM   14  C   UNL     1     -11.912   9.141  71.762  1.00  0.00    -0.379 C  
HETATM   15  H1  UNL     1     -12.609   8.110  73.674  1.00  0.00     0.000 HD 
HETATM   16  N   UNL     1     -12.298   8.571  72.820  1.00  0.00    -0.520 NA 
HETATM   17  H2  UNL     1     -13.041   7.876  72.886  1.00  0.00     0.000 HD 
ENDBRANCH  12  14
BRANCH  13  18
HETATM   18  C   UNL     1      -9.932   9.965  68.524  1.00  0.00    -0.175 A  
HETATM   19  C   UNL     1     -10.490   9.659  67.277  1.00  0.00    -0.323 A  
HETATM   20  C   UNL     1      -8.872  10.881  68.586  1.00  0.00    -0.158 A  
HETATM   21  C   UNL     1      -8.317  11.405  67.416  1.00  0.00    -0.144 A  
HETATM   22  C   UNL     1      -8.845  11.053  66.178  1.00  0.00    -0.197 A  
HETATM   23  C   UNL     1      -9.947  10.203  66.110  1.00  0.00    -0.310 A  
ENDBRANCH  13  18
BRANCH  13  24
HETATM   24  C   UNL     1      -9.857   7.977  70.152  1.00  0.00    -0.184 A  
HETATM   25  C   UNL     1     -10.016   5.549  70.175  1.00  0.00    -0.287 A  
HETATM   26  C   UNL     1     -10.526   6.794  69.797  1.00  0.00    -0.240 A  
HETATM   27  C   UNL     1      -8.822   5.464  70.881  1.00  0.00    -0.138 A  
HETATM   28  C   UNL     1      -8.153   6.633  71.248  1.00  0.00    -0.112 A  
HETATM   29  C   UNL     1      -8.670   7.889  70.885  1.00  0.00    -0.139 A  
BRANCH  27  30
HETATM   30  O   UNL     1      -8.434   4.193  71.217  1.00  0.00    -0.082 OA 
HETATM   31  C   UNL     1      -8.391   3.895  72.607  1.00  0.00    -0.098 C  
ENDBRANCH  27  30
ENDBRANCH  13  24
ENDBRANCH  10  12
ENDBRANCH   9  10
ENDBRANCH   7   9
ENDBRANCH   3   4
ENDBRANCH   2   3
TORSDOF 9
ENDMDL
MODEL      110
REMARK 921   NORMALIZED FREE ENERGY PREDICTED BY IDOCK:   -4.08 KCAL/MOL
REMARK 922        TOTAL FREE ENERGY PREDICTED BY IDOCK:   -8.30 KCAL/MOL
REMARK 923 INTER-LIGAND FREE ENERGY PREDICTED BY IDOCK:   -7.12 KCAL/MOL
REMARK 924 INTRA-LIGAND FREE ENERGY PREDICTED BY IDOCK:   -1.18 KCAL/MOL
REMARK 927      BINDING AFFINITY PREDICTED BY RF-SCORE:    0.00 PKD
ROOT
HETATM    1  C   UNL     1     -13.571  13.594  72.378  1.00  0.00    -0.703 C  
HETATM    2  C   UNL     1     -13.742  15.093  72.171  1.00  0.00    -0.583 C  
ENDROOT
BRANCH   2   3
HETATM    3  C   UNL     1     -13.096  15.528  70.859  1.00  0.00    -0.508 C  
BRANCH   3   4
HETATM    4  C   UNL     1     -11.649  15.042  70.729  1.00  0.00    -0.364 C  
HETATM    5  C   UNL     1     -11.266  14.732  69.267  1.00  0.00    -0.303 C  
HETATM    6  C   UNL     1     -11.476  15.929  68.307  1.00  0.00    -0.320 C  
HETATM    7  C   UNL     1      -9.839  14.156  69.189  1.00  0.00     0.067 C  
HETATM    8  C   UNL     1     -10.640  17.163  68.619  1.00  0.00    -0.352 C  
BRANCH   7   9
HETATM    9  O   UNL     1      -9.555  13.858  67.813  1.00  0.00    -0.210 OA 
BRANCH   9  10
HETATM   10  C   UNL     1      -8.289  13.550  67.451  1.00  0.00    -0.194 C  
HETATM   11  O   UNL     1      -7.304  14.243  67.646  1.00  0.00    -0.149 OA 
BRANCH  10  12
HETATM   12  C   UNL     1      -8.229  12.135  66.985  1.00  0.00    -0.164 C  
HETATM   13  C   UNL     1      -9.174  11.497  66.237  1.00  0.00    -0.222 C  
BRANCH  12  14
HETATM   14  C   UNL     1      -7.057  11.357  67.562  1.00  0.00    -0.106 C  
HETATM   15  H1  UNL     1      -5.299  10.189  68.426  1.00  0.00     0.000 HD 
HETATM   16  N   UNL     1      -6.085  10.711  68.040  1.00  0.00    -0.047 NA 
HETATM   17  H2  UNL     1      -5.550   9.991  67.554  1.00  0.00     0.000 HD 
ENDBRANCH  12  14
BRANCH  13  18
HETATM   18  C   UNL     1     -10.308  12.242  65.629  1.00  0.00    -0.287 A  
HETATM   19  C   UNL     1     -10.099  13.054  64.508  1.00  0.00    -0.254 A  
HETATM   20  C   UNL     1     -11.592  12.177  66.190  1.00  0.00    -0.418 A  
HETATM   21  C   UNL     1     -12.621  12.983  65.700  1.00  0.00    -0.349 A  
HETATM   22  C   UNL     1     -12.390  13.827  64.618  1.00  0.00    -0.410 A  
HETATM   23  C   UNL     1     -11.138  13.842  64.006  1.00  0.00    -0.052 A  
ENDBRANCH  13  18
BRANCH  13  24
HETATM   24  C   UNL     1      -9.105  10.016  66.085  1.00  0.00    -0.188 A  
HETATM   25  C   UNL     1      -9.517   7.801  67.003  1.00  0.00    -0.210 A  
HETATM   26  C   UNL     1      -9.587   9.192  67.115  1.00  0.00    -0.215 A  
HETATM   27  C   UNL     1      -8.998   7.214  65.854  1.00  0.00    -0.065 A  
HETATM   28  C   UNL     1      -8.507   8.024  64.827  1.00  0.00    -0.037 A  
HETATM   29  C   UNL     1      -8.559   9.423  64.943  1.00  0.00    -0.198 A  
BRANCH  27  30
HETATM   30  O   UNL     1      -8.957   5.844  65.868  1.00  0.00    -0.153 OA 
HETATM   31  C   UNL     1      -9.341   5.215  67.084  1.00  0.00    -0.124 C  
ENDBRANCH  27  30
ENDBRANCH  13  24
ENDBRANCH  10  12
ENDBRANCH   9  10
ENDBRANCH   7   9
ENDBRANCH   3   4
ENDBRANCH   2   3
TORSDOF 9
ENDMDL
MODEL      111
REMARK 921   NORMALIZED FREE ENERGY PREDICTED BY IDOCK:   -4.07 KCAL/MOL
REMARK 922        TOTAL FREE ENERGY PREDICTED BY IDOCK:   -8.28 KCAL/MOL
REMARK 923 INTER-LIGAND FREE ENERGY PREDICTED BY IDOCK:   -6.83 KCAL/MOL
REMARK 924 INTRA-LIGAND FREE ENERGY PREDICTED BY IDOCK:   -1.45 KCAL/MOL
REMARK 927      BINDING AFFINITY PREDICTED BY RF-SCORE:    0.00 PKD
ROOT
HETATM    1  C   UNL     1      -5.917  14.285  71.201  1.00  0.00    -0.156 C  
HETATM    2  C   UNL     1      -5.204  14.113  69.866  1.00  0.00    -0.093 C  
ENDROOT
BRANCH   2   3
HETATM    3  C   UNL     1      -5.961  14.842  68.759  1.00  0.00    -0.084 C  
BRANCH   3   4
HETATM    4  C   UNL     1      -7.460  14.528  68.769  1.00  0.00    -0.132 C  
HETATM    5  C   UNL     1      -7.904  13.753  67.512  1.00  0.00    -0.189 C  
HETATM    6  C   UNL     1      -7.122  12.434  67.292  1.00  0.00    -0.128 C  
HETATM    7  C   UNL     1      -9.429  13.541  67.512  1.00  0.00    -0.222 C  
HETATM    8  C   UNL     1      -7.277  11.398  68.397  1.00  0.00    -0.087 C  
BRANCH   7   9
HETATM    9  O   UNL     1      -9.782  12.847  66.306  1.00  0.00    -0.267 OA 
BRANCH   9  10
HETATM   10  C   UNL     1     -10.894  12.077  66.287  1.00  0.00    -0.279 C  
HETATM   11  O   UNL     1     -12.040  12.483  66.186  1.00  0.00    -0.571 OA 
BRANCH  10  12
HETATM   12  C   UNL     1     -10.509  10.642  66.174  1.00  0.00    -0.260 C  
HETATM   13  C   UNL     1     -10.413   9.754  67.206  1.00  0.00    -0.324 C  
BRANCH  12  14
HETATM   14  C   UNL     1     -10.052  10.245  64.780  1.00  0.00    -0.266 C  
HETATM   15  H1  UNL     1      -9.366   9.649  62.687  1.00  0.00     0.000 HD 
HETATM   16  N   UNL     1      -9.673   9.915  63.623  1.00  0.00    -0.492 NA 
HETATM   17  H2  UNL     1     -10.227   9.405  62.936  1.00  0.00     0.000 HD 
ENDBRANCH  12  14
BRANCH  13  18
HETATM   18  C   UNL     1     -10.889  10.103  68.570  1.00  0.00    -0.278 A  
HETATM   19  C   UNL     1     -10.291   9.522  69.695  1.00  0.00    -0.236 A  
HETATM   20  C   UNL     1     -11.965  10.983  68.752  1.00  0.00    -0.295 A  
HETATM   21  C   UNL     1     -12.496  11.201  70.025  1.00  0.00    -0.292 A  
HETATM   22  C   UNL     1     -11.929  10.578  71.132  1.00  0.00    -0.435 A  
HETATM   23  C   UNL     1     -10.811   9.762  70.970  1.00  0.00    -0.378 A  
ENDBRANCH  13  18
BRANCH  13  24
HETATM   24  C   UNL     1      -9.755   8.437  66.974  1.00  0.00    -0.268 A  
HETATM   25  C   UNL     1      -7.722   7.158  66.585  1.00  0.00    -0.097 A  
HETATM   26  C   UNL     1      -8.360   8.378  66.820  1.00  0.00    -0.109 A  
HETATM   27  C   UNL     1      -8.458   5.979  66.533  1.00  0.00    -0.115 A  
HETATM   28  C   UNL     1      -9.846   6.026  66.675  1.00  0.00    -0.202 A  
HETATM   29  C   UNL     1     -10.494   7.254  66.894  1.00  0.00    -0.369 A  
BRANCH  27  30
HETATM   30  O   UNL     1      -7.728   4.848  66.272  1.00  0.00    -0.090 OA 
HETATM   31  C   UNL     1      -8.450   3.740  65.749  1.00  0.00    -0.110 C  
ENDBRANCH  27  30
ENDBRANCH  13  24
ENDBRANCH  10  12
ENDBRANCH   9  10
ENDBRANCH   7   9
ENDBRANCH   3   4
ENDBRANCH   2   3
TORSDOF 9
ENDMDL
MODEL      112
REMARK 921   NORMALIZED FREE ENERGY PREDICTED BY IDOCK:   -4.06 KCAL/MOL
REMARK 922        TOTAL FREE ENERGY PREDICTED BY IDOCK:   -8.27 KCAL/MOL
REMARK 923 INTER-LIGAND FREE ENERGY PREDICTED BY IDOCK:   -6.16 KCAL/MOL
REMARK 924 INTRA-LIGAND FREE ENERGY PREDICTED BY IDOCK:   -2.11 KCAL/MOL
REMARK 927      BINDING AFFINITY PREDICTED BY RF-SCORE:    0.00 PKD
ROOT
HETATM    1  C   UNL     1      -7.907   5.341  70.783  1.00  0.00    -0.093 C  
HETATM    2  C   UNL     1      -9.400   5.596  70.932  1.00  0.00    -0.190 C  
ENDROOT
BRANCH   2   3
HETATM    3  C   UNL     1     -10.179   4.858  69.847  1.00  0.00    -0.299 C  
BRANCH   3   4
HETATM    4  C   UNL     1     -10.707   5.800  68.761  1.00  0.00    -0.318 C  
HETATM    5  C   UNL     1      -9.613   6.197  67.748  1.00  0.00    -0.114 C  
HETATM    6  C   UNL     1      -8.934   4.982  67.066  1.00  0.00    -0.112 C  
HETATM    7  C   UNL     1     -10.156   7.217  66.731  1.00  0.00    -0.221 C  
HETATM    8  C   UNL     1      -9.861   4.107  66.233  1.00  0.00    -0.208 C  
BRANCH   7   9
HETATM    9  O   UNL     1      -9.086   7.570  65.840  1.00  0.00    -0.137 OA 
BRANCH   9  10
HETATM   10  C   UNL     1      -8.028   8.263  66.320  1.00  0.00    -0.100 C  
HETATM   11  O   UNL     1      -6.951   7.787  66.642  1.00  0.00    -0.068 OA 
BRANCH  10  12
HETATM   12  C   UNL     1      -8.281   9.726  66.185  1.00  0.00    -0.120 C  
HETATM   13  C   UNL     1      -8.944  10.511  67.082  1.00  0.00    -0.147 C  
BRANCH  12  14
HETATM   14  C   UNL     1      -7.869  10.289  64.834  1.00  0.00    -0.134 C  
HETATM   15  H1  UNL     1      -7.249  11.136  62.809  1.00  0.00     0.000 HD 
HETATM   16  N   UNL     1      -7.526  10.757  63.714  1.00  0.00    -0.334 NA 
HETATM   17  H2  UNL     1      -7.375  11.743  63.500  1.00  0.00     0.000 HD 
ENDBRANCH  12  14
BRANCH  13  18
HETATM   18  C   UNL     1      -9.325   9.996  68.423  1.00  0.00    -0.139 A  
HETATM   19  C   UNL     1     -10.667   9.729  68.721  1.00  0.00    -0.243 A  
HETATM   20  C   UNL     1      -8.359   9.810  69.422  1.00  0.00    -0.153 A  
HETATM   21  C   UNL     1      -8.737   9.459  70.719  1.00  0.00    -0.216 A  
HETATM   22  C   UNL     1     -10.079   9.247  71.019  1.00  0.00    -0.373 A  
HETATM   23  C   UNL     1     -11.039   9.354  70.015  1.00  0.00    -0.248 A  
ENDBRANCH  13  18
BRANCH  13  24
HETATM   24  C   UNL     1      -9.356  11.886  66.681  1.00  0.00    -0.210 A  
HETATM   25  C   UNL     1     -10.928  13.344  65.530  1.00  0.00    -0.294 A  
HETATM   26  C   UNL     1     -10.531  12.067  65.932  1.00  0.00    -0.290 A  
HETATM   27  C   UNL     1     -10.181  14.459  65.894  1.00  0.00    -0.325 A  
HETATM   28  C   UNL     1      -9.006  14.291  66.630  1.00  0.00    -0.212 A  
HETATM   29  C   UNL     1      -8.593  13.006  67.022  1.00  0.00    -0.165 A  
BRANCH  27  30
HETATM   30  O   UNL     1     -10.653  15.656  65.422  1.00  0.00    -0.363 OA 
HETATM   31  C   UNL     1     -10.324  16.809  66.187  1.00  0.00    -0.330 C  
ENDBRANCH  27  30
ENDBRANCH  13  24
ENDBRANCH  10  12
ENDBRANCH   9  10
ENDBRANCH   7   9
ENDBRANCH   3   4
ENDBRANCH   2   3
TORSDOF 9
ENDMDL
MODEL      113
REMARK 921   NORMALIZED FREE ENERGY PREDICTED BY IDOCK:   -4.06 KCAL/MOL
REMARK 922        TOTAL FREE ENERGY PREDICTED BY IDOCK:   -8.26 KCAL/MOL
REMARK 923 INTER-LIGAND FREE ENERGY PREDICTED BY IDOCK:   -6.84 KCAL/MOL
REMARK 924 INTRA-LIGAND FREE ENERGY PREDICTED BY IDOCK:   -1.42 KCAL/MOL
REMARK 927      BINDING AFFINITY PREDICTED BY RF-SCORE:    0.00 PKD
ROOT
HETATM    1  C   UNL     1      -8.677  17.255  67.779  1.00  0.00    -0.226 C  
HETATM    2  C   UNL     1     -10.095  17.808  67.771  1.00  0.00    -0.345 C  
ENDROOT
BRANCH   2   3
HETATM    3  C   UNL     1     -11.003  16.965  68.661  1.00  0.00    -0.262 C  
BRANCH   3   4
HETATM    4  C   UNL     1     -11.460  15.673  67.975  1.00  0.00    -0.294 C  
HETATM    5  C   UNL     1     -10.851  14.416  68.630  1.00  0.00    -0.260 C  
HETATM    6  C   UNL     1     -11.148  14.305  70.146  1.00  0.00    -0.014 C  
HETATM    7  C   UNL     1     -11.257  13.148  67.855  1.00  0.00    -0.270 C  
HETATM    8  C   UNL     1     -12.623  14.193  70.510  1.00  0.00    -0.410 C  
BRANCH   7   9
HETATM    9  O   UNL     1     -10.634  12.021  68.491  1.00  0.00    -0.218 OA 
BRANCH   9  10
HETATM   10  C   UNL     1     -11.339  10.877  68.646  1.00  0.00    -0.295 C  
HETATM   11  O   UNL     1     -12.461  10.791  69.118  1.00  0.00    -0.377 OA 
BRANCH  10  12
HETATM   12  C   UNL     1     -10.645   9.759  67.947  1.00  0.00    -0.310 C  
HETATM   13  C   UNL     1     -10.166   8.623  68.531  1.00  0.00    -0.221 C  
BRANCH  12  14
HETATM   14  C   UNL     1     -10.347  10.050  66.485  1.00  0.00    -0.198 C  
HETATM   15  H1  UNL     1      -9.901  10.489  64.291  1.00  0.00     0.000 HD 
HETATM   16  N   UNL     1     -10.101  10.293  65.272  1.00  0.00    -0.308 NA 
HETATM   17  H2  UNL     1     -10.498  11.055  64.723  1.00  0.00     0.000 HD 
ENDBRANCH  12  14
BRANCH  13  18
HETATM   18  C   UNL     1     -10.475   8.295  69.948  1.00  0.00    -0.223 A  
HETATM   19  C   UNL     1     -11.492   7.383  70.255  1.00  0.00    -0.206 A  
HETATM   20  C   UNL     1      -9.786   8.921  70.996  1.00  0.00    -0.320 A  
HETATM   21  C   UNL     1     -10.171   8.713  72.322  1.00  0.00    -0.372 A  
HETATM   22  C   UNL     1     -11.218   7.846  72.615  1.00  0.00    -0.459 A  
HETATM   23  C   UNL     1     -11.859   7.160  71.585  1.00  0.00    -0.340 A  
ENDBRANCH  13  18
BRANCH  13  24
HETATM   24  C   UNL     1      -9.259   7.731  67.754  1.00  0.00    -0.143 A  
HETATM   25  C   UNL     1      -8.962   5.777  66.336  1.00  0.00    -0.139 A  
HETATM   26  C   UNL     1      -9.795   6.637  67.056  1.00  0.00    -0.207 A  
HETATM   27  C   UNL     1      -7.594   6.013  66.274  1.00  0.00    -0.090 A  
HETATM   28  C   UNL     1      -7.048   7.093  66.971  1.00  0.00    -0.090 A  
HETATM   29  C   UNL     1      -7.879   7.950  67.712  1.00  0.00    -0.123 A  
BRANCH  27  30
HETATM   30  O   UNL     1      -6.876   5.090  65.558  1.00  0.00    -0.058 OA 
HETATM   31  C   UNL     1      -7.536   4.507  64.441  1.00  0.00    -0.071 C  
ENDBRANCH  27  30
ENDBRANCH  13  24
ENDBRANCH  10  12
ENDBRANCH   9  10
ENDBRANCH   7   9
ENDBRANCH   3   4
ENDBRANCH   2   3
TORSDOF 9
ENDMDL
MODEL      114
REMARK 921   NORMALIZED FREE ENERGY PREDICTED BY IDOCK:   -4.05 KCAL/MOL
REMARK 922        TOTAL FREE ENERGY PREDICTED BY IDOCK:   -8.26 KCAL/MOL
REMARK 923 INTER-LIGAND FREE ENERGY PREDICTED BY IDOCK:   -6.80 KCAL/MOL
REMARK 924 INTRA-LIGAND FREE ENERGY PREDICTED BY IDOCK:   -1.46 KCAL/MOL
REMARK 927      BINDING AFFINITY PREDICTED BY RF-SCORE:    0.00 PKD
ROOT
HETATM    1  C   UNL     1      -7.741  17.193  66.289  1.00  0.00    -0.350 C  
HETATM    2  C   UNL     1      -8.806  17.420  67.354  1.00  0.00    -0.230 C  
ENDROOT
BRANCH   2   3
HETATM    3  C   UNL     1      -9.108  16.120  68.092  1.00  0.00    -0.189 C  
BRANCH   3   4
HETATM    4  C   UNL     1      -8.643  14.884  67.316  1.00  0.00    -0.232 C  
HETATM    5  C   UNL     1      -9.788  13.878  67.077  1.00  0.00    -0.257 C  
HETATM    6  C   UNL     1     -11.008  14.494  66.346  1.00  0.00    -0.324 C  
HETATM    7  C   UNL     1      -9.262  12.609  66.381  1.00  0.00    -0.160 C  
HETATM    8  C   UNL     1     -10.725  15.019  64.945  1.00  0.00    -0.420 C  
BRANCH   7   9
HETATM    9  O   UNL     1     -10.364  11.702  66.218  1.00  0.00    -0.221 OA 
BRANCH   9  10
HETATM   10  C   UNL     1     -10.144  10.371  66.308  1.00  0.00    -0.231 C  
HETATM   11  O   UNL     1      -9.708   9.659  65.418  1.00  0.00    -0.297 OA 
BRANCH  10  12
HETATM   12  C   UNL     1     -10.288   9.932  67.725  1.00  0.00    -0.268 C  
HETATM   13  C   UNL     1      -9.482   9.044  68.375  1.00  0.00    -0.154 C  
BRANCH  12  14
HETATM   14  C   UNL     1     -11.554  10.444  68.392  1.00  0.00    -0.052 C  
HETATM   15  H1  UNL     1     -13.455  11.212  69.394  1.00  0.00     0.000 HD 
HETATM   16  N   UNL     1     -12.605  10.868  68.946  1.00  0.00    -0.604 NA 
HETATM   17  H2  UNL     1     -13.262  10.308  69.489  1.00  0.00     0.000 HD 
ENDBRANCH  12  14
BRANCH  13  18
HETATM   18  C   UNL     1      -8.218   8.557  67.761  1.00  0.00    -0.122 A  
HETATM   19  C   UNL     1      -8.158   7.280  67.190  1.00  0.00    -0.114 A  
HETATM   20  C   UNL     1      -7.060   9.347  67.780  1.00  0.00    -0.082 A  
HETATM   21  C   UNL     1      -5.843   8.833  67.326  1.00  0.00    -0.043 A  
HETATM   22  C   UNL     1      -5.782   7.543  66.809  1.00  0.00    -0.028 A  
HETATM   23  C   UNL     1      -6.943   6.778  66.715  1.00  0.00    -0.067 A  
ENDBRANCH  13  18
BRANCH  13  24
HETATM   24  C   UNL     1      -9.912   8.499  69.694  1.00  0.00    -0.192 A  
HETATM   25  C   UNL     1      -9.769   8.548  72.122  1.00  0.00    -0.387 A  
HETATM   26  C   UNL     1      -9.394   9.054  70.875  1.00  0.00    -0.326 A  
HETATM   27  C   UNL     1     -10.688   7.508  72.211  1.00  0.00    -0.250 A  
HETATM   28  C   UNL     1     -11.203   6.941  71.043  1.00  0.00    -0.323 A  
HETATM   29  C   UNL     1     -10.814   7.435  69.786  1.00  0.00    -0.246 A  
BRANCH  27  30
HETATM   30  O   UNL     1     -10.960   7.079  73.484  1.00  0.00    -0.302 OA 
HETATM   31  C   UNL     1      -9.840   6.697  74.273  1.00  0.00    -0.327 C  
ENDBRANCH  27  30
ENDBRANCH  13  24
ENDBRANCH  10  12
ENDBRANCH   9  10
ENDBRANCH   7   9
ENDBRANCH   3   4
ENDBRANCH   2   3
TORSDOF 9
ENDMDL
MODEL      115
REMARK 921   NORMALIZED FREE ENERGY PREDICTED BY IDOCK:   -4.04 KCAL/MOL
REMARK 922        TOTAL FREE ENERGY PREDICTED BY IDOCK:   -8.23 KCAL/MOL
REMARK 923 INTER-LIGAND FREE ENERGY PREDICTED BY IDOCK:   -6.21 KCAL/MOL
REMARK 924 INTRA-LIGAND FREE ENERGY PREDICTED BY IDOCK:   -2.02 KCAL/MOL
REMARK 927      BINDING AFFINITY PREDICTED BY RF-SCORE:    0.00 PKD
ROOT
HETATM    1  C   UNL     1      -6.051   8.634  64.610  1.00  0.00    -0.065 C  
HETATM    2  C   UNL     1      -6.194  10.023  64.002  1.00  0.00    -0.132 C  
ENDROOT
BRANCH   2   3
HETATM    3  C   UNL     1      -7.619  10.243  63.503  1.00  0.00    -0.104 C  
BRANCH   3   4
HETATM    4  C   UNL     1      -8.667   9.615  64.426  1.00  0.00    -0.230 C  
HETATM    5  C   UNL     1      -9.378  10.666  65.303  1.00  0.00    -0.256 C  
HETATM    6  C   UNL     1     -10.050  11.798  64.487  1.00  0.00    -0.312 C  
HETATM    7  C   UNL     1     -10.354   9.987  66.284  1.00  0.00    -0.165 C  
HETATM    8  C   UNL     1     -11.156  11.346  63.542  1.00  0.00    -0.373 C  
BRANCH   7   9
HETATM    9  O   UNL     1     -10.956  11.010  67.091  1.00  0.00    -0.268 OA 
BRANCH   9  10
HETATM   10  C   UNL     1     -10.226  11.597  68.066  1.00  0.00    -0.190 C  
HETATM   11  O   UNL     1      -9.653  11.018  68.975  1.00  0.00    -0.190 OA 
BRANCH  10  12
HETATM   12  C   UNL     1     -10.026  13.039  67.746  1.00  0.00    -0.227 C  
HETATM   13  C   UNL     1      -8.845  13.719  67.813  1.00  0.00    -0.188 C  
BRANCH  12  14
HETATM   14  C   UNL     1     -11.323  13.786  67.478  1.00  0.00    -0.309 C  
HETATM   15  H1  UNL     1     -13.269  14.906  67.074  1.00  0.00     0.000 HD 
HETATM   16  N   UNL     1     -12.399  14.405  67.254  1.00  0.00    -0.594 NA 
HETATM   17  H2  UNL     1     -13.188  14.053  66.712  1.00  0.00     0.000 HD 
ENDBRANCH  12  14
BRANCH  13  18
HETATM   18  C   UNL     1      -7.559  13.008  68.036  1.00  0.00    -0.139 A  
HETATM   19  C   UNL     1      -6.962  12.287  66.995  1.00  0.00    -0.036 A  
HETATM   20  C   UNL     1      -6.945  13.013  69.296  1.00  0.00     0.033 A  
HETATM   21  C   UNL     1      -5.811  12.234  69.537  1.00  0.00    -0.101 A  
HETATM   22  C   UNL     1      -5.256  11.478  68.509  1.00  0.00    -0.042 A  
HETATM   23  C   UNL     1      -5.814  11.526  67.233  1.00  0.00    -0.095 A  
ENDBRANCH  13  18
BRANCH  13  24
HETATM   24  C   UNL     1      -8.855  15.207  67.731  1.00  0.00    -0.171 A  
HETATM   25  C   UNL     1      -8.752  17.225  66.376  1.00  0.00    -0.285 A  
HETATM   26  C   UNL     1      -8.763  15.832  66.476  1.00  0.00    -0.354 A  
HETATM   27  C   UNL     1      -8.866  18.013  67.516  1.00  0.00    -0.252 A  
HETATM   28  C   UNL     1      -8.949  17.403  68.770  1.00  0.00    -0.219 A  
HETATM   29  C   UNL     1      -8.942  16.001  68.877  1.00  0.00    -0.239 A  
BRANCH  27  30
HETATM   30  O   UNL     1      -8.819  19.365  67.297  1.00  0.00    -0.285 OA 
HETATM   31  C   UNL     1      -9.601  19.854  66.214  1.00  0.00    -0.425 C  
ENDBRANCH  27  30
ENDBRANCH  13  24
ENDBRANCH  10  12
ENDBRANCH   9  10
ENDBRANCH   7   9
ENDBRANCH   3   4
ENDBRANCH   2   3
TORSDOF 9
ENDMDL
MODEL      116
REMARK 921   NORMALIZED FREE ENERGY PREDICTED BY IDOCK:   -4.03 KCAL/MOL
REMARK 922        TOTAL FREE ENERGY PREDICTED BY IDOCK:   -8.22 KCAL/MOL
REMARK 923 INTER-LIGAND FREE ENERGY PREDICTED BY IDOCK:   -7.83 KCAL/MOL
REMARK 924 INTRA-LIGAND FREE ENERGY PREDICTED BY IDOCK:   -0.39 KCAL/MOL
REMARK 927      BINDING AFFINITY PREDICTED BY RF-SCORE:    0.00 PKD
ROOT
HETATM    1  C   UNL     1      -8.181  20.272  67.244  1.00  0.00    -0.393 C  
HETATM    2  C   UNL     1      -9.599  19.881  67.636  1.00  0.00    -0.493 C  
ENDROOT
BRANCH   2   3
HETATM    3  C   UNL     1      -9.623  18.469  68.214  1.00  0.00    -0.370 C  
BRANCH   3   4
HETATM    4  C   UNL     1     -10.570  17.539  67.450  1.00  0.00    -0.311 C  
HETATM    5  C   UNL     1     -10.171  16.055  67.590  1.00  0.00    -0.262 C  
HETATM    6  C   UNL     1     -10.083  15.576  69.061  1.00  0.00    -0.234 C  
HETATM    7  C   UNL     1     -11.086  15.161  66.732  1.00  0.00    -0.307 C  
HETATM    8  C   UNL     1     -11.388  15.648  69.844  1.00  0.00    -0.340 C  
BRANCH   7   9
HETATM    9  O   UNL     1     -10.645  13.803  66.878  1.00  0.00    -0.273 OA 
BRANCH   9  10
HETATM   10  C   UNL     1     -11.399  12.804  66.367  1.00  0.00    -0.323 C  
HETATM   11  O   UNL     1     -12.603  12.849  66.169  1.00  0.00    -0.429 OA 
BRANCH  10  12
HETATM   12  C   UNL     1     -10.516  11.716  65.858  1.00  0.00    -0.300 C  
HETATM   13  C   UNL     1     -10.024  10.676  66.591  1.00  0.00    -0.259 C  
BRANCH  12  14
HETATM   14  C   UNL     1     -10.043  11.936  64.431  1.00  0.00    -0.279 C  
HETATM   15  H1  UNL     1      -9.333  12.267  62.288  1.00  0.00     0.000 HD 
HETATM   16  N   UNL     1      -9.651  12.119  63.246  1.00  0.00    -0.650 NA 
HETATM   17  H2  UNL     1      -8.768  12.549  62.970  1.00  0.00     0.000 HD 
ENDBRANCH  12  14
BRANCH  13  18
HETATM   18  C   UNL     1     -10.498  10.415  67.976  1.00  0.00    -0.232 A  
HETATM   19  C   UNL     1     -11.750  10.884  68.392  1.00  0.00    -0.290 A  
HETATM   20  C   UNL     1      -9.688   9.736  68.896  1.00  0.00    -0.172 A  
HETATM   21  C   UNL     1     -10.079   9.614  70.231  1.00  0.00    -0.331 A  
HETATM   22  C   UNL     1     -11.302  10.130  70.648  1.00  0.00    -0.433 A  
HETATM   23  C   UNL     1     -12.149  10.739  69.723  1.00  0.00    -0.389 A  
ENDBRANCH  13  18
BRANCH  13  24
HETATM   24  C   UNL     1      -8.940   9.829  66.017  1.00  0.00    -0.186 A  
HETATM   25  C   UNL     1      -8.249   7.737  64.983  1.00  0.00    -0.123 A  
HETATM   26  C   UNL     1      -9.251   8.556  65.510  1.00  0.00    -0.109 A  
HETATM   27  C   UNL     1      -6.934   8.186  64.924  1.00  0.00    -0.074 A  
HETATM   28  C   UNL     1      -6.612   9.445  65.433  1.00  0.00    -0.071 A  
HETATM   29  C   UNL     1      -7.613  10.265  65.981  1.00  0.00    -0.128 A  
BRANCH  27  30
HETATM   30  O   UNL     1      -6.036   7.287  64.409  1.00  0.00    -0.037 OA 
HETATM   31  C   UNL     1      -6.535   6.392  63.423  1.00  0.00    -0.033 C  
ENDBRANCH  27  30
ENDBRANCH  13  24
ENDBRANCH  10  12
ENDBRANCH   9  10
ENDBRANCH   7   9
ENDBRANCH   3   4
ENDBRANCH   2   3
TORSDOF 9
ENDMDL
MODEL      117
REMARK 921   NORMALIZED FREE ENERGY PREDICTED BY IDOCK:   -3.99 KCAL/MOL
REMARK 922        TOTAL FREE ENERGY PREDICTED BY IDOCK:   -8.17 KCAL/MOL
REMARK 923 INTER-LIGAND FREE ENERGY PREDICTED BY IDOCK:   -6.59 KCAL/MOL
REMARK 924 INTRA-LIGAND FREE ENERGY PREDICTED BY IDOCK:   -1.58 KCAL/MOL
REMARK 927      BINDING AFFINITY PREDICTED BY RF-SCORE:    0.00 PKD
ROOT
HETATM    1  C   UNL     1     -10.500  15.196  66.955  1.00  0.00    -0.282 C  
HETATM    2  C   UNL     1     -11.490  14.740  65.891  1.00  0.00    -0.319 C  
ENDROOT
BRANCH   2   3
HETATM    3  C   UNL     1     -12.279  13.529  66.380  1.00  0.00    -0.454 C  
BRANCH   3   4
HETATM    4  C   UNL     1     -11.757  12.989  67.715  1.00  0.00    -0.405 C  
HETATM    5  C   UNL     1     -11.419  11.485  67.646  1.00  0.00    -0.357 C  
HETATM    6  C   UNL     1     -10.400  11.132  66.534  1.00  0.00    -0.290 C  
HETATM    7  C   UNL     1     -10.990  10.959  69.028  1.00  0.00    -0.235 C  
HETATM    8  C   UNL     1      -9.028  11.777  66.685  1.00  0.00    -0.195 C  
BRANCH   7   9
HETATM    9  O   UNL     1     -10.724   9.553  68.906  1.00  0.00    -0.222 OA 
BRANCH   9  10
HETATM   10  C   UNL     1     -11.139   8.714  69.882  1.00  0.00    -0.116 C  
HETATM   11  O   UNL     1     -11.942   8.985  70.760  1.00  0.00    -0.264 OA 
BRANCH  10  12
HETATM   12  C   UNL     1     -10.653   7.334  69.599  1.00  0.00    -0.246 C  
HETATM   13  C   UNL     1      -9.768   6.625  70.357  1.00  0.00    -0.186 C  
BRANCH  12  14
HETATM   14  C   UNL     1     -11.110   6.795  68.253  1.00  0.00    -0.141 C  
HETATM   15  H1  UNL     1     -11.795   5.985  66.233  1.00  0.00     0.000 HD 
HETATM   16  N   UNL     1     -11.489   6.347  67.136  1.00  0.00    -0.708 NA 
HETATM   17  H2  UNL     1     -11.838   5.405  66.958  1.00  0.00     0.000 HD 
ENDBRANCH  12  14
BRANCH  13  18
HETATM   18  C   UNL     1      -9.336   7.111  71.694  1.00  0.00    -0.158 A  
HETATM   19  C   UNL     1      -8.273   8.015  71.805  1.00  0.00    -0.151 A  
HETATM   20  C   UNL     1      -9.954   6.643  72.862  1.00  0.00    -0.187 A  
HETATM   21  C   UNL     1      -9.456   6.996  74.119  1.00  0.00    -0.285 A  
HETATM   22  C   UNL     1      -8.365   7.853  74.219  1.00  0.00    -0.297 A  
HETATM   23  C   UNL     1      -7.792   8.384  73.065  1.00  0.00    -0.139 A  
ENDBRANCH  13  18
BRANCH  13  24
HETATM   24  C   UNL     1      -9.172   5.376  69.804  1.00  0.00    -0.169 A  
HETATM   25  C   UNL     1      -7.388   4.287  68.558  1.00  0.00    -0.060 A  
HETATM   26  C   UNL     1      -7.958   5.441  69.101  1.00  0.00    -0.094 A  
HETATM   27  C   UNL     1      -8.001   3.051  68.735  1.00  0.00    -0.056 A  
HETATM   28  C   UNL     1      -9.213   2.975  69.424  1.00  0.00    -0.214 A  
HETATM   29  C   UNL     1      -9.799   4.136  69.956  1.00  0.00    -0.245 A  
BRANCH  27  30
HETATM   30  O   UNL     1      -7.364   1.995  68.137  1.00  0.00    -0.046 OA 
HETATM   31  C   UNL     1      -7.696   1.748  66.776  1.00  0.00    -0.065 C  
ENDBRANCH  27  30
ENDBRANCH  13  24
ENDBRANCH  10  12
ENDBRANCH   9  10
ENDBRANCH   7   9
ENDBRANCH   3   4
ENDBRANCH   2   3
TORSDOF 9
ENDMDL
MODEL      118
REMARK 921   NORMALIZED FREE ENERGY PREDICTED BY IDOCK:   -3.99 KCAL/MOL
REMARK 922        TOTAL FREE ENERGY PREDICTED BY IDOCK:   -8.16 KCAL/MOL
REMARK 923 INTER-LIGAND FREE ENERGY PREDICTED BY IDOCK:   -6.04 KCAL/MOL
REMARK 924 INTRA-LIGAND FREE ENERGY PREDICTED BY IDOCK:   -2.12 KCAL/MOL
REMARK 927      BINDING AFFINITY PREDICTED BY RF-SCORE:    0.00 PKD
ROOT
HETATM    1  C   UNL     1      -8.773   4.977  67.823  1.00  0.00    -0.103 C  
HETATM    2  C   UNL     1     -10.003   5.874  67.778  1.00  0.00    -0.156 C  
ENDROOT
BRANCH   2   3
HETATM    3  C   UNL     1      -9.738   7.180  68.520  1.00  0.00    -0.143 C  
BRANCH   3   4
HETATM    4  C   UNL     1      -8.367   7.776  68.186  1.00  0.00    -0.124 C  
HETATM    5  C   UNL     1      -8.284   9.279  68.525  1.00  0.00    -0.114 C  
HETATM    6  C   UNL     1      -8.617   9.597  70.005  1.00  0.00    -0.237 C  
HETATM    7  C   UNL     1      -6.927   9.862  68.087  1.00  0.00    -0.076 C  
HETATM    8  C   UNL     1      -7.679   8.969  71.028  1.00  0.00    -0.153 C  
BRANCH   7   9
HETATM    9  O   UNL     1      -6.925  11.264  68.398  1.00  0.00    -0.063 OA 
BRANCH   9  10
HETATM   10  C   UNL     1      -6.637  12.156  67.424  1.00  0.00    -0.147 C  
HETATM   11  O   UNL     1      -5.988  11.926  66.415  1.00  0.00    -0.171 OA 
BRANCH  10  12
HETATM   12  C   UNL     1      -7.419  13.406  67.638  1.00  0.00    -0.182 C  
HETATM   13  C   UNL     1      -8.755  13.565  67.411  1.00  0.00    -0.220 C  
BRANCH  12  14
HETATM   14  C   UNL     1      -6.558  14.606  67.997  1.00  0.00    -0.146 C  
HETATM   15  H1  UNL     1      -5.265  16.408  68.535  1.00  0.00     0.000 HD 
HETATM   16  N   UNL     1      -5.843  15.602  68.295  1.00  0.00    -0.107 NA 
HETATM   17  H2  UNL     1      -5.739  16.450  67.737  1.00  0.00     0.000 HD 
ENDBRANCH  12  14
BRANCH  13  18
HETATM   18  C   UNL     1      -9.627  12.402  67.096  1.00  0.00    -0.206 A  
HETATM   19  C   UNL     1     -10.603  11.986  68.009  1.00  0.00    -0.233 A  
HETATM   20  C   UNL     1      -9.460  11.681  65.906  1.00  0.00    -0.246 A  
HETATM   21  C   UNL     1     -10.186  10.511  65.677  1.00  0.00    -0.315 A  
HETATM   22  C   UNL     1     -11.117  10.075  66.615  1.00  0.00     0.191 A  
HETATM   23  C   UNL     1     -11.345  10.827  67.766  1.00  0.00    -0.354 A  
ENDBRANCH  13  18
BRANCH  13  24
HETATM   24  C   UNL     1      -9.335  14.937  67.408  1.00  0.00    -0.202 A  
HETATM   25  C   UNL     1      -9.628  17.080  66.292  1.00  0.00    -0.289 A  
HETATM   26  C   UNL     1      -9.109  15.783  66.309  1.00  0.00    -0.373 A  
HETATM   27  C   UNL     1     -10.404  17.540  67.350  1.00  0.00    -0.351 A  
HETATM   28  C   UNL     1     -10.629  16.712  68.451  1.00  0.00    -0.343 A  
HETATM   29  C   UNL     1     -10.094  15.412  68.481  1.00  0.00    -0.213 A  
BRANCH  27  30
HETATM   30  O   UNL     1     -10.838  18.835  67.233  1.00  0.00    -0.443 OA 
HETATM   31  C   UNL     1     -10.288  19.589  66.159  1.00  0.00    -0.520 C  
ENDBRANCH  27  30
ENDBRANCH  13  24
ENDBRANCH  10  12
ENDBRANCH   9  10
ENDBRANCH   7   9
ENDBRANCH   3   4
ENDBRANCH   2   3
TORSDOF 9
ENDMDL
MODEL      119
REMARK 921   NORMALIZED FREE ENERGY PREDICTED BY IDOCK:   -3.98 KCAL/MOL
REMARK 922        TOTAL FREE ENERGY PREDICTED BY IDOCK:   -8.15 KCAL/MOL
REMARK 923 INTER-LIGAND FREE ENERGY PREDICTED BY IDOCK:   -7.03 KCAL/MOL
REMARK 924 INTRA-LIGAND FREE ENERGY PREDICTED BY IDOCK:   -1.12 KCAL/MOL
REMARK 927      BINDING AFFINITY PREDICTED BY RF-SCORE:    0.00 PKD
ROOT
HETATM    1  C   UNL     1      -5.205  19.456  67.695  1.00  0.00    -0.172 C  
HETATM    2  C   UNL     1      -6.200  19.035  66.622  1.00  0.00    -0.195 C  
ENDROOT
BRANCH   2   3
HETATM    3  C   UNL     1      -7.435  19.930  66.659  1.00  0.00    -0.283 C  
BRANCH   3   4
HETATM    4  C   UNL     1      -8.566  19.405  65.770  1.00  0.00     0.148 C  
HETATM    5  C   UNL     1      -9.107  18.043  66.253  1.00  0.00    -0.197 C  
HETATM    6  C   UNL     1      -9.599  18.061  67.722  1.00  0.00    -0.278 C  
HETATM    7  C   UNL     1     -10.173  17.504  65.280  1.00  0.00     0.454 C  
HETATM    8  C   UNL     1     -10.762  19.003  68.004  1.00  0.00    -0.297 C  
BRANCH   7   9
HETATM    9  O   UNL     1     -10.611  16.225  65.765  1.00  0.00    -0.345 OA 
BRANCH   9  10
HETATM   10  C   UNL     1     -11.486  15.504  65.029  1.00  0.00    -0.218 C  
HETATM   11  O   UNL     1     -12.212  15.944  64.151  1.00  0.00    -0.636 OA 
BRANCH  10  12
HETATM   12  C   UNL     1     -11.277  14.050  65.280  1.00  0.00    -0.319 C  
HETATM   13  C   UNL     1     -10.879  13.489  66.458  1.00  0.00    -0.283 C  
BRANCH  12  14
HETATM   14  C   UNL     1     -11.387  13.196  64.027  1.00  0.00    -0.394 C  
HETATM   15  H1  UNL     1     -11.553  11.917  62.146  1.00  0.00     0.000 HD 
HETATM   16  N   UNL     1     -11.479  12.489  62.987  1.00  0.00    -0.715 NA 
HETATM   17  H2  UNL     1     -11.919  12.770  62.110  1.00  0.00     0.000 HD 
ENDBRANCH  12  14
BRANCH  13  18
HETATM   18  C   UNL     1     -10.800  14.293  67.707  1.00  0.00    -0.259 A  
HETATM   19  C   UNL     1      -9.559  14.550  68.302  1.00  0.00    -0.212 A  
HETATM   20  C   UNL     1     -11.963  14.768  68.329  1.00  0.00    -0.258 A  
HETATM   21  C   UNL     1     -11.894  15.403  69.571  1.00  0.00    -0.370 A  
HETATM   22  C   UNL     1     -10.660  15.608  70.180  1.00  0.00    -0.348 A  
HETATM   23  C   UNL     1      -9.493  15.207  69.533  1.00  0.00    -0.151 A  
ENDBRANCH  13  18
BRANCH  13  24
HETATM   24  C   UNL     1     -10.449  12.062  66.478  1.00  0.00    -0.253 A  
HETATM   25  C   UNL     1      -8.864  10.349  65.791  1.00  0.00    -0.186 A  
HETATM   26  C   UNL     1      -9.278  11.683  65.802  1.00  0.00    -0.184 A  
HETATM   27  C   UNL     1      -9.591   9.382  66.478  1.00  0.00    -0.208 A  
HETATM   28  C   UNL     1     -10.762   9.746  67.145  1.00  0.00    -0.273 A  
HETATM   29  C   UNL     1     -11.192  11.084  67.144  1.00  0.00    -0.290 A  
BRANCH  27  30
HETATM   30  O   UNL     1      -9.103   8.106  66.375  1.00  0.00    -0.162 OA 
HETATM   31  C   UNL     1      -8.257   7.842  65.262  1.00  0.00    -0.145 C  
ENDBRANCH  27  30
ENDBRANCH  13  24
ENDBRANCH  10  12
ENDBRANCH   9  10
ENDBRANCH   7   9
ENDBRANCH   3   4
ENDBRANCH   2   3
TORSDOF 9
ENDMDL
MODEL      120
REMARK 921   NORMALIZED FREE ENERGY PREDICTED BY IDOCK:   -3.98 KCAL/MOL
REMARK 922        TOTAL FREE ENERGY PREDICTED BY IDOCK:   -8.14 KCAL/MOL
REMARK 923 INTER-LIGAND FREE ENERGY PREDICTED BY IDOCK:   -8.24 KCAL/MOL
REMARK 924 INTRA-LIGAND FREE ENERGY PREDICTED BY IDOCK:    0.10 KCAL/MOL
REMARK 927      BINDING AFFINITY PREDICTED BY RF-SCORE:    0.00 PKD
ROOT
HETATM    1  C   UNL     1      -9.738  18.196  68.590  1.00  0.00    -0.367 C  
HETATM    2  C   UNL     1      -8.662  17.397  67.868  1.00  0.00    -0.237 C  
ENDROOT
BRANCH   2   3
HETATM    3  C   UNL     1      -9.169  16.925  66.508  1.00  0.00    -0.295 C  
BRANCH   3   4
HETATM    4  C   UNL     1      -8.948  15.425  66.288  1.00  0.00    -0.341 C  
HETATM    5  C   UNL     1      -9.852  14.562  67.191  1.00  0.00    -0.245 C  
HETATM    6  C   UNL     1     -11.362  14.870  67.028  1.00  0.00    -0.345 C  
HETATM    7  C   UNL     1      -9.533  13.066  67.011  1.00  0.00    -0.237 C  
HETATM    8  C   UNL     1     -11.929  14.611  65.638  1.00  0.00    -0.243 C  
BRANCH   7   9
HETATM    9  O   UNL     1     -10.381  12.320  67.899  1.00  0.00    -0.199 OA 
BRANCH   9  10
HETATM   10  C   UNL     1     -11.254  11.426  67.383  1.00  0.00    -0.305 C  
HETATM   11  O   UNL     1     -12.103  11.664  66.539  1.00  0.00    -0.405 OA 
BRANCH  10  12
HETATM   12  C   UNL     1     -10.884  10.050  67.821  1.00  0.00    -0.337 C  
HETATM   13  C   UNL     1     -11.026   9.545  69.080  1.00  0.00    -0.148 C  
BRANCH  12  14
HETATM   14  C   UNL     1     -10.150   9.252  66.755  1.00  0.00    -0.261 C  
HETATM   15  H1  UNL     1      -9.049   8.055  65.156  1.00  0.00     0.000 HD 
HETATM   16  N   UNL     1      -9.541   8.590  65.871  1.00  0.00    -0.445 NA 
HETATM   17  H2  UNL     1      -9.077   8.977  65.050  1.00  0.00     0.000 HD 
ENDBRANCH  12  14
BRANCH  13  18
HETATM   18  C   UNL     1     -11.772  10.288  70.130  1.00  0.00    -0.364 A  
HETATM   19  C   UNL     1     -12.479   9.592  71.118  1.00  0.00    -0.421 A  
HETATM   20  C   UNL     1     -11.816  11.689  70.124  1.00  0.00    -0.428 A  
HETATM   21  C   UNL     1     -12.628  12.377  71.027  1.00  0.00    -0.349 A  
HETATM   22  C   UNL     1     -13.369  11.675  71.973  1.00  0.00    -0.405 A  
HETATM   23  C   UNL     1     -13.272  10.286  72.036  1.00  0.00    -0.516 A  
ENDBRANCH  13  18
BRANCH  13  24
HETATM   24  C   UNL     1     -10.361   8.257  69.427  1.00  0.00    -0.223 A  
HETATM   25  C   UNL     1      -8.438   7.080  70.342  1.00  0.00    -0.141 A  
HETATM   26  C   UNL     1      -9.089   8.274  70.024  1.00  0.00    -0.150 A  
HETATM   27  C   UNL     1      -9.056   5.857  70.102  1.00  0.00    -0.145 A  
HETATM   28  C   UNL     1     -10.316   5.828  69.501  1.00  0.00    -0.333 A  
HETATM   29  C   UNL     1     -10.967   7.026  69.162  1.00  0.00    -0.193 A  
BRANCH  27  30
HETATM   30  O   UNL     1      -8.312   4.755  70.432  1.00  0.00    -0.084 OA 
HETATM   31  C   UNL     1      -7.287   4.953  71.399  1.00  0.00    -0.073 C  
ENDBRANCH  27  30
ENDBRANCH  13  24
ENDBRANCH  10  12
ENDBRANCH   9  10
ENDBRANCH   7   9
ENDBRANCH   3   4
ENDBRANCH   2   3
TORSDOF 9
ENDMDL
MODEL      121
REMARK 921   NORMALIZED FREE ENERGY PREDICTED BY IDOCK:   -3.96 KCAL/MOL
REMARK 922        TOTAL FREE ENERGY PREDICTED BY IDOCK:   -8.11 KCAL/MOL
REMARK 923 INTER-LIGAND FREE ENERGY PREDICTED BY IDOCK:   -6.86 KCAL/MOL
REMARK 924 INTRA-LIGAND FREE ENERGY PREDICTED BY IDOCK:   -1.25 KCAL/MOL
REMARK 927      BINDING AFFINITY PREDICTED BY RF-SCORE:    0.00 PKD
ROOT
HETATM    1  C   UNL     1      -8.900   3.872  63.949  1.00  0.00    -0.112 C  
HETATM    2  C   UNL     1      -7.557   4.563  63.756  1.00  0.00    -0.067 C  
ENDROOT
BRANCH   2   3
HETATM    3  C   UNL     1      -6.905   4.850  65.105  1.00  0.00    -0.053 C  
BRANCH   3   4
HETATM    4  C   UNL     1      -6.404   6.293  65.219  1.00  0.00    -0.038 C  
HETATM    5  C   UNL     1      -7.521   7.268  65.643  1.00  0.00    -0.085 C  
HETATM    6  C   UNL     1      -8.211   6.876  66.973  1.00  0.00    -0.120 C  
HETATM    7  C   UNL     1      -7.003   8.719  65.653  1.00  0.00    -0.079 C  
HETATM    8  C   UNL     1      -7.301   6.858  68.194  1.00  0.00    -0.097 C  
BRANCH   7   9
HETATM    9  O   UNL     1      -8.093   9.578  66.020  1.00  0.00    -0.109 OA 
BRANCH   9  10
HETATM   10  C   UNL     1      -7.842  10.693  66.743  1.00  0.00    -0.126 C  
HETATM   11  O   UNL     1      -6.990  11.530  66.490  1.00  0.00    -0.106 OA 
BRANCH  10  12
HETATM   12  C   UNL     1      -8.907  10.879  67.769  1.00  0.00    -0.135 C  
HETATM   13  C   UNL     1     -10.081  11.551  67.592  1.00  0.00    -0.202 C  
BRANCH  12  14
HETATM   14  C   UNL     1      -8.514  10.379  69.149  1.00  0.00    -0.164 C  
HETATM   15  H1  UNL     1      -7.922   9.629  71.221  1.00  0.00     0.000 HD 
HETATM   16  N   UNL     1      -8.186   9.964  70.295  1.00  0.00    -0.295 NA 
HETATM   17  H2  UNL     1      -7.544  10.429  70.937  1.00  0.00     0.000 HD 
ENDBRANCH  12  14
BRANCH  13  18
HETATM   18  C   UNL     1     -10.508  12.017  66.246  1.00  0.00    -0.273 A  
HETATM   19  C   UNL     1     -11.028  11.107  65.318  1.00  0.00    -0.153 A  
HETATM   20  C   UNL     1     -10.360  13.359  65.871  1.00  0.00    -0.290 A  
HETATM   21  C   UNL     1     -10.634  13.764  64.562  1.00  0.00    -0.405 A  
HETATM   22  C   UNL     1     -11.100  12.842  63.631  1.00  0.00    -0.443 A  
HETATM   23  C   UNL     1     -11.323  11.521  64.016  1.00  0.00    -0.380 A  
ENDBRANCH  13  18
BRANCH  13  24
HETATM   24  C   UNL     1     -10.914  11.887  68.781  1.00  0.00    -0.280 A  
HETATM   25  C   UNL     1     -12.318  11.144  70.625  1.00  0.00    -0.482 A  
HETATM   26  C   UNL     1     -11.518  10.853  69.518  1.00  0.00    -0.372 A  
HETATM   27  C   UNL     1     -12.501  12.461  71.034  1.00  0.00    -0.256 A  
HETATM   28  C   UNL     1     -11.914  13.497  70.304  1.00  0.00    -0.386 A  
HETATM   29  C   UNL     1     -11.123  13.210  69.178  1.00  0.00    -0.248 A  
BRANCH  27  30
HETATM   30  O   UNL     1     -13.324  12.625  72.117  1.00  0.00    -0.524 OA 
HETATM   31  C   UNL     1     -13.736  13.957  72.399  1.00  0.00    -0.576 C  
ENDBRANCH  27  30
ENDBRANCH  13  24
ENDBRANCH  10  12
ENDBRANCH   9  10
ENDBRANCH   7   9
ENDBRANCH   3   4
ENDBRANCH   2   3
TORSDOF 9
ENDMDL
MODEL      122
REMARK 921   NORMALIZED FREE ENERGY PREDICTED BY IDOCK:   -3.95 KCAL/MOL
REMARK 922        TOTAL FREE ENERGY PREDICTED BY IDOCK:   -8.10 KCAL/MOL
REMARK 923 INTER-LIGAND FREE ENERGY PREDICTED BY IDOCK:   -7.03 KCAL/MOL
REMARK 924 INTRA-LIGAND FREE ENERGY PREDICTED BY IDOCK:   -1.07 KCAL/MOL
REMARK 927      BINDING AFFINITY PREDICTED BY RF-SCORE:    0.00 PKD
ROOT
HETATM    1  C   UNL     1     -14.159  13.271  72.406  1.00  0.00    -0.460 C  
HETATM    2  C   UNL     1     -12.846  14.042  72.366  1.00  0.00    -0.406 C  
ENDROOT
BRANCH   2   3
HETATM    3  C   UNL     1     -13.084  15.479  71.912  1.00  0.00    -0.539 C  
BRANCH   3   4
HETATM    4  C   UNL     1     -13.076  15.621  70.387  1.00  0.00    -0.043 C  
HETATM    5  C   UNL     1     -11.646  15.617  69.807  1.00  0.00    -0.360 C  
HETATM    6  C   UNL     1     -10.827  14.360  70.193  1.00  0.00     0.105 C  
HETATM    7  C   UNL     1     -11.675  15.858  68.285  1.00  0.00    -0.186 C  
HETATM    8  C   UNL     1     -11.396  13.038  69.693  1.00  0.00    -0.176 C  
BRANCH   7   9
HETATM    9  O   UNL     1     -10.319  15.877  67.813  1.00  0.00    -0.265 OA 
BRANCH   9  10
HETATM   10  C   UNL     1     -10.015  15.252  66.653  1.00  0.00    -0.254 C  
HETATM   11  O   UNL     1     -10.248  15.677  65.532  1.00  0.00    -0.343 OA 
BRANCH  10  12
HETATM   12  C   UNL     1      -9.144  14.074  66.928  1.00  0.00    -0.262 C  
HETATM   13  C   UNL     1      -9.372  12.795  66.512  1.00  0.00    -0.221 C  
BRANCH  12  14
HETATM   14  C   UNL     1      -8.005  14.374  67.889  1.00  0.00    -0.147 C  
HETATM   15  H1  UNL     1      -6.296  14.824  69.331  1.00  0.00     0.000 HD 
HETATM   16  N   UNL     1      -7.060  14.623  68.686  1.00  0.00    -0.108 NA 
HETATM   17  H2  UNL     1      -7.121  14.617  69.705  1.00  0.00     0.000 HD 
ENDBRANCH  12  14
BRANCH  13  18
HETATM   18  C   UNL     1     -10.454  12.481  65.543  1.00  0.00    -0.305 A  
HETATM   19  C   UNL     1     -10.147  11.904  64.305  1.00  0.00    -0.325 A  
HETATM   20  C   UNL     1     -11.790  12.791  65.833  1.00  0.00    -0.490 A  
HETATM   21  C   UNL     1     -12.784  12.620  64.868  1.00  0.00    -0.450 A  
HETATM   22  C   UNL     1     -12.460  12.097  63.620  1.00  0.00    -0.658 A  
HETATM   23  C   UNL     1     -11.148  11.713  63.349  1.00  0.00    -0.422 A  
ENDBRANCH  13  18
BRANCH  13  24
HETATM   24  C   UNL     1      -8.565  11.686  67.094  1.00  0.00    -0.164 A  
HETATM   25  C   UNL     1      -6.568  10.297  67.028  1.00  0.00    -0.074 A  
HETATM   26  C   UNL     1      -7.334  11.345  66.510  1.00  0.00    -0.063 A  
HETATM   27  C   UNL     1      -7.001   9.598  68.150  1.00  0.00    -0.077 A  
HETATM   28  C   UNL     1      -8.228   9.922  68.733  1.00  0.00    -0.114 A  
HETATM   29  C   UNL     1      -9.010  10.963  68.205  1.00  0.00    -0.144 A  
BRANCH  27  30
HETATM   30  O   UNL     1      -6.180   8.576  68.551  1.00  0.00    -0.051 OA 
HETATM   31  C   UNL     1      -5.356   7.998  67.546  1.00  0.00    -0.033 C  
ENDBRANCH  27  30
ENDBRANCH  13  24
ENDBRANCH  10  12
ENDBRANCH   9  10
ENDBRANCH   7   9
ENDBRANCH   3   4
ENDBRANCH   2   3
TORSDOF 9
ENDMDL
MODEL      123
REMARK 921   NORMALIZED FREE ENERGY PREDICTED BY IDOCK:   -3.93 KCAL/MOL
REMARK 922        TOTAL FREE ENERGY PREDICTED BY IDOCK:   -8.07 KCAL/MOL
REMARK 923 INTER-LIGAND FREE ENERGY PREDICTED BY IDOCK:   -7.32 KCAL/MOL
REMARK 924 INTRA-LIGAND FREE ENERGY PREDICTED BY IDOCK:   -0.75 KCAL/MOL
REMARK 927      BINDING AFFINITY PREDICTED BY RF-SCORE:    0.00 PKD
ROOT
HETATM    1  C   UNL     1      -7.178   6.941  74.115  1.00  0.00    -0.095 C  
HETATM    2  C   UNL     1      -8.683   6.714  74.101  1.00  0.00    -0.167 C  
ENDROOT
BRANCH   2   3
HETATM    3  C   UNL     1      -9.234   6.872  72.687  1.00  0.00    -0.151 C  
BRANCH   3   4
HETATM    4  C   UNL     1      -9.424   8.340  72.293  1.00  0.00    -0.341 C  
HETATM    5  C   UNL     1     -10.283   8.497  71.021  1.00  0.00    -0.255 C  
HETATM    6  C   UNL     1     -11.676   7.828  71.130  1.00  0.00    -0.304 C  
HETATM    7  C   UNL     1     -10.371   9.977  70.603  1.00  0.00    -0.083 C  
HETATM    8  C   UNL     1     -12.581   8.390  72.218  1.00  0.00    -0.401 C  
BRANCH   7   9
HETATM    9  O   UNL     1     -11.152  10.053  69.400  1.00  0.00    -0.232 OA 
BRANCH   9  10
HETATM   10  C   UNL     1     -12.250  10.841  69.373  1.00  0.00    -0.171 C  
HETATM   11  O   UNL     1     -13.393  10.479  69.600  1.00  0.00     0.167 OA 
BRANCH  10  12
HETATM   12  C   UNL     1     -11.842  12.270  69.254  1.00  0.00    -0.363 C  
HETATM   13  C   UNL     1     -11.121  12.815  68.232  1.00  0.00    -0.288 C  
BRANCH  12  14
HETATM   14  C   UNL     1     -12.162  13.097  70.489  1.00  0.00    -0.328 C  
HETATM   15  H1  UNL     1     -12.642  14.338  72.342  1.00  0.00     0.000 HD 
HETATM   16  N   UNL     1     -12.427  13.783  71.513  1.00  0.00    -0.315 NA 
HETATM   17  H2  UNL     1     -12.815  14.726  71.516  1.00  0.00     0.000 HD 
ENDBRANCH  12  14
BRANCH  13  18
HETATM   18  C   UNL     1     -10.828  12.041  66.997  1.00  0.00    -0.297 A  
HETATM   19  C   UNL     1      -9.870  11.019  67.016  1.00  0.00    -0.211 A  
HETATM   20  C   UNL     1     -11.470  12.346  65.789  1.00  0.00    -0.416 A  
HETATM   21  C   UNL     1     -11.093  11.710  64.604  1.00  0.00    -0.342 A  
HETATM   22  C   UNL     1     -10.103  10.733  64.624  1.00  0.00    -0.410 A  
HETATM   23  C   UNL     1      -9.512  10.368  65.832  1.00  0.00    -0.237 A  
ENDBRANCH  13  18
BRANCH  13  24
HETATM   24  C   UNL     1     -10.558  14.186  68.388  1.00  0.00    -0.263 A  
HETATM   25  C   UNL     1      -8.655  15.619  68.887  1.00  0.00    -0.211 A  
HETATM   26  C   UNL     1      -9.202  14.344  68.718  1.00  0.00    -0.144 A  
HETATM   27  C   UNL     1      -9.441  16.750  68.698  1.00  0.00    -0.255 A  
HETATM   28  C   UNL     1     -10.793  16.605  68.379  1.00  0.00    -0.361 A  
HETATM   29  C   UNL     1     -11.351  15.325  68.225  1.00  0.00    -0.344 A  
BRANCH  27  30
HETATM   30  O   UNL     1      -8.804  17.944  68.915  1.00  0.00    -0.239 OA 
HETATM   31  C   UNL     1      -7.634  18.183  68.142  1.00  0.00    -0.265 C  
ENDBRANCH  27  30
ENDBRANCH  13  24
ENDBRANCH  10  12
ENDBRANCH   9  10
ENDBRANCH   7   9
ENDBRANCH   3   4
ENDBRANCH   2   3
TORSDOF 9
ENDMDL
MODEL      124
REMARK 921   NORMALIZED FREE ENERGY PREDICTED BY IDOCK:   -3.93 KCAL/MOL
REMARK 922        TOTAL FREE ENERGY PREDICTED BY IDOCK:   -8.06 KCAL/MOL
REMARK 923 INTER-LIGAND FREE ENERGY PREDICTED BY IDOCK:   -6.70 KCAL/MOL
REMARK 924 INTRA-LIGAND FREE ENERGY PREDICTED BY IDOCK:   -1.36 KCAL/MOL
REMARK 927      BINDING AFFINITY PREDICTED BY RF-SCORE:    0.00 PKD
ROOT
HETATM    1  C   UNL     1     -10.209   3.117  63.734  1.00  0.00    -0.200 C  
HETATM    2  C   UNL     1      -8.721   3.229  63.433  1.00  0.00    -0.089 C  
ENDROOT
BRANCH   2   3
HETATM    3  C   UNL     1      -7.920   3.327  64.728  1.00  0.00    -0.086 C  
BRANCH   3   4
HETATM    4  C   UNL     1      -7.386   4.741  64.982  1.00  0.00    -0.072 C  
HETATM    5  C   UNL     1      -8.214   5.498  66.040  1.00  0.00    -0.114 C  
HETATM    6  C   UNL     1      -8.313   4.754  67.395  1.00  0.00    -0.105 C  
HETATM    7  C   UNL     1      -7.706   6.944  66.196  1.00  0.00    -0.091 C  
HETATM    8  C   UNL     1      -6.985   4.528  68.107  1.00  0.00    -0.056 C  
BRANCH   7   9
HETATM    9  O   UNL     1      -8.535   7.604  67.165  1.00  0.00    -0.119 OA 
BRANCH   9  10
HETATM   10  C   UNL     1      -9.776   8.007  66.809  1.00  0.00    -0.237 C  
HETATM   11  O   UNL     1     -10.785   7.322  66.843  1.00  0.00    -0.338 OA 
BRANCH  10  12
HETATM   12  C   UNL     1      -9.781   9.481  66.586  1.00  0.00    -0.270 C  
HETATM   13  C   UNL     1      -9.883  10.437  67.554  1.00  0.00    -0.202 C  
BRANCH  12  14
HETATM   14  C   UNL     1      -9.828   9.872  65.118  1.00  0.00    -0.278 C  
HETATM   15  H1  UNL     1      -9.898  10.459  62.915  1.00  0.00     0.000 HD 
HETATM   16  N   UNL     1      -9.866  10.197  63.900  1.00  0.00    -0.462 NA 
HETATM   17  H2  UNL     1      -9.062  10.440  63.321  1.00  0.00     0.000 HD 
ENDBRANCH  12  14
BRANCH  13  18
HETATM   18  C   UNL     1      -9.801  10.086  68.996  1.00  0.00    -0.203 A  
HETATM   19  C   UNL     1      -8.555   9.897  69.607  1.00  0.00    -0.207 A  
HETATM   20  C   UNL     1     -10.964   9.898  69.757  1.00  0.00    -0.304 A  
HETATM   21  C   UNL     1     -10.885   9.436  71.072  1.00  0.00    -0.406 A  
HETATM   22  C   UNL     1      -9.643   9.200  71.653  1.00  0.00    -0.226 A  
HETATM   23  C   UNL     1      -8.479   9.457  70.931  1.00  0.00    -0.124 A  
ENDBRANCH  13  18
BRANCH  13  24
HETATM   24  C   UNL     1     -10.151  11.849  67.158  1.00  0.00    -0.222 A  
HETATM   25  C   UNL     1      -9.300  14.037  66.520  1.00  0.00    -0.274 A  
HETATM   26  C   UNL     1      -9.074  12.705  66.875  1.00  0.00    -0.218 A  
HETATM   27  C   UNL     1     -10.598  14.524  66.409  1.00  0.00    -0.302 A  
HETATM   28  C   UNL     1     -11.676  13.685  66.697  1.00  0.00    -0.420 A  
HETATM   29  C   UNL     1     -11.453  12.349  67.073  1.00  0.00    -0.423 A  
BRANCH  27  30
HETATM   30  O   UNL     1     -10.695  15.850  66.078  1.00  0.00    -0.320 OA 
HETATM   31  C   UNL     1     -11.074  16.139  64.737  1.00  0.00    -0.333 C  
ENDBRANCH  27  30
ENDBRANCH  13  24
ENDBRANCH  10  12
ENDBRANCH   9  10
ENDBRANCH   7   9
ENDBRANCH   3   4
ENDBRANCH   2   3
TORSDOF 9
ENDMDL
MODEL      125
REMARK 921   NORMALIZED FREE ENERGY PREDICTED BY IDOCK:   -3.93 KCAL/MOL
REMARK 922        TOTAL FREE ENERGY PREDICTED BY IDOCK:   -8.06 KCAL/MOL
REMARK 923 INTER-LIGAND FREE ENERGY PREDICTED BY IDOCK:   -6.73 KCAL/MOL
REMARK 924 INTRA-LIGAND FREE ENERGY PREDICTED BY IDOCK:   -1.33 KCAL/MOL
REMARK 927      BINDING AFFINITY PREDICTED BY RF-SCORE:    0.00 PKD
ROOT
HETATM    1  C   UNL     1     -10.645   5.163  73.953  1.00  0.00    -0.340 C  
HETATM    2  C   UNL     1      -9.865   5.830  72.829  1.00  0.00    -0.176 C  
ENDROOT
BRANCH   2   3
HETATM    3  C   UNL     1     -10.237   5.216  71.483  1.00  0.00    -0.274 C  
BRANCH   3   4
HETATM    4  C   UNL     1     -10.878   6.232  70.532  1.00  0.00    -0.348 C  
HETATM    5  C   UNL     1      -9.826   7.089  69.798  1.00  0.00    -0.171 C  
HETATM    6  C   UNL     1      -8.792   6.252  69.005  1.00  0.00    -0.124 C  
HETATM    7  C   UNL     1     -10.509   8.161  68.927  1.00  0.00    -0.185 C  
HETATM    8  C   UNL     1      -9.371   5.399  67.885  1.00  0.00    -0.123 C  
BRANCH   7   9
HETATM    9  O   UNL     1      -9.482   8.944  68.299  1.00  0.00    -0.139 OA 
BRANCH   9  10
HETATM   10  C   UNL     1      -9.092  10.104  68.873  1.00  0.00    -0.165 C  
HETATM   11  O   UNL     1      -8.279  10.214  69.776  1.00  0.00    -0.172 OA 
BRANCH  10  12
HETATM   12  C   UNL     1      -9.622  11.256  68.090  1.00  0.00    -0.186 C  
HETATM   13  C   UNL     1      -9.147  11.695  66.888  1.00  0.00    -0.188 C  
BRANCH  12  14
HETATM   14  C   UNL     1     -10.683  12.055  68.830  1.00  0.00    -0.220 C  
HETATM   15  H1  UNL     1     -12.275  13.254  69.940  1.00  0.00     0.000 HD 
HETATM   16  N   UNL     1     -11.563  12.718  69.443  1.00  0.00    -0.320 NA 
HETATM   17  H2  UNL     1     -12.211  13.384  69.022  1.00  0.00     0.000 HD 
ENDBRANCH  12  14
BRANCH  13  18
HETATM   18  C   UNL     1      -8.138  10.913  66.126  1.00  0.00    -0.160 A  
HETATM   19  C   UNL     1      -8.548   9.923  65.225  1.00  0.00    -0.168 A  
HETATM   20  C   UNL     1      -6.767  11.123  66.326  1.00  0.00    -0.064 A  
HETATM   21  C   UNL     1      -5.825  10.295  65.711  1.00  0.00    -0.092 A  
HETATM   22  C   UNL     1      -6.244   9.279  64.858  1.00  0.00    -0.067 A  
HETATM   23  C   UNL     1      -7.602   9.111  64.593  1.00  0.00    -0.106 A  
ENDBRANCH  13  18
BRANCH  13  24
HETATM   24  C   UNL     1      -9.597  13.016  66.366  1.00  0.00    -0.258 A  
HETATM   25  C   UNL     1      -9.480  15.445  66.449  1.00  0.00    -0.325 A  
HETATM   26  C   UNL     1      -9.060  14.195  66.911  1.00  0.00    -0.260 A  
HETATM   27  C   UNL     1     -10.411  15.539  65.421  1.00  0.00    -0.394 A  
HETATM   28  C   UNL     1     -10.958  14.374  64.878  1.00  0.00    -0.416 A  
HETATM   29  C   UNL     1     -10.553  13.114  65.351  1.00  0.00    -0.311 A  
BRANCH  27  30
HETATM   30  O   UNL     1     -10.763  16.816  65.070  1.00  0.00    -0.692 OA 
HETATM   31  C   UNL     1     -10.433  17.839  66.001  1.00  0.00    -0.286 C  
ENDBRANCH  27  30
ENDBRANCH  13  24
ENDBRANCH  10  12
ENDBRANCH   9  10
ENDBRANCH   7   9
ENDBRANCH   3   4
ENDBRANCH   2   3
TORSDOF 9
ENDMDL
MODEL      126
REMARK 921   NORMALIZED FREE ENERGY PREDICTED BY IDOCK:   -3.89 KCAL/MOL
REMARK 922        TOTAL FREE ENERGY PREDICTED BY IDOCK:   -8.01 KCAL/MOL
REMARK 923 INTER-LIGAND FREE ENERGY PREDICTED BY IDOCK:   -6.48 KCAL/MOL
REMARK 924 INTRA-LIGAND FREE ENERGY PREDICTED BY IDOCK:   -1.53 KCAL/MOL
REMARK 927      BINDING AFFINITY PREDICTED BY RF-SCORE:    0.00 PKD
ROOT
HETATM    1  C   UNL     1     -12.533   6.959  71.206  1.00  0.00    -0.409 C  
HETATM    2  C   UNL     1     -11.180   7.107  70.524  1.00  0.00    -0.321 C  
ENDROOT
BRANCH   2   3
HETATM    3  C   UNL     1     -10.936   5.946  69.564  1.00  0.00    -0.438 C  
BRANCH   3   4
HETATM    4  C   UNL     1     -11.011   6.374  68.095  1.00  0.00    -0.393 C  
HETATM    5  C   UNL     1      -9.666   6.924  67.576  1.00  0.00    -0.162 C  
HETATM    6  C   UNL     1      -8.489   5.931  67.745  1.00  0.00    -0.107 C  
HETATM    7  C   UNL     1      -9.807   7.432  66.129  1.00  0.00     0.157 C  
HETATM    8  C   UNL     1      -8.632   4.621  66.982  1.00  0.00    -0.104 C  
BRANCH   7   9
HETATM    9  O   UNL     1      -8.537   7.959  65.717  1.00  0.00    -0.141 OA 
BRANCH   9  10
HETATM   10  C   UNL     1      -8.489   8.851  64.703  1.00  0.00    -0.168 C  
HETATM   11  O   UNL     1      -8.188   8.601  63.547  1.00  0.00    -0.166 OA 
BRANCH  10  12
HETATM   12  C   UNL     1      -9.081  10.146  65.143  1.00  0.00    -0.242 C  
HETATM   13  C   UNL     1      -8.829  10.782  66.324  1.00  0.00    -0.182 C  
BRANCH  12  14
HETATM   14  C   UNL     1     -10.164  10.666  64.211  1.00  0.00    -0.320 C  
HETATM   15  H1  UNL     1     -11.788  11.446  62.812  1.00  0.00     0.000 HD 
HETATM   16  N   UNL     1     -11.062  11.097  63.438  1.00  0.00    -0.742 NA 
HETATM   17  H2  UNL     1     -10.941  11.321  62.450  1.00  0.00     0.000 HD 
ENDBRANCH  12  14
BRANCH  13  18
HETATM   18  C   UNL     1      -7.750  10.318  67.235  1.00  0.00    -0.095 A  
HETATM   19  C   UNL     1      -6.412  10.372  66.828  1.00  0.00    -0.076 A  
HETATM   20  C   UNL     1      -8.055   9.782  68.494  1.00  0.00    -0.104 A  
HETATM   21  C   UNL     1      -7.052   9.222  69.289  1.00  0.00    -0.057 A  
HETATM   22  C   UNL     1      -5.732   9.232  68.852  1.00  0.00    -0.040 A  
HETATM   23  C   UNL     1      -5.408   9.832  67.636  1.00  0.00    -0.036 A  
ENDBRANCH  13  18
BRANCH  13  24
HETATM   24  C   UNL     1      -9.699  11.919  66.739  1.00  0.00    -0.218 A  
HETATM   25  C   UNL     1      -9.992  14.311  67.075  1.00  0.00    -0.258 A  
HETATM   26  C   UNL     1      -9.201  13.231  66.675  1.00  0.00    -0.222 A  
HETATM   27  C   UNL     1     -11.295  14.104  67.512  1.00  0.00    -0.322 A  
HETATM   28  C   UNL     1     -11.798  12.803  67.589  1.00  0.00    -0.396 A  
HETATM   29  C   UNL     1     -11.000  11.712  67.204  1.00  0.00    -0.330 A  
BRANCH  27  30
HETATM   30  O   UNL     1     -11.965  15.234  67.901  1.00  0.00    -0.234 OA 
HETATM   31  C   UNL     1     -11.163  16.313  68.366  1.00  0.00    -0.349 C  
ENDBRANCH  27  30
ENDBRANCH  13  24
ENDBRANCH  10  12
ENDBRANCH   9  10
ENDBRANCH   7   9
ENDBRANCH   3   4
ENDBRANCH   2   3
TORSDOF 9
ENDMDL
MODEL      127
REMARK 921   NORMALIZED FREE ENERGY PREDICTED BY IDOCK:   -3.88 KCAL/MOL
REMARK 922        TOTAL FREE ENERGY PREDICTED BY IDOCK:   -7.99 KCAL/MOL
REMARK 923 INTER-LIGAND FREE ENERGY PREDICTED BY IDOCK:   -6.46 KCAL/MOL
REMARK 924 INTRA-LIGAND FREE ENERGY PREDICTED BY IDOCK:   -1.53 KCAL/MOL
REMARK 927      BINDING AFFINITY PREDICTED BY RF-SCORE:    0.00 PKD
ROOT
HETATM    1  C   UNL     1     -13.230  14.778  71.697  1.00  0.00    -0.431 C  
HETATM    2  C   UNL     1     -12.051  15.618  71.225  1.00  0.00    -0.463 C  
ENDROOT
BRANCH   2   3
HETATM    3  C   UNL     1     -12.155  15.890  69.728  1.00  0.00    -0.231 C  
BRANCH   3   4
HETATM    4  C   UNL     1     -10.792  15.863  69.030  1.00  0.00    -0.266 C  
HETATM    5  C   UNL     1     -10.453  14.469  68.463  1.00  0.00    -0.250 C  
HETATM    6  C   UNL     1     -11.522  13.925  67.483  1.00  0.00    -0.368 C  
HETATM    7  C   UNL     1      -9.037  14.458  67.856  1.00  0.00    -0.187 C  
HETATM    8  C   UNL     1     -11.731  14.757  66.225  1.00  0.00    -0.260 C  
BRANCH   7   9
HETATM    9  O   UNL     1      -8.769  13.130  67.378  1.00  0.00    -0.185 OA 
BRANCH   9  10
HETATM   10  C   UNL     1      -7.513  12.636  67.468  1.00  0.00    -0.155 C  
HETATM   11  O   UNL     1      -6.484  13.290  67.406  1.00  0.00    -0.213 OA 
BRANCH  10  12
HETATM   12  C   UNL     1      -7.564  11.207  67.888  1.00  0.00    -0.099 C  
HETATM   13  C   UNL     1      -8.118  10.183  67.178  1.00  0.00    -0.120 C  
BRANCH  12  14
HETATM   14  C   UNL     1      -7.071  10.975  69.308  1.00  0.00    -0.123 C  
HETATM   15  H1  UNL     1      -6.332  10.625  71.437  1.00  0.00     0.000 HD 
HETATM   16  N   UNL     1      -6.663  10.782  70.485  1.00  0.00    -0.472 NA 
HETATM   17  H2  UNL     1      -6.403   9.880  70.886  1.00  0.00     0.000 HD 
ENDBRANCH  12  14
BRANCH  13  18
HETATM   18  C   UNL     1      -8.572  10.373  65.776  1.00  0.00    -0.172 A  
HETATM   19  C   UNL     1      -9.899  10.729  65.506  1.00  0.00    -0.309 A  
HETATM   20  C   UNL     1      -7.695  10.161  64.702  1.00  0.00    -0.141 A  
HETATM   21  C   UNL     1      -8.161  10.207  63.386  1.00  0.00    -0.161 A  
HETATM   22  C   UNL     1      -9.494  10.509  63.130  1.00  0.00    -0.367 A  
HETATM   23  C   UNL     1     -10.355  10.798  64.187  1.00  0.00    -0.382 A  
ENDBRANCH  13  18
BRANCH  13  24
HETATM   24  C   UNL     1      -8.336   8.868  67.846  1.00  0.00    -0.118 A  
HETATM   25  C   UNL     1      -9.733   7.435  69.231  1.00  0.00    -0.165 A  
HETATM   26  C   UNL     1      -9.514   8.652  68.581  1.00  0.00    -0.144 A  
HETATM   27  C   UNL     1      -8.801   6.408  69.131  1.00  0.00    -0.126 A  
HETATM   28  C   UNL     1      -7.622   6.614  68.411  1.00  0.00    -0.104 A  
HETATM   29  C   UNL     1      -7.390   7.843  67.771  1.00  0.00    -0.096 A  
BRANCH  27  30
HETATM   30  O   UNL     1      -9.112   5.270  69.829  1.00  0.00    -0.112 OA 
HETATM   31  C   UNL     1     -10.479   5.104  70.185  1.00  0.00    -0.235 C  
ENDBRANCH  27  30
ENDBRANCH  13  24
ENDBRANCH  10  12
ENDBRANCH   9  10
ENDBRANCH   7   9
ENDBRANCH   3   4
ENDBRANCH   2   3
TORSDOF 9
ENDMDL
MODEL      128
REMARK 921   NORMALIZED FREE ENERGY PREDICTED BY IDOCK:   -3.86 KCAL/MOL
REMARK 922        TOTAL FREE ENERGY PREDICTED BY IDOCK:   -7.96 KCAL/MOL
REMARK 923 INTER-LIGAND FREE ENERGY PREDICTED BY IDOCK:   -6.50 KCAL/MOL
REMARK 924 INTRA-LIGAND FREE ENERGY PREDICTED BY IDOCK:   -1.46 KCAL/MOL
REMARK 927      BINDING AFFINITY PREDICTED BY RF-SCORE:    0.00 PKD
ROOT
HETATM    1  C   UNL     1      -8.722   2.541  66.136  1.00  0.00    -0.126 C  
HETATM    2  C   UNL     1      -7.456   2.697  66.967  1.00  0.00    -0.069 C  
ENDROOT
BRANCH   2   3
HETATM    3  C   UNL     1      -7.723   3.572  68.188  1.00  0.00    -0.064 C  
BRANCH   3   4
HETATM    4  C   UNL     1      -7.391   5.046  67.937  1.00  0.00    -0.075 C  
HETATM    5  C   UNL     1      -8.510   5.989  68.425  1.00  0.00    -0.112 C  
HETATM    6  C   UNL     1      -8.861   5.807  69.923  1.00  0.00    -0.130 C  
HETATM    7  C   UNL     1      -8.183   7.452  68.069  1.00  0.00    -0.124 C  
HETATM    8  C   UNL     1      -7.726   6.103  70.894  1.00  0.00    -0.098 C  
BRANCH   7   9
HETATM    9  O   UNL     1      -9.273   8.272  68.517  1.00  0.00    -0.137 OA 
BRANCH   9  10
HETATM   10  C   UNL     1     -10.347   8.441  67.714  1.00  0.00    -0.235 C  
HETATM   11  O   UNL     1     -11.011   7.546  67.213  1.00  0.00    -0.264 OA 
BRANCH  10  12
HETATM   12  C   UNL     1     -10.753   9.875  67.709  1.00  0.00    -0.332 C  
HETATM   13  C   UNL     1     -10.275  10.840  66.871  1.00  0.00    -0.274 C  
BRANCH  12  14
HETATM   14  C   UNL     1     -11.666  10.251  68.864  1.00  0.00     0.013 C  
HETATM   15  H1  UNL     1     -13.037  10.815  70.598  1.00  0.00     0.000 HD 
HETATM   16  N   UNL     1     -12.424  10.562  69.823  1.00  0.00    -0.547 NA 
HETATM   17  H2  UNL     1     -12.148  11.077  70.659  1.00  0.00     0.000 HD 
ENDBRANCH  12  14
BRANCH  13  18
HETATM   18  C   UNL     1      -9.412  10.495  65.711  1.00  0.00    -0.249 A  
HETATM   19  C   UNL     1      -8.024  10.398  65.869  1.00  0.00    -0.151 A  
HETATM   20  C   UNL     1      -9.964  10.303  64.437  1.00  0.00    -0.331 A  
HETATM   21  C   UNL     1      -9.138  10.115  63.326  1.00  0.00    -0.293 A  
HETATM   22  C   UNL     1      -7.757  10.074  63.485  1.00  0.00    -0.146 A  
HETATM   23  C   UNL     1      -7.202  10.187  64.759  1.00  0.00    -0.130 A  
ENDBRANCH  13  18
BRANCH  13  24
HETATM   24  C   UNL     1     -10.567  12.271  67.166  1.00  0.00    -0.250 A  
HETATM   25  C   UNL     1      -9.968  14.332  68.312  1.00  0.00    -0.239 A  
HETATM   26  C   UNL     1      -9.705  12.994  68.007  1.00  0.00    -0.224 A  
HETATM   27  C   UNL     1     -11.071  14.975  67.761  1.00  0.00    -0.310 A  
HETATM   28  C   UNL     1     -11.941  14.263  66.932  1.00  0.00    -0.467 A  
HETATM   29  C   UNL     1     -11.690  12.913  66.636  1.00  0.00    -0.452 A  
BRANCH  27  30
HETATM   30  O   UNL     1     -11.240  16.278  68.152  1.00  0.00    -0.350 OA 
HETATM   31  C   UNL     1     -10.516  17.255  67.416  1.00  0.00    -0.338 C  
ENDBRANCH  27  30
ENDBRANCH  13  24
ENDBRANCH  10  12
ENDBRANCH   9  10
ENDBRANCH   7   9
ENDBRANCH   3   4
ENDBRANCH   2   3
TORSDOF 9
ENDMDL
MODEL      129
REMARK 921   NORMALIZED FREE ENERGY PREDICTED BY IDOCK:   -3.84 KCAL/MOL
REMARK 922        TOTAL FREE ENERGY PREDICTED BY IDOCK:   -7.93 KCAL/MOL
REMARK 923 INTER-LIGAND FREE ENERGY PREDICTED BY IDOCK:   -6.33 KCAL/MOL
REMARK 924 INTRA-LIGAND FREE ENERGY PREDICTED BY IDOCK:   -1.60 KCAL/MOL
REMARK 927      BINDING AFFINITY PREDICTED BY RF-SCORE:    0.00 PKD
ROOT
HETATM    1  C   UNL     1      -5.846   7.085  73.488  1.00  0.00    -0.054 C  
HETATM    2  C   UNL     1      -6.475   5.703  73.594  1.00  0.00    -0.073 C  
ENDROOT
BRANCH   2   3
HETATM    3  C   UNL     1      -7.060   5.279  72.251  1.00  0.00    -0.085 C  
BRANCH   3   4
HETATM    4  C   UNL     1      -8.324   6.065  71.887  1.00  0.00    -0.115 C  
HETATM    5  C   UNL     1      -8.174   6.828  70.555  1.00  0.00    -0.117 C  
HETATM    6  C   UNL     1      -7.796   5.917  69.360  1.00  0.00    -0.094 C  
HETATM    7  C   UNL     1      -9.426   7.681  70.272  1.00  0.00    -0.161 C  
HETATM    8  C   UNL     1      -8.817   4.841  69.018  1.00  0.00    -0.121 C  
BRANCH   7   9
HETATM    9  O   UNL     1      -9.212   8.390  69.042  1.00  0.00    -0.147 OA 
BRANCH   9  10
HETATM   10  C   UNL     1     -10.216   8.463  68.139  1.00  0.00    -0.208 C  
HETATM   11  O   UNL     1     -10.781   7.513  67.621  1.00  0.00    -0.239 OA 
BRANCH  10  12
HETATM   12  C   UNL     1     -10.697   9.870  68.034  1.00  0.00    -0.296 C  
HETATM   13  C   UNL     1     -10.230  10.814  67.167  1.00  0.00    -0.255 C  
BRANCH  12  14
HETATM   14  C   UNL     1     -11.688  10.254  69.121  1.00  0.00    -0.037 C  
HETATM   15  H1  UNL     1     -13.174  10.832  70.753  1.00  0.00     0.000 HD 
HETATM   16  N   UNL     1     -12.509  10.573  70.023  1.00  0.00    -0.508 NA 
HETATM   17  H2  UNL     1     -12.360  11.280  70.743  1.00  0.00     0.000 HD 
ENDBRANCH  12  14
BRANCH  13  18
HETATM   18  C   UNL     1      -9.290  10.458  66.072  1.00  0.00    -0.219 A  
HETATM   19  C   UNL     1      -9.781   9.973  64.853  1.00  0.00    -0.377 A  
HETATM   20  C   UNL     1      -7.904  10.561  66.252  1.00  0.00    -0.141 A  
HETATM   21  C   UNL     1      -7.024  10.097  65.272  1.00  0.00    -0.137 A  
HETATM   22  C   UNL     1      -7.521   9.567  64.086  1.00  0.00    -0.122 A  
HETATM   23  C   UNL     1      -8.897   9.531  63.865  1.00  0.00    -0.240 A  
ENDBRANCH  13  18
BRANCH  13  24
HETATM   24  C   UNL     1     -10.613  12.241  67.368  1.00  0.00    -0.247 A  
HETATM   25  C   UNL     1     -10.165  14.399  68.398  1.00  0.00    -0.243 A  
HETATM   26  C   UNL     1      -9.816  13.064  68.180  1.00  0.00    -0.228 A  
HETATM   27  C   UNL     1     -11.290  14.940  67.785  1.00  0.00    -0.329 A  
HETATM   28  C   UNL     1     -12.095  14.129  66.983  1.00  0.00    -0.449 A  
HETATM   29  C   UNL     1     -11.758  12.780  66.776  1.00  0.00    -0.459 A  
BRANCH  27  30
HETATM   30  O   UNL     1     -11.546  16.251  68.091  1.00  0.00    -0.262 OA 
HETATM   31  C   UNL     1     -10.433  17.136  68.048  1.00  0.00    -0.369 C  
ENDBRANCH  27  30
ENDBRANCH  13  24
ENDBRANCH  10  12
ENDBRANCH   9  10
ENDBRANCH   7   9
ENDBRANCH   3   4
ENDBRANCH   2   3
TORSDOF 9
ENDMDL
MODEL      130
REMARK 921   NORMALIZED FREE ENERGY PREDICTED BY IDOCK:   -3.83 KCAL/MOL
REMARK 922        TOTAL FREE ENERGY PREDICTED BY IDOCK:   -7.92 KCAL/MOL
REMARK 923 INTER-LIGAND FREE ENERGY PREDICTED BY IDOCK:   -6.51 KCAL/MOL
REMARK 924 INTRA-LIGAND FREE ENERGY PREDICTED BY IDOCK:   -1.41 KCAL/MOL
REMARK 927      BINDING AFFINITY PREDICTED BY RF-SCORE:    0.00 PKD
ROOT
HETATM    1  C   UNL     1     -14.337   7.530  71.661  1.00  0.00    -0.621 C  
HETATM    2  C   UNL     1     -13.256   8.454  72.205  1.00  0.00    -0.346 C  
ENDROOT
BRANCH   2   3
HETATM    3  C   UNL     1     -11.898   7.760  72.180  1.00  0.00    -0.370 C  
BRANCH   3   4
HETATM    4  C   UNL     1     -11.816   6.671  71.105  1.00  0.00    -0.414 C  
HETATM    5  C   UNL     1     -10.386   6.116  70.943  1.00  0.00    -0.267 C  
HETATM    6  C   UNL     1      -9.787   5.561  72.259  1.00  0.00    -0.192 C  
HETATM    7  C   UNL     1     -10.325   5.096  69.791  1.00  0.00    -0.262 C  
HETATM    8  C   UNL     1     -10.538   4.382  72.866  1.00  0.00    -0.264 C  
BRANCH   7   9
HETATM    9  O   UNL     1      -8.968   4.643  69.669  1.00  0.00    -0.087 OA 
BRANCH   9  10
HETATM   10  C   UNL     1      -8.238   5.024  68.596  1.00  0.00    -0.085 C  
HETATM   11  O   UNL     1      -7.385   4.351  68.039  1.00  0.00    -0.064 OA 
BRANCH  10  12
HETATM   12  C   UNL     1      -8.783   6.296  68.043  1.00  0.00    -0.114 C  
HETATM   13  C   UNL     1      -8.512   7.551  68.503  1.00  0.00    -0.129 C  
BRANCH  12  14
HETATM   14  C   UNL     1      -9.842   6.087  66.973  1.00  0.00    -0.152 C  
HETATM   15  H1  UNL     1     -11.431   5.772  65.366  1.00  0.00     0.000 HD 
HETATM   16  N   UNL     1     -10.720   5.913  66.084  1.00  0.00    -0.540 NA 
HETATM   17  H2  UNL     1     -10.544   5.665  65.111  1.00  0.00     0.000 HD 
ENDBRANCH  12  14
BRANCH  13  18
HETATM   18  C   UNL     1      -7.455   7.788  69.521  1.00  0.00    -0.094 A  
HETATM   19  C   UNL     1      -7.795   7.928  70.872  1.00  0.00    -0.088 A  
HETATM   20  C   UNL     1      -6.111   7.915  69.144  1.00  0.00    -0.035 A  
HETATM   21  C   UNL     1      -5.141   8.273  70.083  1.00  0.00    -0.023 A  
HETATM   22  C   UNL     1      -5.497   8.463  71.414  1.00  0.00    -0.034 A  
HETATM   23  C   UNL     1      -6.818   8.263  71.813  1.00  0.00    -0.080 A  
ENDBRANCH  13  18
BRANCH  13  24
HETATM   24  C   UNL     1      -9.341   8.696  68.029  1.00  0.00    -0.147 A  
HETATM   25  C   UNL     1     -11.280  10.136  68.326  1.00  0.00    -0.246 A  
HETATM   26  C   UNL     1     -10.478   9.078  68.760  1.00  0.00    -0.230 A  
HETATM   27  C   UNL     1     -10.944  10.846  67.179  1.00  0.00    -0.272 A  
HETATM   28  C   UNL     1      -9.821  10.470  66.438  1.00  0.00    -0.260 A  
HETATM   29  C   UNL     1      -9.022   9.395  66.862  1.00  0.00    -0.148 A  
BRANCH  27  30
HETATM   30  O   UNL     1     -11.817  11.846  66.837  1.00  0.00    -0.590 OA 
HETATM   31  C   UNL     1     -11.842  12.219  65.465  1.00  0.00    -0.359 C  
ENDBRANCH  27  30
ENDBRANCH  13  24
ENDBRANCH  10  12
ENDBRANCH   9  10
ENDBRANCH   7   9
ENDBRANCH   3   4
ENDBRANCH   2   3
TORSDOF 9
ENDMDL
MODEL      131
REMARK 921   NORMALIZED FREE ENERGY PREDICTED BY IDOCK:   -3.82 KCAL/MOL
REMARK 922        TOTAL FREE ENERGY PREDICTED BY IDOCK:   -7.91 KCAL/MOL
REMARK 923 INTER-LIGAND FREE ENERGY PREDICTED BY IDOCK:   -8.12 KCAL/MOL
REMARK 924 INTRA-LIGAND FREE ENERGY PREDICTED BY IDOCK:    0.21 KCAL/MOL
REMARK 927      BINDING AFFINITY PREDICTED BY RF-SCORE:    0.00 PKD
ROOT
HETATM    1  C   UNL     1     -10.715   4.590  72.981  1.00  0.00    -0.298 C  
HETATM    2  C   UNL     1     -11.900   5.465  72.597  1.00  0.00    -0.145 C  
ENDROOT
BRANCH   2   3
HETATM    3  C   UNL     1     -11.615   6.210  71.296  1.00  0.00    -0.271 C  
BRANCH   3   4
HETATM    4  C   UNL     1     -11.035   7.607  71.536  1.00  0.00    -0.263 C  
HETATM    5  C   UNL     1     -11.767   8.692  70.719  1.00  0.00    -0.239 C  
HETATM    6  C   UNL     1     -13.294   8.737  70.981  1.00  0.00     0.043 C  
HETATM    7  C   UNL     1     -11.096  10.065  70.912  1.00  0.00    -0.314 C  
HETATM    8  C   UNL     1     -13.696   9.066  72.412  1.00  0.00    -0.539 C  
BRANCH   7   9
HETATM    9  O   UNL     1     -11.799  11.021  70.104  1.00  0.00    -0.294 OA 
BRANCH   9  10
HETATM   10  C   UNL     1     -12.215  12.180  70.662  1.00  0.00    -0.300 C  
HETATM   11  O   UNL     1     -12.551  12.330  71.826  1.00  0.00    -0.176 OA 
BRANCH  10  12
HETATM   12  C   UNL     1     -11.986  13.307  69.714  1.00  0.00    -0.391 C  
HETATM   13  C   UNL     1     -11.152  13.289  68.635  1.00  0.00    -0.301 C  
BRANCH  12  14
HETATM   14  C   UNL     1     -12.658  14.603  70.139  1.00  0.00    -0.283 C  
HETATM   15  H1  UNL     1     -13.667  16.547  70.777  1.00  0.00     0.000 HD 
HETATM   16  N   UNL     1     -13.216  15.678  70.492  1.00  0.00    -0.762 NA 
HETATM   17  H2  UNL     1     -14.222  15.838  70.547  1.00  0.00     0.000 HD 
ENDBRANCH  12  14
BRANCH  13  18
HETATM   18  C   UNL     1     -10.513  12.028  68.175  1.00  0.00    -0.218 A  
HETATM   19  C   UNL     1     -11.242  11.103  67.419  1.00  0.00    -0.363 A  
HETATM   20  C   UNL     1      -9.189  11.725  68.524  1.00  0.00    -0.152 A  
HETATM   21  C   UNL     1      -8.638  10.482  68.207  1.00  0.00    -0.127 A  
HETATM   22  C   UNL     1      -9.390   9.548  67.501  1.00  0.00    -0.146 A  
HETATM   23  C   UNL     1     -10.680   9.869  67.083  1.00  0.00    -0.276 A  
ENDBRANCH  13  18
BRANCH  13  24
HETATM   24  C   UNL     1     -10.821  14.570  67.949  1.00  0.00    -0.260 A  
HETATM   25  C   UNL     1      -9.914  16.826  68.060  1.00  0.00    -0.272 A  
HETATM   26  C   UNL     1     -10.218  15.610  68.677  1.00  0.00    -0.212 A  
HETATM   27  C   UNL     1     -10.176  17.012  66.707  1.00  0.00    -0.298 A  
HETATM   28  C   UNL     1     -10.783  15.989  65.976  1.00  0.00    -0.271 A  
HETATM   29  C   UNL     1     -11.107  14.770  66.596  1.00  0.00    -0.333 A  
BRANCH  27  30
HETATM   30  O   UNL     1      -9.858  18.252  66.218  1.00  0.00    -0.360 OA 
HETATM   31  C   UNL     1      -8.539  18.714  66.480  1.00  0.00    -0.297 C  
ENDBRANCH  27  30
ENDBRANCH  13  24
ENDBRANCH  10  12
ENDBRANCH   9  10
ENDBRANCH   7   9
ENDBRANCH   3   4
ENDBRANCH   2   3
TORSDOF 9
ENDMDL
MODEL      132
REMARK 921   NORMALIZED FREE ENERGY PREDICTED BY IDOCK:   -3.82 KCAL/MOL
REMARK 922        TOTAL FREE ENERGY PREDICTED BY IDOCK:   -7.89 KCAL/MOL
REMARK 923 INTER-LIGAND FREE ENERGY PREDICTED BY IDOCK:   -6.51 KCAL/MOL
REMARK 924 INTRA-LIGAND FREE ENERGY PREDICTED BY IDOCK:   -1.38 KCAL/MOL
REMARK 927      BINDING AFFINITY PREDICTED BY RF-SCORE:    0.00 PKD
ROOT
HETATM    1  C   UNL     1      -9.936   3.752  72.977  1.00  0.00    -0.201 C  
HETATM    2  C   UNL     1      -8.861   4.070  71.947  1.00  0.00    -0.143 C  
ENDROOT
BRANCH   2   3
HETATM    3  C   UNL     1      -9.255   3.524  70.578  1.00  0.00    -0.213 C  
BRANCH   3   4
HETATM    4  C   UNL     1     -10.112   4.510  69.778  1.00  0.00    -0.177 C  
HETATM    5  C   UNL     1      -9.296   5.257  68.704  1.00  0.00    -0.155 C  
HETATM    6  C   UNL     1      -8.570   4.313  67.713  1.00  0.00    -0.107 C  
HETATM    7  C   UNL     1     -10.168   6.306  67.988  1.00  0.00    -0.172 C  
HETATM    8  C   UNL     1      -9.483   3.422  66.881  1.00  0.00    -0.174 C  
BRANCH   7   9
HETATM    9  O   UNL     1      -9.346   6.987  67.028  1.00  0.00    -0.135 OA 
BRANCH   9  10
HETATM   10  C   UNL     1      -8.770   8.163  67.367  1.00  0.00    -0.124 C  
HETATM   11  O   UNL     1      -7.707   8.293  67.952  1.00  0.00    -0.100 OA 
BRANCH  10  12
HETATM   12  C   UNL     1      -9.504   9.288  66.721  1.00  0.00    -0.228 C  
HETATM   13  C   UNL     1      -9.141   9.925  65.571  1.00  0.00    -0.232 C  
BRANCH  12  14
HETATM   14  C   UNL     1     -10.660   9.816  67.555  1.00  0.00    -0.275 C  
HETATM   15  H1  UNL     1     -12.395  10.607  68.807  1.00  0.00     0.000 HD 
HETATM   16  N   UNL     1     -11.619  10.253  68.247  1.00  0.00    -0.680 NA 
HETATM   17  H2  UNL     1     -11.858   9.955  69.193  1.00  0.00     0.000 HD 
ENDBRANCH  12  14
BRANCH  13  18
HETATM   18  C   UNL     1      -8.039   9.407  64.717  1.00  0.00    -0.131 A  
HETATM   19  C   UNL     1      -6.815  10.084  64.659  1.00  0.00    -0.130 A  
HETATM   20  C   UNL     1      -8.220   8.263  63.927  1.00  0.00    -0.088 A  
HETATM   21  C   UNL     1      -7.232   7.860  63.026  1.00  0.00    -0.091 A  
HETATM   22  C   UNL     1      -6.039   8.571  62.937  1.00  0.00    -0.086 A  
HETATM   23  C   UNL     1      -5.820   9.664  63.773  1.00  0.00    -0.097 A  
ENDBRANCH  13  18
BRANCH  13  24
HETATM   24  C   UNL     1      -9.816  11.201  65.201  1.00  0.00    -0.307 A  
HETATM   25  C   UNL     1     -10.093  13.594  65.547  1.00  0.00    -0.293 A  
HETATM   26  C   UNL     1      -9.462  12.388  65.863  1.00  0.00    -0.134 A  
HETATM   27  C   UNL     1     -11.058  13.640  64.547  1.00  0.00    -0.386 A  
HETATM   28  C   UNL     1     -11.425  12.465  63.889  1.00  0.00    -0.509 A  
HETATM   29  C   UNL     1     -10.806  11.247  64.216  1.00  0.00    -0.398 A  
BRANCH  27  30
HETATM   30  O   UNL     1     -11.625  14.871  64.342  1.00  0.00    -0.362 OA 
HETATM   31  C   UNL     1     -11.006  15.968  65.004  1.00  0.00    -0.380 C  
ENDBRANCH  27  30
ENDBRANCH  13  24
ENDBRANCH  10  12
ENDBRANCH   9  10
ENDBRANCH   7   9
ENDBRANCH   3   4
ENDBRANCH   2   3
TORSDOF 9
ENDMDL
MODEL      133
REMARK 921   NORMALIZED FREE ENERGY PREDICTED BY IDOCK:   -3.81 KCAL/MOL
REMARK 922        TOTAL FREE ENERGY PREDICTED BY IDOCK:   -7.89 KCAL/MOL
REMARK 923 INTER-LIGAND FREE ENERGY PREDICTED BY IDOCK:   -7.06 KCAL/MOL
REMARK 924 INTRA-LIGAND FREE ENERGY PREDICTED BY IDOCK:   -0.82 KCAL/MOL
REMARK 927      BINDING AFFINITY PREDICTED BY RF-SCORE:    0.00 PKD
ROOT
HETATM    1  C   UNL     1      -8.282  11.225  67.708  1.00  0.00    -0.120 C  
HETATM    2  C   UNL     1      -7.472  11.118  68.993  1.00  0.00    -0.124 C  
ENDROOT
BRANCH   2   3
HETATM    3  C   UNL     1      -6.294  12.087  68.963  1.00  0.00    -0.085 C  
BRANCH   3   4
HETATM    4  C   UNL     1      -6.649  13.422  68.302  1.00  0.00    -0.105 C  
HETATM    5  C   UNL     1      -7.478  14.332  69.231  1.00  0.00    -0.022 C  
HETATM    6  C   UNL     1      -6.790  14.619  70.589  1.00  0.00     0.338 C  
HETATM    7  C   UNL     1      -7.897  15.621  68.498  1.00  0.00    -0.133 C  
HETATM    8  C   UNL     1      -5.459  15.354  70.497  1.00  0.00    -0.137 C  
BRANCH   7   9
HETATM    9  O   UNL     1      -8.690  16.408  69.401  1.00  0.00    -0.174 OA 
BRANCH   9  10
HETATM   10  C   UNL     1      -9.862  16.926  68.970  1.00  0.00    -0.247 C  
HETATM   11  O   UNL     1     -10.329  18.004  69.301  1.00  0.00    -0.265 OA 
BRANCH  10  12
HETATM   12  C   UNL     1     -10.397  16.100  67.851  1.00  0.00    -0.277 C  
HETATM   13  C   UNL     1     -11.208  15.010  67.977  1.00  0.00    -0.324 C  
BRANCH  12  14
HETATM   14  C   UNL     1      -9.824  16.473  66.493  1.00  0.00    -0.278 C  
HETATM   15  H1  UNL     1      -8.964  17.034  64.457  1.00  0.00     0.000 HD 
HETATM   16  N   UNL     1      -9.348  16.783  65.367  1.00  0.00    -0.125 NA 
HETATM   17  H2  UNL     1      -9.688  17.530  64.761  1.00  0.00     0.000 HD 
ENDBRANCH  12  14
BRANCH  13  18
HETATM   18  C   UNL     1     -11.813  14.646  69.285  1.00  0.00    -0.357 A  
HETATM   19  C   UNL     1     -11.801  13.315  69.721  1.00  0.00    -0.394 A  
HETATM   20  C   UNL     1     -12.439  15.615  70.081  1.00  0.00    -0.311 A  
HETATM   21  C   UNL     1     -13.124  15.246  71.241  1.00  0.00    -0.540 A  
HETATM   22  C   UNL     1     -13.152  13.913  71.638  1.00  0.00    -0.446 A  
HETATM   23  C   UNL     1     -12.468  12.953  70.894  1.00  0.00    -0.383 A  
ENDBRANCH  13  18
BRANCH  13  24
HETATM   24  C   UNL     1     -11.433  14.130  66.795  1.00  0.00    -0.383 A  
HETATM   25  C   UNL     1     -10.604  12.419  65.276  1.00  0.00    -0.322 A  
HETATM   26  C   UNL     1     -10.423  13.241  66.391  1.00  0.00    -0.286 A  
HETATM   27  C   UNL     1     -11.802  12.446  64.571  1.00  0.00    -0.384 A  
HETATM   28  C   UNL     1     -12.810  13.332  64.957  1.00  0.00    -0.356 A  
HETATM   29  C   UNL     1     -12.625  14.174  66.067  1.00  0.00    -0.407 A  
BRANCH  27  30
HETATM   30  O   UNL     1     -11.855  11.615  63.482  1.00  0.00    -0.431 OA 
HETATM   31  C   UNL     1     -10.606  11.150  62.984  1.00  0.00     0.017 C  
ENDBRANCH  27  30
ENDBRANCH  13  24
ENDBRANCH  10  12
ENDBRANCH   9  10
ENDBRANCH   7   9
ENDBRANCH   3   4
ENDBRANCH   2   3
TORSDOF 9
ENDMDL
MODEL      134
REMARK 921   NORMALIZED FREE ENERGY PREDICTED BY IDOCK:   -3.80 KCAL/MOL
REMARK 922        TOTAL FREE ENERGY PREDICTED BY IDOCK:   -7.87 KCAL/MOL
REMARK 923 INTER-LIGAND FREE ENERGY PREDICTED BY IDOCK:   -6.80 KCAL/MOL
REMARK 924 INTRA-LIGAND FREE ENERGY PREDICTED BY IDOCK:   -1.07 KCAL/MOL
REMARK 927      BINDING AFFINITY PREDICTED BY RF-SCORE:    0.00 PKD
ROOT
HETATM    1  C   UNL     1     -12.580  16.026  74.038  1.00  0.00    -0.733 C  
HETATM    2  C   UNL     1     -12.384  15.907  72.533  1.00  0.00    -0.575 C  
ENDROOT
BRANCH   2   3
HETATM    3  C   UNL     1     -13.634  15.330  71.876  1.00  0.00    -0.575 C  
BRANCH   3   4
HETATM    4  C   UNL     1     -13.492  15.203  70.356  1.00  0.00     0.020 C  
HETATM    5  C   UNL     1     -12.145  14.575  69.944  1.00  0.00    -0.389 C  
HETATM    6  C   UNL     1     -11.890  13.187  70.584  1.00  0.00    -0.098 C  
HETATM    7  C   UNL     1     -12.000  14.553  68.411  1.00  0.00    -0.274 C  
HETATM    8  C   UNL     1     -12.894  12.106  70.206  1.00  0.00     0.257 C  
BRANCH   7   9
HETATM    9  O   UNL     1     -10.717  13.990  68.094  1.00  0.00    -0.237 OA 
BRANCH   9  10
HETATM   10  C   UNL     1     -10.250  14.081  66.828  1.00  0.00    -0.264 C  
HETATM   11  O   UNL     1     -10.678  13.466  65.865  1.00  0.00    -0.275 OA 
BRANCH  10  12
HETATM   12  C   UNL     1      -9.287  15.214  66.727  1.00  0.00    -0.268 C  
HETATM   13  C   UNL     1      -8.028  15.246  67.254  1.00  0.00    -0.231 C  
BRANCH  12  14
HETATM   14  C   UNL     1      -9.885  16.464  66.102  1.00  0.00    -0.338 C  
HETATM   15  H1  UNL     1     -10.783  18.340  65.164  1.00  0.00     0.000 HD 
HETATM   16  N   UNL     1     -10.381  17.501  65.583  1.00  0.00    -0.633 NA 
HETATM   17  H2  UNL     1     -11.273  17.926  65.836  1.00  0.00     0.000 HD 
ENDBRANCH  12  14
BRANCH  13  18
HETATM   18  C   UNL     1      -7.406  14.028  67.836  1.00  0.00    -0.162 A  
HETATM   19  C   UNL     1      -7.402  12.826  67.118  1.00  0.00    -0.023 A  
HETATM   20  C   UNL     1      -6.852  14.051  69.124  1.00  0.00    -0.112 A  
HETATM   21  C   UNL     1      -6.393  12.874  69.720  1.00  0.00    -0.063 A  
HETATM   22  C   UNL     1      -6.441  11.674  69.018  1.00  0.00    -0.082 A  
HETATM   23  C   UNL     1      -6.919  11.655  67.709  1.00  0.00    -0.084 A  
ENDBRANCH  13  18
BRANCH  13  24
HETATM   24  C   UNL     1      -7.294  16.542  67.309  1.00  0.00    -0.199 A  
HETATM   25  C   UNL     1      -6.942  18.700  68.376  1.00  0.00    -0.278 A  
HETATM   26  C   UNL     1      -7.605  17.471  68.315  1.00  0.00    -0.240 A  
HETATM   27  C   UNL     1      -5.942  19.005  67.459  1.00  0.00    -0.186 A  
HETATM   28  C   UNL     1      -5.631  18.093  66.449  1.00  0.00    -0.196 A  
HETATM   29  C   UNL     1      -6.307  16.863  66.373  1.00  0.00    -0.043 A  
BRANCH  27  30
HETATM   30  O   UNL     1      -5.381  20.247  67.602  1.00  0.00    -0.175 OA 
HETATM   31  C   UNL     1      -6.137  21.342  67.099  1.00  0.00    -0.343 C  
ENDBRANCH  27  30
ENDBRANCH  13  24
ENDBRANCH  10  12
ENDBRANCH   9  10
ENDBRANCH   7   9
ENDBRANCH   3   4
ENDBRANCH   2   3
TORSDOF 9
ENDMDL
MODEL      135
REMARK 921   NORMALIZED FREE ENERGY PREDICTED BY IDOCK:   -3.79 KCAL/MOL
REMARK 922        TOTAL FREE ENERGY PREDICTED BY IDOCK:   -7.86 KCAL/MOL
REMARK 923 INTER-LIGAND FREE ENERGY PREDICTED BY IDOCK:   -6.62 KCAL/MOL
REMARK 924 INTRA-LIGAND FREE ENERGY PREDICTED BY IDOCK:   -1.24 KCAL/MOL
REMARK 927      BINDING AFFINITY PREDICTED BY RF-SCORE:    0.00 PKD
ROOT
HETATM    1  C   UNL     1     -10.153  18.851  68.071  1.00  0.00    -0.437 C  
HETATM    2  C   UNL     1     -10.781  17.465  68.124  1.00  0.00    -0.343 C  
ENDROOT
BRANCH   2   3
HETATM    3  C   UNL     1     -10.539  16.821  69.486  1.00  0.00    -0.283 C  
BRANCH   3   4
HETATM    4  C   UNL     1     -10.185  15.335  69.378  1.00  0.00    -0.258 C  
HETATM    5  C   UNL     1      -9.154  15.059  68.264  1.00  0.00    -0.182 C  
HETATM    6  C   UNL     1      -7.844  15.871  68.421  1.00  0.00    -0.145 C  
HETATM    7  C   UNL     1      -8.896  13.546  68.123  1.00  0.00    -0.179 C  
HETATM    8  C   UNL     1      -7.052  15.584  69.690  1.00  0.00    -0.170 C  
BRANCH   7   9
HETATM    9  O   UNL     1      -7.958  13.354  67.053  1.00  0.00    -0.102 OA 
BRANCH   9  10
HETATM   10  C   UNL     1      -7.029  12.377  67.157  1.00  0.00    -0.077 C  
HETATM   11  O   UNL     1      -5.827  12.517  66.996  1.00  0.00    -0.304 OA 
BRANCH  10  12
HETATM   12  C   UNL     1      -7.651  11.148  67.725  1.00  0.00    -0.100 C  
HETATM   13  C   UNL     1      -8.568  10.353  67.102  1.00  0.00    -0.130 C  
BRANCH  12  14
HETATM   14  C   UNL     1      -7.298  10.909  69.184  1.00  0.00    -0.126 C  
HETATM   15  H1  UNL     1      -6.769  10.552  71.374  1.00  0.00     0.000 HD 
HETATM   16  N   UNL     1      -7.005  10.712  70.395  1.00  0.00    -0.471 NA 
HETATM   17  H2  UNL     1      -6.162  11.039  70.866  1.00  0.00     0.000 HD 
ENDBRANCH  12  14
BRANCH  13  18
HETATM   18  C   UNL     1      -8.903  10.541  65.666  1.00  0.00    -0.197 A  
HETATM   19  C   UNL     1     -10.089  11.187  65.297  1.00  0.00    -0.329 A  
HETATM   20  C   UNL     1      -8.062  10.040  64.662  1.00  0.00    -0.155 A  
HETATM   21  C   UNL     1      -8.446  10.097  63.321  1.00  0.00    -0.184 A  
HETATM   22  C   UNL     1      -9.652  10.694  62.967  1.00  0.00    -0.379 A  
HETATM   23  C   UNL     1     -10.459  11.263  63.951  1.00  0.00    -0.452 A  
ENDBRANCH  13  18
BRANCH  13  24
HETATM   24  C   UNL     1      -9.299   9.325  67.896  1.00  0.00    -0.143 A  
HETATM   25  C   UNL     1      -9.614   6.990  68.504  1.00  0.00    -0.137 A  
HETATM   26  C   UNL     1      -8.932   7.974  67.783  1.00  0.00    -0.133 A  
HETATM   27  C   UNL     1     -10.646   7.340  69.368  1.00  0.00    -0.229 A  
HETATM   28  C   UNL     1     -11.025   8.679  69.481  1.00  0.00    -0.067 A  
HETATM   29  C   UNL     1     -10.354   9.670  68.745  1.00  0.00    -0.233 A  
BRANCH  27  30
HETATM   30  O   UNL     1     -11.256   6.289  70.001  1.00  0.00    -0.350 OA 
HETATM   31  C   UNL     1     -11.877   6.580  71.248  1.00  0.00    -0.329 C  
ENDBRANCH  27  30
ENDBRANCH  13  24
ENDBRANCH  10  12
ENDBRANCH   9  10
ENDBRANCH   7   9
ENDBRANCH   3   4
ENDBRANCH   2   3
TORSDOF 9
ENDMDL
MODEL      136
REMARK 921   NORMALIZED FREE ENERGY PREDICTED BY IDOCK:   -3.76 KCAL/MOL
REMARK 922        TOTAL FREE ENERGY PREDICTED BY IDOCK:   -7.81 KCAL/MOL
REMARK 923 INTER-LIGAND FREE ENERGY PREDICTED BY IDOCK:   -6.58 KCAL/MOL
REMARK 924 INTRA-LIGAND FREE ENERGY PREDICTED BY IDOCK:   -1.23 KCAL/MOL
REMARK 927      BINDING AFFINITY PREDICTED BY RF-SCORE:    0.00 PKD
ROOT
HETATM    1  C   UNL     1      -9.892   3.742  72.971  1.00  0.00    -0.186 C  
HETATM    2  C   UNL     1      -8.859   4.133  71.923  1.00  0.00    -0.141 C  
ENDROOT
BRANCH   2   3
HETATM    3  C   UNL     1      -9.342   3.749  70.528  1.00  0.00    -0.228 C  
BRANCH   3   4
HETATM    4  C   UNL     1     -10.220   4.833  69.893  1.00  0.00    -0.238 C  
HETATM    5  C   UNL     1      -9.442   5.694  68.877  1.00  0.00    -0.157 C  
HETATM    6  C   UNL     1      -8.780   4.867  67.747  1.00  0.00    -0.105 C  
HETATM    7  C   UNL     1     -10.330   6.830  68.333  1.00  0.00    -0.191 C  
HETATM    8  C   UNL     1      -9.746   4.091  66.861  1.00  0.00    -0.215 C  
BRANCH   7   9
HETATM    9  O   UNL     1      -9.543   7.612  67.422  1.00  0.00    -0.137 OA 
BRANCH   9  10
HETATM   10  C   UNL     1      -8.744   8.589  67.909  1.00  0.00    -0.138 C  
HETATM   11  O   UNL     1      -7.539   8.505  68.080  1.00  0.00    -0.095 OA 
BRANCH  10  12
HETATM   12  C   UNL     1      -9.506   9.867  67.991  1.00  0.00    -0.147 C  
HETATM   13  C   UNL     1      -9.612  10.802  67.003  1.00  0.00    -0.195 C  
BRANCH  12  14
HETATM   14  C   UNL     1     -10.059  10.154  69.378  1.00  0.00    -0.231 C  
HETATM   15  H1  UNL     1     -10.888  10.586  71.459  1.00  0.00     0.000 HD 
HETATM   16  N   UNL     1     -10.517  10.393  70.528  1.00  0.00    -0.374 NA 
HETATM   17  H2  UNL     1     -10.064  10.159  71.412  1.00  0.00     0.000 HD 
ENDBRANCH  12  14
BRANCH  13  18
HETATM   18  C   UNL     1      -9.115  10.531  65.629  1.00  0.00    -0.209 A  
HETATM   19  C   UNL     1      -7.739  10.460  65.378  1.00  0.00    -0.136 A  
HETATM   20  C   UNL     1     -10.007  10.384  64.558  1.00  0.00    -0.401 A  
HETATM   21  C   UNL     1      -9.533  10.267  63.250  1.00  0.00    -0.342 A  
HETATM   22  C   UNL     1      -8.164  10.251  63.005  1.00  0.00    -0.162 A  
HETATM   23  C   UNL     1      -7.268  10.319  64.070  1.00  0.00    -0.057 A  
ENDBRANCH  13  18
BRANCH  13  24
HETATM   24  C   UNL     1     -10.173  12.144  67.328  1.00  0.00    -0.216 A  
HETATM   25  C   UNL     1      -9.841  14.392  68.198  1.00  0.00    -0.223 A  
HETATM   26  C   UNL     1      -9.334  13.132  67.870  1.00  0.00    -0.215 A  
HETATM   27  C   UNL     1     -11.178  14.695  67.963  1.00  0.00    -0.293 A  
HETATM   28  C   UNL     1     -12.023  13.717  67.434  1.00  0.00    -0.423 A  
HETATM   29  C   UNL     1     -11.522  12.443  67.118  1.00  0.00    -0.423 A  
BRANCH  27  30
HETATM   30  O   UNL     1     -11.566  15.951  68.348  1.00  0.00    -0.371 OA 
HETATM   31  C   UNL     1     -10.759  16.586  69.332  1.00  0.00    -0.330 C  
ENDBRANCH  27  30
ENDBRANCH  13  24
ENDBRANCH  10  12
ENDBRANCH   9  10
ENDBRANCH   7   9
ENDBRANCH   3   4
ENDBRANCH   2   3
TORSDOF 9
ENDMDL
MODEL      137
REMARK 921   NORMALIZED FREE ENERGY PREDICTED BY IDOCK:   -3.75 KCAL/MOL
REMARK 922        TOTAL FREE ENERGY PREDICTED BY IDOCK:   -7.80 KCAL/MOL
REMARK 923 INTER-LIGAND FREE ENERGY PREDICTED BY IDOCK:   -6.58 KCAL/MOL
REMARK 924 INTRA-LIGAND FREE ENERGY PREDICTED BY IDOCK:   -1.22 KCAL/MOL
REMARK 927      BINDING AFFINITY PREDICTED BY RF-SCORE:    0.00 PKD
ROOT
HETATM    1  C   UNL     1     -11.691   9.612  71.414  1.00  0.00    -0.478 C  
HETATM    2  C   UNL     1     -13.084  10.127  71.080  1.00  0.00    -0.480 C  
ENDROOT
BRANCH   2   3
HETATM    3  C   UNL     1     -13.010  11.548  70.530  1.00  0.00     0.041 C  
BRANCH   3   4
HETATM    4  C   UNL     1     -11.572  11.991  70.241  1.00  0.00    -0.135 C  
HETATM    5  C   UNL     1     -11.512  13.171  69.251  1.00  0.00    -0.348 C  
HETATM    6  C   UNL     1     -12.328  14.405  69.711  1.00  0.00    -0.333 C  
HETATM    7  C   UNL     1     -10.051  13.524  68.911  1.00  0.00    -0.016 C  
HETATM    8  C   UNL     1     -11.863  15.038  71.016  1.00  0.00    -0.373 C  
BRANCH   7   9
HETATM    9  O   UNL     1     -10.062  14.603  67.964  1.00  0.00    -0.222 OA 
BRANCH   9  10
HETATM   10  C   UNL     1      -9.331  14.495  66.831  1.00  0.00    -0.245 C  
HETATM   11  O   UNL     1      -9.079  15.404  66.057  1.00  0.00    -0.322 OA 
BRANCH  10  12
HETATM   12  C   UNL     1      -8.678  13.157  66.779  1.00  0.00    -0.095 C  
HETATM   13  C   UNL     1      -9.181  12.043  66.173  1.00  0.00    -0.181 C  
BRANCH  12  14
HETATM   14  C   UNL     1      -7.419  13.063  67.626  1.00  0.00    -0.156 C  
HETATM   15  H1  UNL     1      -5.530  12.924  68.897  1.00  0.00     0.000 HD 
HETATM   16  N   UNL     1      -6.374  12.986  68.329  1.00  0.00    -0.079 NA 
HETATM   17  H2  UNL     1      -6.022  13.710  68.955  1.00  0.00     0.000 HD 
ENDBRANCH  12  14
BRANCH  13  18
HETATM   18  C   UNL     1     -10.388  12.114  65.308  1.00  0.00    -0.310 A  
HETATM   19  C   UNL     1     -10.271  11.968  63.920  1.00  0.00    -0.424 A  
HETATM   20  C   UNL     1     -11.651  12.368  65.859  1.00  0.00    -0.449 A  
HETATM   21  C   UNL     1     -12.758  12.570  65.032  1.00  0.00    -0.302 A  
HETATM   22  C   UNL     1     -12.622  12.476  63.651  1.00  0.00    -0.495 A  
HETATM   23  C   UNL     1     -11.386  12.148  63.097  1.00  0.00    -0.263 A  
ENDBRANCH  13  18
BRANCH  13  24
HETATM   24  C   UNL     1      -8.549  10.720  66.440  1.00  0.00    -0.159 A  
HETATM   25  C   UNL     1      -8.389   8.721  67.819  1.00  0.00    -0.118 A  
HETATM   26  C   UNL     1      -8.979   9.956  67.538  1.00  0.00    -0.141 A  
HETATM   27  C   UNL     1      -7.389   8.217  66.995  1.00  0.00    -0.088 A  
HETATM   28  C   UNL     1      -6.947   8.971  65.906  1.00  0.00    -0.088 A  
HETATM   29  C   UNL     1      -7.525  10.222  65.630  1.00  0.00    -0.149 A  
BRANCH  27  30
HETATM   30  O   UNL     1      -6.870   7.009  67.383  1.00  0.00    -0.068 OA 
HETATM   31  C   UNL     1      -7.792   6.071  67.923  1.00  0.00    -0.105 C  
ENDBRANCH  27  30
ENDBRANCH  13  24
ENDBRANCH  10  12
ENDBRANCH   9  10
ENDBRANCH   7   9
ENDBRANCH   3   4
ENDBRANCH   2   3
TORSDOF 9
ENDMDL
MODEL      138
REMARK 921   NORMALIZED FREE ENERGY PREDICTED BY IDOCK:   -3.72 KCAL/MOL
REMARK 922        TOTAL FREE ENERGY PREDICTED BY IDOCK:   -7.74 KCAL/MOL
REMARK 923 INTER-LIGAND FREE ENERGY PREDICTED BY IDOCK:   -5.81 KCAL/MOL
REMARK 924 INTRA-LIGAND FREE ENERGY PREDICTED BY IDOCK:   -1.93 KCAL/MOL
REMARK 927      BINDING AFFINITY PREDICTED BY RF-SCORE:    0.00 PKD
ROOT
HETATM    1  C   UNL     1      -6.275  12.302  66.902  1.00  0.00     0.072 C  
HETATM    2  C   UNL     1      -6.150  12.968  68.265  1.00  0.00    -0.086 C  
ENDROOT
BRANCH   2   3
HETATM    3  C   UNL     1      -5.318  14.243  68.161  1.00  0.00    -0.120 C  
BRANCH   3   4
HETATM    4  C   UNL     1      -6.049  15.360  67.409  1.00  0.00    -0.000 C  
HETATM    5  C   UNL     1      -7.255  15.906  68.201  1.00  0.00    -0.134 C  
HETATM    6  C   UNL     1      -6.883  16.420  69.614  1.00  0.00    -0.105 C  
HETATM    7  C   UNL     1      -8.019  16.957  67.373  1.00  0.00    -0.170 C  
HETATM    8  C   UNL     1      -5.906  17.588  69.642  1.00  0.00    -0.243 C  
BRANCH   7   9
HETATM    9  O   UNL     1      -9.144  17.400  68.148  1.00  0.00    -0.252 OA 
BRANCH   9  10
HETATM   10  C   UNL     1     -10.391  17.254  67.646  1.00  0.00    -0.350 C  
HETATM   11  O   UNL     1     -11.162  18.162  67.376  1.00  0.00    -0.070 OA 
BRANCH  10  12
HETATM   12  C   UNL     1     -10.610  15.835  67.247  1.00  0.00    -0.313 C  
HETATM   13  C   UNL     1     -11.022  14.827  68.068  1.00  0.00    -0.276 C  
BRANCH  12  14
HETATM   14  C   UNL     1     -10.168  15.530  65.824  1.00  0.00    -0.366 C  
HETATM   15  H1  UNL     1      -9.506  15.074  63.690  1.00  0.00     0.000 HD 
HETATM   16  N   UNL     1      -9.802  15.278  64.644  1.00  0.00    -0.334 NA 
HETATM   17  H2  UNL     1      -8.967  15.644  64.187  1.00  0.00     0.000 HD 
ENDBRANCH  12  14
BRANCH  13  18
HETATM   18  C   UNL     1     -11.495  15.102  69.450  1.00  0.00    -0.322 A  
HETATM   19  C   UNL     1     -10.593  15.083  70.520  1.00  0.00    -0.040 A  
HETATM   20  C   UNL     1     -12.852  15.343  69.710  1.00  0.00     0.080 A  
HETATM   21  C   UNL     1     -13.312  15.465  71.022  1.00  0.00    -0.545 A  
HETATM   22  C   UNL     1     -12.415  15.391  72.084  1.00  0.00    -0.452 A  
HETATM   23  C   UNL     1     -11.054  15.229  71.831  1.00  0.00    -0.213 A  
ENDBRANCH  13  18
BRANCH  13  24
HETATM   24  C   UNL     1     -10.929  13.417  67.593  1.00  0.00    -0.277 A  
HETATM   25  C   UNL     1      -9.752  11.287  67.588  1.00  0.00    -0.183 A  
HETATM   26  C   UNL     1      -9.870  12.606  68.033  1.00  0.00    -0.218 A  
HETATM   27  C   UNL     1     -10.702  10.749  66.727  1.00  0.00    -0.231 A  
HETATM   28  C   UNL     1     -11.754  11.548  66.275  1.00  0.00     0.149 A  
HETATM   29  C   UNL     1     -11.867  12.881  66.706  1.00  0.00    -0.452 A  
BRANCH  27  30
HETATM   30  O   UNL     1     -10.469   9.455  66.339  1.00  0.00    -0.204 OA 
HETATM   31  C   UNL     1      -9.229   8.890  66.745  1.00  0.00    -0.159 C  
ENDBRANCH  27  30
ENDBRANCH  13  24
ENDBRANCH  10  12
ENDBRANCH   9  10
ENDBRANCH   7   9
ENDBRANCH   3   4
ENDBRANCH   2   3
TORSDOF 9
ENDMDL
MODEL      139
REMARK 921   NORMALIZED FREE ENERGY PREDICTED BY IDOCK:   -3.71 KCAL/MOL
REMARK 922        TOTAL FREE ENERGY PREDICTED BY IDOCK:   -7.73 KCAL/MOL
REMARK 923 INTER-LIGAND FREE ENERGY PREDICTED BY IDOCK:   -6.55 KCAL/MOL
REMARK 924 INTRA-LIGAND FREE ENERGY PREDICTED BY IDOCK:   -1.18 KCAL/MOL
REMARK 927      BINDING AFFINITY PREDICTED BY RF-SCORE:    0.00 PKD
ROOT
HETATM    1  C   UNL     1     -11.347  16.744  69.254  1.00  0.00     0.112 C  
HETATM    2  C   UNL     1     -10.193  17.718  69.058  1.00  0.00    -0.290 C  
ENDROOT
BRANCH   2   3
HETATM    3  C   UNL     1      -9.832  17.827  67.580  1.00  0.00    -0.304 C  
BRANCH   3   4
HETATM    4  C   UNL     1      -8.702  16.873  67.180  1.00  0.00    -0.219 C  
HETATM    5  C   UNL     1      -9.111  15.392  67.320  1.00  0.00    -0.218 C  
HETATM    6  C   UNL     1     -10.381  15.024  66.512  1.00  0.00    -0.287 C  
HETATM    7  C   UNL     1      -7.921  14.466  67.002  1.00  0.00    -0.014 C  
HETATM    8  C   UNL     1     -10.263  15.199  65.004  1.00  0.00    -0.332 C  
BRANCH   7   9
HETATM    9  O   UNL     1      -8.354  13.109  67.182  1.00  0.00    -0.181 OA 
BRANCH   9  10
HETATM   10  C   UNL     1      -7.437  12.154  67.454  1.00  0.00    -0.156 C  
HETATM   11  O   UNL     1      -6.235  12.245  67.266  1.00  0.00    -0.138 OA 
BRANCH  10  12
HETATM   12  C   UNL     1      -8.072  11.054  68.235  1.00  0.00    -0.128 C  
HETATM   13  C   UNL     1      -9.254  10.440  67.938  1.00  0.00    -0.143 C  
BRANCH  12  14
HETATM   14  C   UNL     1      -7.360  10.750  69.543  1.00  0.00    -0.124 C  
HETATM   15  H1  UNL     1      -6.291  10.294  71.506  1.00  0.00     0.000 HD 
HETATM   16  N   UNL     1      -6.769  10.498  70.628  1.00  0.00    -0.419 NA 
HETATM   17  H2  UNL     1      -6.166  11.140  71.143  1.00  0.00     0.000 HD 
ENDBRANCH  12  14
BRANCH  13  18
HETATM   18  C   UNL     1      -9.951  10.690  66.649  1.00  0.00    -0.259 A  
HETATM   19  C   UNL     1      -9.412  10.207  65.451  1.00  0.00    -0.296 A  
HETATM   20  C   UNL     1     -11.131  11.445  66.606  1.00  0.00    -0.333 A  
HETATM   21  C   UNL     1     -11.707  11.793  65.382  1.00  0.00    -0.117 A  
HETATM   22  C   UNL     1     -11.134  11.353  64.194  1.00  0.00    -0.382 A  
HETATM   23  C   UNL     1     -10.004  10.538  64.229  1.00  0.00    -0.398 A  
ENDBRANCH  13  18
BRANCH  13  24
HETATM   24  C   UNL     1      -9.891   9.557  68.956  1.00  0.00    -0.178 A  
HETATM   25  C   UNL     1     -10.558   7.325  69.661  1.00  0.00    -0.246 A  
HETATM   26  C   UNL     1      -9.950   8.171  68.731  1.00  0.00    -0.198 A  
HETATM   27  C   UNL     1     -11.085   7.842  70.840  1.00  0.00    -0.259 A  
HETATM   28  C   UNL     1     -11.041   9.218  71.071  1.00  0.00    -0.396 A  
HETATM   29  C   UNL     1     -10.446  10.075  70.129  1.00  0.00    -0.338 A  
BRANCH  27  30
HETATM   30  O   UNL     1     -11.677   6.921  71.665  1.00  0.00    -0.271 OA 
HETATM   31  C   UNL     1     -11.239   5.575  71.524  1.00  0.00    -0.038 C  
ENDBRANCH  27  30
ENDBRANCH  13  24
ENDBRANCH  10  12
ENDBRANCH   9  10
ENDBRANCH   7   9
ENDBRANCH   3   4
ENDBRANCH   2   3
TORSDOF 9
ENDMDL
MODEL      140
REMARK 921   NORMALIZED FREE ENERGY PREDICTED BY IDOCK:   -3.71 KCAL/MOL
REMARK 922        TOTAL FREE ENERGY PREDICTED BY IDOCK:   -7.73 KCAL/MOL
REMARK 923 INTER-LIGAND FREE ENERGY PREDICTED BY IDOCK:   -8.23 KCAL/MOL
REMARK 924 INTRA-LIGAND FREE ENERGY PREDICTED BY IDOCK:    0.50 KCAL/MOL
REMARK 927      BINDING AFFINITY PREDICTED BY RF-SCORE:    0.00 PKD
ROOT
HETATM    1  C   UNL     1      -7.449   7.727  70.875  1.00  0.00    -0.073 C  
HETATM    2  C   UNL     1      -6.804   6.980  69.716  1.00  0.00    -0.050 C  
ENDROOT
BRANCH   2   3
HETATM    3  C   UNL     1      -7.805   6.790  68.580  1.00  0.00    -0.118 C  
BRANCH   3   4
HETATM    4  C   UNL     1      -9.182   7.375  68.909  1.00  0.00    -0.142 C  
HETATM    5  C   UNL     1      -9.157   8.914  69.000  1.00  0.00    -0.137 C  
HETATM    6  C   UNL     1      -8.620   9.600  67.719  1.00  0.00    -0.125 C  
HETATM    7  C   UNL     1     -10.535   9.457  69.426  1.00  0.00    -0.220 C  
HETATM    8  C   UNL     1      -9.440   9.351  66.459  1.00  0.00    -0.246 C  
BRANCH   7   9
HETATM    9  O   UNL     1     -10.438  10.886  69.525  1.00  0.00    -0.215 OA 
BRANCH   9  10
HETATM   10  C   UNL     1     -11.142  11.658  68.666  1.00  0.00    -0.234 C  
HETATM   11  O   UNL     1     -12.223  11.375  68.175  1.00  0.00    -0.602 OA 
BRANCH  10  12
HETATM   12  C   UNL     1     -10.520  13.010  68.579  1.00  0.00    -0.261 C  
HETATM   13  C   UNL     1     -10.977  14.142  69.187  1.00  0.00    -0.280 C  
BRANCH  12  14
HETATM   14  C   UNL     1      -9.371  13.086  67.587  1.00  0.00    -0.202 C  
HETATM   15  H1  UNL     1      -7.646  13.200  66.098  1.00  0.00     0.000 HD 
HETATM   16  N   UNL     1      -8.417  13.149  66.764  1.00  0.00    -0.426 NA 
HETATM   17  H2  UNL     1      -7.968  12.354  66.310  1.00  0.00     0.000 HD 
ENDBRANCH  12  14
BRANCH  13  18
HETATM   18  C   UNL     1     -12.074  14.090  70.190  1.00  0.00    -0.419 A  
HETATM   19  C   UNL     1     -12.935  15.182  70.350  1.00  0.00    -0.296 A  
HETATM   20  C   UNL     1     -12.239  12.969  71.016  1.00  0.00    -0.232 A  
HETATM   21  C   UNL     1     -13.181  12.980  72.047  1.00  0.00    -0.543 A  
HETATM   22  C   UNL     1     -13.996  14.092  72.233  1.00  0.00    -0.651 A  
HETATM   23  C   UNL     1     -13.893  15.180  71.368  1.00  0.00    -0.587 A  
ENDBRANCH  13  18
BRANCH  13  24
HETATM   24  C   UNL     1     -10.414  15.462  68.786  1.00  0.00    -0.231 A  
HETATM   25  C   UNL     1     -10.650  17.547  67.554  1.00  0.00    -0.333 A  
HETATM   26  C   UNL     1     -11.164  16.312  67.957  1.00  0.00    -0.260 A  
HETATM   27  C   UNL     1      -9.399  17.965  67.995  1.00  0.00    -0.274 A  
HETATM   28  C   UNL     1      -8.640  17.125  68.812  1.00  0.00    -0.236 A  
HETATM   29  C   UNL     1      -9.146  15.874  69.206  1.00  0.00    -0.253 A  
BRANCH  27  30
HETATM   30  O   UNL     1      -8.990  19.181  67.515  1.00  0.00    -0.289 OA 
HETATM   31  C   UNL     1      -7.750  19.670  68.012  1.00  0.00    -0.297 C  
ENDBRANCH  27  30
ENDBRANCH  13  24
ENDBRANCH  10  12
ENDBRANCH   9  10
ENDBRANCH   7   9
ENDBRANCH   3   4
ENDBRANCH   2   3
TORSDOF 9
ENDMDL
MODEL      141
REMARK 921   NORMALIZED FREE ENERGY PREDICTED BY IDOCK:   -3.71 KCAL/MOL
REMARK 922        TOTAL FREE ENERGY PREDICTED BY IDOCK:   -7.73 KCAL/MOL
REMARK 923 INTER-LIGAND FREE ENERGY PREDICTED BY IDOCK:   -7.72 KCAL/MOL
REMARK 924 INTRA-LIGAND FREE ENERGY PREDICTED BY IDOCK:   -0.01 KCAL/MOL
REMARK 927      BINDING AFFINITY PREDICTED BY RF-SCORE:    0.00 PKD
ROOT
HETATM    1  C   UNL     1      -9.133   6.545  71.965  1.00  0.00    -0.140 C  
HETATM    2  C   UNL     1      -8.838   5.912  70.612  1.00  0.00    -0.144 C  
ENDROOT
BRANCH   2   3
HETATM    3  C   UNL     1     -10.131   5.450  69.946  1.00  0.00    -0.322 C  
BRANCH   3   4
HETATM    4  C   UNL     1     -10.869   6.594  69.244  1.00  0.00    -0.335 C  
HETATM    5  C   UNL     1     -10.029   7.227  68.116  1.00  0.00    -0.181 C  
HETATM    6  C   UNL     1      -9.562   6.207  67.047  1.00  0.00    -0.153 C  
HETATM    7  C   UNL     1     -10.765   8.432  67.499  1.00  0.00    -0.137 C  
HETATM    8  C   UNL     1     -10.682   5.513  66.282  1.00  0.00    -0.191 C  
BRANCH   7   9
HETATM    9  O   UNL     1      -9.920   8.996  66.484  1.00  0.00    -0.246 OA 
BRANCH   9  10
HETATM   10  C   UNL     1      -9.261  10.149  66.737  1.00  0.00    -0.151 C  
HETATM   11  O   UNL     1      -8.315  10.584  66.101  1.00  0.00    -0.143 OA 
BRANCH  10  12
HETATM   12  C   UNL     1      -9.998  10.934  67.767  1.00  0.00    -0.198 C  
HETATM   13  C   UNL     1     -10.796  12.015  67.531  1.00  0.00    -0.284 C  
BRANCH  12  14
HETATM   14  C   UNL     1      -9.662  10.530  69.194  1.00  0.00    -0.211 C  
HETATM   15  H1  UNL     1      -9.158   9.923  71.334  1.00  0.00     0.000 HD 
HETATM   16  N   UNL     1      -9.383  10.195  70.377  1.00  0.00    -0.284 NA 
HETATM   17  H2  UNL     1      -9.515  10.772  71.208  1.00  0.00     0.000 HD 
ENDBRANCH  12  14
BRANCH  13  18
HETATM   18  C   UNL     1     -11.172  12.409  66.148  1.00  0.00    -0.364 A  
HETATM   19  C   UNL     1     -11.013  13.734  65.724  1.00  0.00    -0.280 A  
HETATM   20  C   UNL     1     -11.726  11.475  65.261  1.00  0.00     0.113 A  
HETATM   21  C   UNL     1     -12.203  11.879  64.012  1.00  0.00    -0.444 A  
HETATM   22  C   UNL     1     -12.090  13.209  63.621  1.00  0.00    -0.583 A  
HETATM   23  C   UNL     1     -11.471  14.129  64.464  1.00  0.00    -0.380 A  
ENDBRANCH  13  18
BRANCH  13  24
HETATM   24  C   UNL     1     -11.240  12.857  68.678  1.00  0.00    -0.321 A  
HETATM   25  C   UNL     1     -12.556  13.091  70.712  1.00  0.00    -0.321 A  
HETATM   26  C   UNL     1     -12.112  12.316  69.638  1.00  0.00    -0.277 A  
HETATM   27  C   UNL     1     -12.114  14.401  70.862  1.00  0.00    -0.344 A  
HETATM   28  C   UNL     1     -11.255  14.953  69.910  1.00  0.00    -0.307 A  
HETATM   29  C   UNL     1     -10.820  14.182  68.818  1.00  0.00    -0.271 A  
BRANCH  27  30
HETATM   30  O   UNL     1     -12.635  15.071  71.938  1.00  0.00    -0.303 OA 
HETATM   31  C   UNL     1     -11.972  16.271  72.315  1.00  0.00    -0.520 C  
ENDBRANCH  27  30
ENDBRANCH  13  24
ENDBRANCH  10  12
ENDBRANCH   9  10
ENDBRANCH   7   9
ENDBRANCH   3   4
ENDBRANCH   2   3
TORSDOF 9
ENDMDL
MODEL      142
REMARK 921   NORMALIZED FREE ENERGY PREDICTED BY IDOCK:   -3.68 KCAL/MOL
REMARK 922        TOTAL FREE ENERGY PREDICTED BY IDOCK:   -7.69 KCAL/MOL
REMARK 923 INTER-LIGAND FREE ENERGY PREDICTED BY IDOCK:   -5.62 KCAL/MOL
REMARK 924 INTRA-LIGAND FREE ENERGY PREDICTED BY IDOCK:   -2.07 KCAL/MOL
REMARK 927      BINDING AFFINITY PREDICTED BY RF-SCORE:    0.00 PKD
ROOT
HETATM    1  C   UNL     1     -10.647   5.279  66.837  1.00  0.00    -0.283 C  
HETATM    2  C   UNL     1      -9.597   5.569  67.901  1.00  0.00    -0.143 C  
ENDROOT
BRANCH   2   3
HETATM    3  C   UNL     1      -9.723   7.006  68.399  1.00  0.00    -0.139 C  
BRANCH   3   4
HETATM    4  C   UNL     1      -8.501   7.457  69.205  1.00  0.00    -0.136 C  
HETATM    5  C   UNL     1      -8.440   8.990  69.365  1.00  0.00    -0.117 C  
HETATM    6  C   UNL     1      -9.711   9.595  70.011  1.00  0.00    -0.280 C  
HETATM    7  C   UNL     1      -7.150   9.410  70.096  1.00  0.00    -0.083 C  
HETATM    8  C   UNL     1     -10.005   9.121  71.428  1.00  0.00    -0.373 C  
BRANCH   7   9
HETATM    9  O   UNL     1      -7.135  10.843  70.183  1.00  0.00    -0.158 OA 
BRANCH   9  10
HETATM   10  C   UNL     1      -6.372  11.550  69.319  1.00  0.00    -0.091 C  
HETATM   11  O   UNL     1      -5.477  11.097  68.623  1.00  0.00    -0.044 OA 
BRANCH  10  12
HETATM   12  C   UNL     1      -6.930  12.923  69.161  1.00  0.00    -0.015 C  
HETATM   13  C   UNL     1      -7.927  13.289  68.304  1.00  0.00    -0.144 C  
BRANCH  12  14
HETATM   14  C   UNL     1      -6.170  13.980  69.944  1.00  0.00    -0.142 C  
HETATM   15  H1  UNL     1      -5.028  15.566  71.121  1.00  0.00     0.000 HD 
HETATM   16  N   UNL     1      -5.538  14.857  70.595  1.00  0.00    -0.139 NA 
HETATM   17  H2  UNL     1      -4.837  14.677  71.314  1.00  0.00     0.000 HD 
ENDBRANCH  12  14
BRANCH  13  18
HETATM   18  C   UNL     1      -8.712  12.273  67.555  1.00  0.00    -0.177 A  
HETATM   19  C   UNL     1      -8.083  11.450  66.612  1.00  0.00    -0.155 A  
HETATM   20  C   UNL     1     -10.095  12.149  67.748  1.00  0.00    -0.203 A  
HETATM   21  C   UNL     1     -10.849  11.290  66.945  1.00  0.00    -0.333 A  
HETATM   22  C   UNL     1     -10.223  10.515  65.974  1.00  0.00    -0.310 A  
HETATM   23  C   UNL     1      -8.838  10.575  65.827  1.00  0.00    -0.190 A  
ENDBRANCH  13  18
BRANCH  13  24
HETATM   24  C   UNL     1      -8.184  14.737  68.063  1.00  0.00    -0.142 A  
HETATM   25  C   UNL     1      -9.222  16.820  68.771  1.00  0.00    -0.260 A  
HETATM   26  C   UNL     1      -8.953  15.466  68.985  1.00  0.00    -0.230 A  
HETATM   27  C   UNL     1      -8.705  17.472  67.657  1.00  0.00    -0.223 A  
HETATM   28  C   UNL     1      -7.948  16.755  66.728  1.00  0.00    -0.275 A  
HETATM   29  C   UNL     1      -7.689  15.389  66.930  1.00  0.00    -0.159 A  
BRANCH  27  30
HETATM   30  O   UNL     1      -9.056  18.792  67.540  1.00  0.00    -0.274 OA 
HETATM   31  C   UNL     1      -9.488  19.437  68.732  1.00  0.00    -0.404 C  
ENDBRANCH  27  30
ENDBRANCH  13  24
ENDBRANCH  10  12
ENDBRANCH   9  10
ENDBRANCH   7   9
ENDBRANCH   3   4
ENDBRANCH   2   3
TORSDOF 9
ENDMDL
MODEL      143
REMARK 921   NORMALIZED FREE ENERGY PREDICTED BY IDOCK:   -3.67 KCAL/MOL
REMARK 922        TOTAL FREE ENERGY PREDICTED BY IDOCK:   -7.67 KCAL/MOL
REMARK 923 INTER-LIGAND FREE ENERGY PREDICTED BY IDOCK:   -6.30 KCAL/MOL
REMARK 924 INTRA-LIGAND FREE ENERGY PREDICTED BY IDOCK:   -1.37 KCAL/MOL
REMARK 927      BINDING AFFINITY PREDICTED BY RF-SCORE:    0.00 PKD
ROOT
HETATM    1  C   UNL     1     -11.902  15.484  71.200  1.00  0.00    -0.435 C  
HETATM    2  C   UNL     1     -11.720  15.573  69.691  1.00  0.00    -0.371 C  
ENDROOT
BRANCH   2   3
HETATM    3  C   UNL     1     -11.964  14.215  69.042  1.00  0.00    -0.376 C  
BRANCH   3   4
HETATM    4  C   UNL     1     -10.672  13.414  68.854  1.00  0.00    -0.219 C  
HETATM    5  C   UNL     1     -10.942  11.911  68.631  1.00  0.00    -0.271 C  
HETATM    6  C   UNL     1     -11.883  11.624  67.434  1.00  0.00    -0.170 C  
HETATM    7  C   UNL     1      -9.619  11.127  68.542  1.00  0.00    -0.193 C  
HETATM    8  C   UNL     1     -11.360  12.076  66.077  1.00  0.00    -0.398 C  
BRANCH   7   9
HETATM    9  O   UNL     1      -9.937   9.738  68.369  1.00  0.00    -0.149 OA 
BRANCH   9  10
HETATM   10  C   UNL     1      -8.939   8.825  68.386  1.00  0.00    -0.141 C  
HETATM   11  O   UNL     1      -8.012   8.796  69.179  1.00  0.00    -0.105 OA 
BRANCH  10  12
HETATM   12  C   UNL     1      -9.256   7.717  67.440  1.00  0.00    -0.156 C  
HETATM   13  C   UNL     1      -9.686   6.469  67.783  1.00  0.00    -0.131 C  
BRANCH  12  14
HETATM   14  C   UNL     1      -8.897   8.032  65.996  1.00  0.00    -0.162 C  
HETATM   15  H1  UNL     1      -8.360   8.505  63.830  1.00  0.00     0.000 HD 
HETATM   16  N   UNL     1      -8.600   8.294  64.799  1.00  0.00    -0.386 NA 
HETATM   17  H2  UNL     1      -8.796   9.169  64.313  1.00  0.00     0.000 HD 
ENDBRANCH  12  14
BRANCH  13  18
HETATM   18  C   UNL     1     -10.080   6.146  69.179  1.00  0.00    -0.212 A  
HETATM   19  C   UNL     1     -11.325   6.553  69.673  1.00  0.00    -0.443 A  
HETATM   20  C   UNL     1      -9.200   5.468  70.035  1.00  0.00    -0.172 A  
HETATM   21  C   UNL     1      -9.518   5.288  71.382  1.00  0.00    -0.194 A  
HETATM   22  C   UNL     1     -10.736   5.743  71.877  1.00  0.00    -0.297 A  
HETATM   23  C   UNL     1     -11.650   6.349  71.017  1.00  0.00    -0.386 A  
ENDBRANCH  13  18
BRANCH  13  24
HETATM   24  C   UNL     1      -9.694   5.393  66.752  1.00  0.00    -0.170 A  
HETATM   25  C   UNL     1      -8.511   3.630  65.562  1.00  0.00    -0.110 A  
HETATM   26  C   UNL     1      -8.533   4.632  66.535  1.00  0.00    -0.109 A  
HETATM   27  C   UNL     1      -9.651   3.350  64.817  1.00  0.00    -0.159 A  
HETATM   28  C   UNL     1     -10.809   4.105  65.017  1.00  0.00    -0.062 A  
HETATM   29  C   UNL     1     -10.830   5.126  65.982  1.00  0.00    -0.127 A  
BRANCH  27  30
HETATM   30  O   UNL     1      -9.503   2.364  63.877  1.00  0.00    -0.111 OA 
HETATM   31  C   UNL     1      -8.424   2.521  62.963  1.00  0.00    -0.081 C  
ENDBRANCH  27  30
ENDBRANCH  13  24
ENDBRANCH  10  12
ENDBRANCH   9  10
ENDBRANCH   7   9
ENDBRANCH   3   4
ENDBRANCH   2   3
TORSDOF 9
ENDMDL
MODEL      144
REMARK 921   NORMALIZED FREE ENERGY PREDICTED BY IDOCK:   -3.65 KCAL/MOL
REMARK 922        TOTAL FREE ENERGY PREDICTED BY IDOCK:   -7.65 KCAL/MOL
REMARK 923 INTER-LIGAND FREE ENERGY PREDICTED BY IDOCK:   -6.59 KCAL/MOL
REMARK 924 INTRA-LIGAND FREE ENERGY PREDICTED BY IDOCK:   -1.05 KCAL/MOL
REMARK 927      BINDING AFFINITY PREDICTED BY RF-SCORE:    0.00 PKD
ROOT
HETATM    1  C   UNL     1      -7.110  19.252  69.198  1.00  0.00    -0.370 C  
HETATM    2  C   UNL     1      -7.966  20.307  68.510  1.00  0.00     0.084 C  
ENDROOT
BRANCH   2   3
HETATM    3  C   UNL     1      -9.448  19.998  68.700  1.00  0.00    -0.202 C  
BRANCH   3   4
HETATM    4  C   UNL     1      -9.726  18.495  68.794  1.00  0.00    -0.390 C  
HETATM    5  C   UNL     1     -10.271  17.917  67.472  1.00  0.00    -0.366 C  
HETATM    6  C   UNL     1      -9.344  18.175  66.258  1.00  0.00    -0.220 C  
HETATM    7  C   UNL     1     -10.629  16.427  67.635  1.00  0.00    -0.313 C  
HETATM    8  C   UNL     1      -7.961  17.545  66.354  1.00  0.00    -0.320 C  
BRANCH   7   9
HETATM    9  O   UNL     1     -11.159  15.958  66.386  1.00  0.00    -0.182 OA 
BRANCH   9  10
HETATM   10  C   UNL     1     -10.428  15.102  65.637  1.00  0.00    -0.359 C  
HETATM   11  O   UNL     1      -9.571  15.417  64.827  1.00  0.00     0.053 OA 
BRANCH  10  12
HETATM   12  C   UNL     1     -10.651  13.705  66.107  1.00  0.00    -0.291 C  
HETATM   13  C   UNL     1      -9.813  12.987  66.909  1.00  0.00    -0.240 C  
BRANCH  12  14
HETATM   14  C   UNL     1     -11.860  13.038  65.473  1.00  0.00    -0.395 C  
HETATM   15  H1  UNL     1     -13.676  12.038  64.520  1.00  0.00     0.000 HD 
HETATM   16  N   UNL     1     -12.864  12.485  64.946  1.00  0.00    -0.800 NA 
HETATM   17  H2  UNL     1     -13.515  12.925  64.295  1.00  0.00     0.000 HD 
ENDBRANCH  12  14
BRANCH  13  18
HETATM   18  C   UNL     1      -8.646  13.624  67.573  1.00  0.00    -0.197 A  
HETATM   19  C   UNL     1      -8.812  14.322  68.775  1.00  0.00    -0.094 A  
HETATM   20  C   UNL     1      -7.372  13.574  66.989  1.00  0.00     0.325 A  
HETATM   21  C   UNL     1      -6.308  14.288  67.543  1.00  0.00    -0.028 A  
HETATM   22  C   UNL     1      -6.496  15.022  68.710  1.00  0.00    -0.082 A  
HETATM   23  C   UNL     1      -7.739  15.016  69.340  1.00  0.00    -0.190 A  
ENDBRANCH  13  18
BRANCH  13  24
HETATM   24  C   UNL     1     -10.035  11.521  67.066  1.00  0.00    -0.225 A  
HETATM   25  C   UNL     1      -9.684   9.256  66.248  1.00  0.00    -0.340 A  
HETATM   26  C   UNL     1      -9.476  10.633  66.132  1.00  0.00    -0.218 A  
HETATM   27  C   UNL     1     -10.422   8.745  67.310  1.00  0.00    -0.283 A  
HETATM   28  C   UNL     1     -10.990   9.618  68.239  1.00  0.00    -0.172 A  
HETATM   29  C   UNL     1     -10.798  11.005  68.116  1.00  0.00    -0.274 A  
BRANCH  27  30
HETATM   30  O   UNL     1     -10.580   7.383  67.306  1.00  0.00    -0.278 OA 
HETATM   31  C   UNL     1     -10.610   6.749  68.578  1.00  0.00    -0.225 C  
ENDBRANCH  27  30
ENDBRANCH  13  24
ENDBRANCH  10  12
ENDBRANCH   9  10
ENDBRANCH   7   9
ENDBRANCH   3   4
ENDBRANCH   2   3
TORSDOF 9
ENDMDL
MODEL      145
REMARK 921   NORMALIZED FREE ENERGY PREDICTED BY IDOCK:   -3.64 KCAL/MOL
REMARK 922        TOTAL FREE ENERGY PREDICTED BY IDOCK:   -7.63 KCAL/MOL
REMARK 923 INTER-LIGAND FREE ENERGY PREDICTED BY IDOCK:   -5.79 KCAL/MOL
REMARK 924 INTRA-LIGAND FREE ENERGY PREDICTED BY IDOCK:   -1.84 KCAL/MOL
REMARK 927      BINDING AFFINITY PREDICTED BY RF-SCORE:    0.00 PKD
ROOT
HETATM    1  C   UNL     1      -6.395  11.628  68.984  1.00  0.00    -0.072 C  
HETATM    2  C   UNL     1      -5.511  10.436  68.643  1.00  0.00    -0.037 C  
ENDROOT
BRANCH   2   3
HETATM    3  C   UNL     1      -5.218   9.614  69.895  1.00  0.00    -0.033 C  
BRANCH   3   4
HETATM    4  C   UNL     1      -6.448   9.458  70.795  1.00  0.00    -0.086 C  
HETATM    5  C   UNL     1      -7.511   8.527  70.176  1.00  0.00    -0.060 C  
HETATM    6  C   UNL     1      -6.969   7.118  69.826  1.00  0.00    -0.054 C  
HETATM    7  C   UNL     1      -8.769   8.471  71.063  1.00  0.00    -0.173 C  
HETATM    8  C   UNL     1      -6.461   6.307  71.011  1.00  0.00    -0.049 C  
BRANCH   7   9
HETATM    9  O   UNL     1      -9.729   7.619  70.419  1.00  0.00    -0.179 OA 
BRANCH   9  10
HETATM   10  C   UNL     1     -11.015   8.027  70.323  1.00  0.00    -0.242 C  
HETATM   11  O   UNL     1     -11.951   7.593  70.973  1.00  0.00    -0.299 OA 
BRANCH  10  12
HETATM   12  C   UNL     1     -11.092   9.249  69.473  1.00  0.00    -0.099 C  
HETATM   13  C   UNL     1     -10.632   9.366  68.194  1.00  0.00    -0.261 C  
BRANCH  12  14
HETATM   14  C   UNL     1     -11.603  10.473  70.215  1.00  0.00    -0.332 C  
HETATM   15  H1  UNL     1     -12.371  12.310  71.329  1.00  0.00     0.000 HD 
HETATM   16  N   UNL     1     -12.027  11.489  70.831  1.00  0.00    -0.381 NA 
HETATM   17  H2  UNL     1     -12.498  12.289  70.409  1.00  0.00     0.000 HD 
ENDBRANCH  12  14
BRANCH  13  18
HETATM   18  C   UNL     1     -10.162   8.179  67.432  1.00  0.00    -0.327 A  
HETATM   19  C   UNL     1     -11.020   7.091  67.223  1.00  0.00    -0.372 A  
HETATM   20  C   UNL     1      -8.849   8.109  66.948  1.00  0.00    -0.145 A  
HETATM   21  C   UNL     1      -8.372   6.939  66.354  1.00  0.00    -0.125 A  
HETATM   22  C   UNL     1      -9.216   5.844  66.198  1.00  0.00    -0.164 A  
HETATM   23  C   UNL     1     -10.546   5.930  66.606  1.00  0.00    -0.330 A  
ENDBRANCH  13  18
BRANCH  13  24
HETATM   24  C   UNL     1     -10.531  10.718  67.576  1.00  0.00    -0.260 A  
HETATM   25  C   UNL     1      -9.449  12.895  67.479  1.00  0.00    -0.198 A  
HETATM   26  C   UNL     1      -9.550  11.616  68.030  1.00  0.00    -0.184 A  
HETATM   27  C   UNL     1     -10.298  13.287  66.449  1.00  0.00    -0.286 A  
HETATM   28  C   UNL     1     -11.284  12.407  65.997  1.00  0.00    -0.374 A  
HETATM   29  C   UNL     1     -11.401  11.125  66.561  1.00  0.00    -0.034 A  
BRANCH  27  30
HETATM   30  O   UNL     1     -10.121  14.571  66.006  1.00  0.00    -0.289 OA 
HETATM   31  C   UNL     1     -10.708  14.890  64.749  1.00  0.00    -0.341 C  
ENDBRANCH  27  30
ENDBRANCH  13  24
ENDBRANCH  10  12
ENDBRANCH   9  10
ENDBRANCH   7   9
ENDBRANCH   3   4
ENDBRANCH   2   3
TORSDOF 9
ENDMDL
MODEL      146
REMARK 921   NORMALIZED FREE ENERGY PREDICTED BY IDOCK:   -3.62 KCAL/MOL
REMARK 922        TOTAL FREE ENERGY PREDICTED BY IDOCK:   -7.60 KCAL/MOL
REMARK 923 INTER-LIGAND FREE ENERGY PREDICTED BY IDOCK:   -6.27 KCAL/MOL
REMARK 924 INTRA-LIGAND FREE ENERGY PREDICTED BY IDOCK:   -1.33 KCAL/MOL
REMARK 927      BINDING AFFINITY PREDICTED BY RF-SCORE:    0.00 PKD
ROOT
HETATM    1  C   UNL     1     -11.925  16.059  72.843  1.00  0.00    -0.611 C  
HETATM    2  C   UNL     1     -13.351  15.534  72.935  1.00  0.00    -0.646 C  
ENDROOT
BRANCH   2   3
HETATM    3  C   UNL     1     -13.384  14.030  72.677  1.00  0.00    -0.643 C  
BRANCH   3   4
HETATM    4  C   UNL     1     -13.236  13.687  71.191  1.00  0.00    -0.254 C  
HETATM    5  C   UNL     1     -12.187  12.582  70.948  1.00  0.00    -0.277 C  
HETATM    6  C   UNL     1     -12.471  11.277  71.733  1.00  0.00    -0.125 C  
HETATM    7  C   UNL     1     -11.997  12.334  69.439  1.00  0.00    -0.259 C  
HETATM    8  C   UNL     1     -13.779  10.582  71.380  1.00  0.00     0.150 C  
BRANCH   7   9
HETATM    9  O   UNL     1     -10.989  11.324  69.279  1.00  0.00    -0.232 OA 
BRANCH   9  10
HETATM   10  C   UNL     1     -11.068  10.472  68.232  1.00  0.00    -0.284 C  
HETATM   11  O   UNL     1     -11.434  10.760  67.104  1.00  0.00    -0.400 OA 
BRANCH  10  12
HETATM   12  C   UNL     1     -10.425   9.175  68.589  1.00  0.00    -0.235 C  
HETATM   13  C   UNL     1      -9.469   8.528  67.861  1.00  0.00    -0.157 C  
BRANCH  12  14
HETATM   14  C   UNL     1     -11.048   8.503  69.802  1.00  0.00    -0.062 C  
HETATM   15  H1  UNL     1     -11.982   7.494  71.622  1.00  0.00     0.000 HD 
HETATM   16  N   UNL     1     -11.564   7.945  70.808  1.00  0.00    -0.352 NA 
HETATM   17  H2  UNL     1     -11.107   7.261  71.411  1.00  0.00     0.000 HD 
ENDBRANCH  12  14
BRANCH  13  18
HETATM   18  C   UNL     1      -8.817   9.178  66.694  1.00  0.00    -0.147 A  
HETATM   19  C   UNL     1      -9.244   8.884  65.394  1.00  0.00    -0.202 A  
HETATM   20  C   UNL     1      -7.741  10.058  66.872  1.00  0.00    -0.096 A  
HETATM   21  C   UNL     1      -7.044  10.559  65.770  1.00  0.00    -0.124 A  
HETATM   22  C   UNL     1      -7.443  10.219  64.481  1.00  0.00    -0.088 A  
HETATM   23  C   UNL     1      -8.559   9.406  64.293  1.00  0.00    -0.216 A  
ENDBRANCH  13  18
BRANCH  13  24
HETATM   24  C   UNL     1      -9.126   7.118  68.201  1.00  0.00    -0.133 A  
HETATM   25  C   UNL     1      -9.694   4.753  68.126  1.00  0.00    -0.201 A  
HETATM   26  C   UNL     1      -9.986   6.081  67.804  1.00  0.00    -0.149 A  
HETATM   27  C   UNL     1      -8.529   4.438  68.818  1.00  0.00    -0.084 A  
HETATM   28  C   UNL     1      -7.672   5.462  69.227  1.00  0.00    -0.085 A  
HETATM   29  C   UNL     1      -7.970   6.800  68.920  1.00  0.00    -0.116 A  
BRANCH  27  30
HETATM   30  O   UNL     1      -8.362   3.107  69.099  1.00  0.00    -0.058 OA 
HETATM   31  C   UNL     1      -9.184   2.202  68.373  1.00  0.00    -0.184 C  
ENDBRANCH  27  30
ENDBRANCH  13  24
ENDBRANCH  10  12
ENDBRANCH   9  10
ENDBRANCH   7   9
ENDBRANCH   3   4
ENDBRANCH   2   3
TORSDOF 9
ENDMDL
MODEL      147
REMARK 921   NORMALIZED FREE ENERGY PREDICTED BY IDOCK:   -3.60 KCAL/MOL
REMARK 922        TOTAL FREE ENERGY PREDICTED BY IDOCK:   -7.56 KCAL/MOL
REMARK 923 INTER-LIGAND FREE ENERGY PREDICTED BY IDOCK:   -5.79 KCAL/MOL
REMARK 924 INTRA-LIGAND FREE ENERGY PREDICTED BY IDOCK:   -1.77 KCAL/MOL
REMARK 927      BINDING AFFINITY PREDICTED BY RF-SCORE:    0.00 PKD
ROOT
HETATM    1  C   UNL     1     -11.974  14.873  64.371  1.00  0.00    -0.408 C  
HETATM    2  C   UNL     1     -11.798  13.381  64.123  1.00  0.00    -0.492 C  
ENDROOT
BRANCH   2   3
HETATM    3  C   UNL     1     -12.352  12.576  65.295  1.00  0.00    -0.469 C  
BRANCH   3   4
HETATM    4  C   UNL     1     -11.415  12.582  66.506  1.00  0.00    -0.418 C  
HETATM    5  C   UNL     1     -11.118  11.160  67.024  1.00  0.00    -0.339 C  
HETATM    6  C   UNL     1     -10.526  10.221  65.943  1.00  0.00    -0.167 C  
HETATM    7  C   UNL     1     -10.253  11.213  68.297  1.00  0.00    -0.182 C  
HETATM    8  C   UNL     1      -9.183  10.657  65.372  1.00  0.00    -0.226 C  
BRANCH   7   9
HETATM    9  O   UNL     1     -10.041   9.866  68.747  1.00  0.00    -0.161 OA 
BRANCH   9  10
HETATM   10  C   UNL     1      -8.819   9.505  69.202  1.00  0.00    -0.147 C  
HETATM   11  O   UNL     1      -8.124  10.153  69.968  1.00  0.00    -0.166 OA 
BRANCH  10  12
HETATM   12  C   UNL     1      -8.536   8.093  68.818  1.00  0.00    -0.127 C  
HETATM   13  C   UNL     1      -8.844   6.986  69.553  1.00  0.00    -0.133 C  
BRANCH  12  14
HETATM   14  C   UNL     1      -7.694   7.964  67.559  1.00  0.00    -0.117 C  
HETATM   15  H1  UNL     1      -6.431   7.771  65.669  1.00  0.00     0.000 HD 
HETATM   16  N   UNL     1      -6.996   7.858  66.514  1.00  0.00    -0.070 NA 
HETATM   17  H2  UNL     1      -6.505   8.618  66.044  1.00  0.00     0.000 HD 
ENDBRANCH  12  14
BRANCH  13  18
HETATM   18  C   UNL     1      -9.698   7.080  70.767  1.00  0.00    -0.170 A  
HETATM   19  C   UNL     1     -11.087   6.937  70.665  1.00  0.00    -0.322 A  
HETATM   20  C   UNL     1      -9.134   7.351  72.022  1.00  0.00    -0.149 A  
HETATM   21  C   UNL     1      -9.951   7.574  73.133  1.00  0.00    -0.344 A  
HETATM   22  C   UNL     1     -11.333   7.483  73.010  1.00  0.00    -0.313 A  
HETATM   23  C   UNL     1     -11.899   7.137  71.784  1.00  0.00    -0.338 A  
ENDBRANCH  13  18
BRANCH  13  24
HETATM   24  C   UNL     1      -8.255   5.671  69.172  1.00  0.00    -0.100 A  
HETATM   25  C   UNL     1      -8.427   3.588  67.925  1.00  0.00    -0.108 A  
HETATM   26  C   UNL     1      -8.950   4.833  68.284  1.00  0.00    -0.132 A  
HETATM   27  C   UNL     1      -7.194   3.177  68.418  1.00  0.00    -0.050 A  
HETATM   28  C   UNL     1      -6.498   3.997  69.309  1.00  0.00    -0.033 A  
HETATM   29  C   UNL     1      -7.029   5.242  69.686  1.00  0.00    -0.058 A  
BRANCH  27  30
HETATM   30  O   UNL     1      -6.794   1.928  68.017  1.00  0.00    -0.035 OA 
HETATM   31  C   UNL     1      -6.191   1.843  66.732  1.00  0.00    -0.023 C  
ENDBRANCH  27  30
ENDBRANCH  13  24
ENDBRANCH  10  12
ENDBRANCH   9  10
ENDBRANCH   7   9
ENDBRANCH   3   4
ENDBRANCH   2   3
TORSDOF 9
ENDMDL
MODEL      148
REMARK 921   NORMALIZED FREE ENERGY PREDICTED BY IDOCK:   -3.59 KCAL/MOL
REMARK 922        TOTAL FREE ENERGY PREDICTED BY IDOCK:   -7.55 KCAL/MOL
REMARK 923 INTER-LIGAND FREE ENERGY PREDICTED BY IDOCK:   -6.18 KCAL/MOL
REMARK 924 INTRA-LIGAND FREE ENERGY PREDICTED BY IDOCK:   -1.37 KCAL/MOL
REMARK 927      BINDING AFFINITY PREDICTED BY RF-SCORE:    0.00 PKD
ROOT
HETATM    1  C   UNL     1     -10.556  19.710  66.680  1.00  0.00    -0.599 C  
HETATM    2  C   UNL     1     -11.124  18.625  67.584  1.00  0.00    -0.030 C  
ENDROOT
BRANCH   2   3
HETATM    3  C   UNL     1     -10.004  17.932  68.355  1.00  0.00    -0.367 C  
BRANCH   3   4
HETATM    4  C   UNL     1     -10.414  16.550  68.870  1.00  0.00    -0.304 C  
HETATM    5  C   UNL     1     -10.083  15.428  67.864  1.00  0.00    -0.226 C  
HETATM    6  C   UNL     1      -8.588  15.384  67.461  1.00  0.00    -0.187 C  
HETATM    7  C   UNL     1     -10.597  14.069  68.375  1.00  0.00    -0.254 C  
HETATM    8  C   UNL     1      -7.617  15.109  68.602  1.00  0.00    -0.127 C  
BRANCH   7   9
HETATM    9  O   UNL     1     -10.289  13.076  67.384  1.00  0.00    -0.232 OA 
BRANCH   9  10
HETATM   10  C   UNL     1     -11.195  12.110  67.113  1.00  0.00    -0.314 C  
HETATM   11  O   UNL     1     -12.054  12.160  66.248  1.00  0.00    -0.626 OA 
BRANCH  10  12
HETATM   12  C   UNL     1     -10.849  10.871  67.867  1.00  0.00    -0.295 C  
HETATM   13  C   UNL     1     -10.068   9.848  67.414  1.00  0.00    -0.254 C  
BRANCH  12  14
HETATM   14  C   UNL     1     -11.592  10.739  69.187  1.00  0.00    -0.305 C  
HETATM   15  H1  UNL     1     -12.707  10.540  71.167  1.00  0.00     0.000 HD 
HETATM   16  N   UNL     1     -12.208  10.629  70.282  1.00  0.00    -0.316 NA 
HETATM   17  H2  UNL     1     -12.942  11.252  70.619  1.00  0.00     0.000 HD 
ENDBRANCH  12  14
BRANCH  13  18
HETATM   18  C   UNL     1      -9.301   9.967  66.146  1.00  0.00    -0.220 A  
HETATM   19  C   UNL     1      -7.998  10.478  66.156  1.00  0.00    -0.147 A  
HETATM   20  C   UNL     1      -9.881   9.612  64.920  1.00  0.00    -0.067 A  
HETATM   21  C   UNL     1      -9.209   9.853  63.721  1.00  0.00    -0.289 A  
HETATM   22  C   UNL     1      -7.934  10.410  63.737  1.00  0.00    -0.086 A  
HETATM   23  C   UNL     1      -7.318  10.696  64.955  1.00  0.00     0.118 A  
ENDBRANCH  13  18
BRANCH  13  24
HETATM   24  C   UNL     1     -10.041   8.564  68.169  1.00  0.00    -0.240 A  
HETATM   25  C   UNL     1     -10.842   6.282  68.439  1.00  0.00    -0.394 A  
HETATM   26  C   UNL     1     -10.838   7.490  67.737  1.00  0.00    -0.156 A  
HETATM   27  C   UNL     1     -10.031   6.115  69.556  1.00  0.00    -0.166 A  
HETATM   28  C   UNL     1      -9.242   7.179  70.000  1.00  0.00    -0.144 A  
HETATM   29  C   UNL     1      -9.248   8.402  69.308  1.00  0.00    -0.154 A  
BRANCH  27  30
HETATM   30  O   UNL     1     -10.138   4.898  70.176  1.00  0.00    -0.241 OA 
HETATM   31  C   UNL     1     -11.023   4.832  71.288  1.00  0.00     0.443 C  
ENDBRANCH  27  30
ENDBRANCH  13  24
ENDBRANCH  10  12
ENDBRANCH   9  10
ENDBRANCH   7   9
ENDBRANCH   3   4
ENDBRANCH   2   3
TORSDOF 9
ENDMDL
MODEL      149
REMARK 921   NORMALIZED FREE ENERGY PREDICTED BY IDOCK:   -3.59 KCAL/MOL
REMARK 922        TOTAL FREE ENERGY PREDICTED BY IDOCK:   -7.55 KCAL/MOL
REMARK 923 INTER-LIGAND FREE ENERGY PREDICTED BY IDOCK:   -5.89 KCAL/MOL
REMARK 924 INTRA-LIGAND FREE ENERGY PREDICTED BY IDOCK:   -1.65 KCAL/MOL
REMARK 927      BINDING AFFINITY PREDICTED BY RF-SCORE:    0.00 PKD
ROOT
HETATM    1  C   UNL     1     -11.560  15.912  64.443  1.00  0.00    -0.234 C  
HETATM    2  C   UNL     1     -12.033  14.466  64.483  1.00  0.00    -0.487 C  
ENDROOT
BRANCH   2   3
HETATM    3  C   UNL     1     -11.182  13.653  65.454  1.00  0.00    -0.306 C  
BRANCH   3   4
HETATM    4  C   UNL     1     -11.857  13.473  66.817  1.00  0.00    -0.450 C  
HETATM    5  C   UNL     1     -11.067  12.524  67.741  1.00  0.00    -0.291 C  
HETATM    6  C   UNL     1      -9.599  12.965  67.968  1.00  0.00    -0.221 C  
HETATM    7  C   UNL     1     -11.825  12.294  69.063  1.00  0.00    -0.305 C  
HETATM    8  C   UNL     1      -9.427  14.316  68.649  1.00  0.00    -0.178 C  
BRANCH   7   9
HETATM    9  O   UNL     1     -11.058  11.380  69.861  1.00  0.00    -0.193 OA 
BRANCH   9  10
HETATM   10  C   UNL     1     -11.084  10.061  69.565  1.00  0.00    -0.238 C  
HETATM   11  O   UNL     1     -11.390   9.579  68.486  1.00  0.00     0.034 OA 
BRANCH  10  12
HETATM   12  C   UNL     1     -10.461   9.283  70.673  1.00  0.00    -0.325 C  
HETATM   13  C   UNL     1      -9.175   8.830  70.711  1.00  0.00    -0.242 C  
BRANCH  12  14
HETATM   14  C   UNL     1     -11.450   8.866  71.751  1.00  0.00    -0.353 C  
HETATM   15  H1  UNL     1     -12.933   8.242  73.367  1.00  0.00     0.000 HD 
HETATM   16  N   UNL     1     -12.270   8.521  72.645  1.00  0.00    -0.480 NA 
HETATM   17  H2  UNL     1     -12.734   9.147  73.303  1.00  0.00     0.000 HD 
ENDBRANCH  12  14
BRANCH  13  18
HETATM   18  C   UNL     1      -8.179   9.253  69.692  1.00  0.00    -0.126 A  
HETATM   19  C   UNL     1      -7.395  10.394  69.903  1.00  0.00    -0.149 A  
HETATM   20  C   UNL     1      -8.036   8.546  68.490  1.00  0.00    -0.122 A  
HETATM   21  C   UNL     1      -7.199   9.024  67.480  1.00  0.00    -0.080 A  
HETATM   22  C   UNL     1      -6.464  10.188  67.678  1.00  0.00    -0.063 A  
HETATM   23  C   UNL     1      -6.541  10.857  68.899  1.00  0.00    -0.056 A  
ENDBRANCH  13  18
BRANCH  13  24
HETATM   24  C   UNL     1      -8.782   7.839  71.752  1.00  0.00    -0.147 A  
HETATM   25  C   UNL     1      -8.644   5.522  72.484  1.00  0.00    -0.121 A  
HETATM   26  C   UNL     1      -8.988   6.469  71.516  1.00  0.00    -0.140 A  
HETATM   27  C   UNL     1      -8.062   5.922  73.682  1.00  0.00    -0.110 A  
HETATM   28  C   UNL     1      -7.861   7.281  73.932  1.00  0.00    -0.136 A  
HETATM   29  C   UNL     1      -8.222   8.239  72.968  1.00  0.00    -0.227 A  
BRANCH  27  30
HETATM   30  O   UNL     1      -7.790   4.908  74.564  1.00  0.00    -0.094 OA 
HETATM   31  C   UNL     1      -7.327   3.688  73.997  1.00  0.00    -0.054 C  
ENDBRANCH  27  30
ENDBRANCH  13  24
ENDBRANCH  10  12
ENDBRANCH   9  10
ENDBRANCH   7   9
ENDBRANCH   3   4
ENDBRANCH   2   3
TORSDOF 9
ENDMDL
MODEL      150
REMARK 921   NORMALIZED FREE ENERGY PREDICTED BY IDOCK:   -3.59 KCAL/MOL
REMARK 922        TOTAL FREE ENERGY PREDICTED BY IDOCK:   -7.55 KCAL/MOL
REMARK 923 INTER-LIGAND FREE ENERGY PREDICTED BY IDOCK:   -6.23 KCAL/MOL
REMARK 924 INTRA-LIGAND FREE ENERGY PREDICTED BY IDOCK:   -1.32 KCAL/MOL
REMARK 927      BINDING AFFINITY PREDICTED BY RF-SCORE:    0.00 PKD
ROOT
HETATM    1  C   UNL     1     -13.086  15.647  72.959  1.00  0.00    -0.641 C  
HETATM    2  C   UNL     1     -12.964  15.195  71.510  1.00  0.00    -0.458 C  
ENDROOT
BRANCH   2   3
HETATM    3  C   UNL     1     -12.419  13.772  71.439  1.00  0.00    -0.404 C  
BRANCH   3   4
HETATM    4  C   UNL     1     -12.500  13.183  70.028  1.00  0.00    -0.143 C  
HETATM    5  C   UNL     1     -11.569  11.966  69.848  1.00  0.00    -0.333 C  
HETATM    6  C   UNL     1     -11.827  10.834  70.873  1.00  0.00    -0.400 C  
HETATM    7  C   UNL     1     -11.606  11.462  68.392  1.00  0.00    -0.315 C  
HETATM    8  C   UNL     1     -13.214  10.208  70.811  1.00  0.00    -0.290 C  
BRANCH   7   9
HETATM    9  O   UNL     1     -10.697  10.356  68.281  1.00  0.00    -0.203 OA 
BRANCH   9  10
HETATM   10  C   UNL     1     -10.334   9.919  67.054  1.00  0.00    -0.239 C  
HETATM   11  O   UNL     1     -10.342  10.584  66.030  1.00  0.00    -0.248 OA 
BRANCH  10  12
HETATM   12  C   UNL     1      -9.699   8.576  67.166  1.00  0.00    -0.251 C  
HETATM   13  C   UNL     1      -8.362   8.313  67.094  1.00  0.00    -0.123 C  
BRANCH  12  14
HETATM   14  C   UNL     1     -10.701   7.433  67.209  1.00  0.00    -0.308 C  
HETATM   15  H1  UNL     1     -12.204   5.719  67.274  1.00  0.00     0.000 HD 
HETATM   16  N   UNL     1     -11.532   6.486  67.245  1.00  0.00    -0.743 NA 
HETATM   17  H2  UNL     1     -11.542   5.676  66.624  1.00  0.00     0.000 HD 
ENDBRANCH  12  14
BRANCH  13  18
HETATM   18  C   UNL     1      -7.359   9.410  67.089  1.00  0.00    -0.087 A  
HETATM   19  C   UNL     1      -6.958  10.004  68.292  1.00  0.00    -0.068 A  
HETATM   20  C   UNL     1      -6.832   9.896  65.884  1.00  0.00    -0.101 A  
HETATM   21  C   UNL     1      -5.997  11.015  65.875  1.00  0.00    -0.080 A  
HETATM   22  C   UNL     1      -5.646  11.631  67.072  1.00  0.00    -0.124 A  
HETATM   23  C   UNL     1      -6.103  11.109  68.280  1.00  0.00    -0.045 A  
ENDBRANCH  13  18
BRANCH  13  24
HETATM   24  C   UNL     1      -7.904   6.902  66.946  1.00  0.00    -0.107 A  
HETATM   25  C   UNL     1      -7.529   4.966  65.521  1.00  0.00    -0.081 A  
HETATM   26  C   UNL     1      -7.936   6.293  65.681  1.00  0.00    -0.115 A  
HETATM   27  C   UNL     1      -7.055   4.241  66.608  1.00  0.00    -0.063 A  
HETATM   28  C   UNL     1      -7.027   4.833  67.873  1.00  0.00    -0.061 A  
HETATM   29  C   UNL     1      -7.453   6.162  68.042  1.00  0.00    -0.089 A  
BRANCH  27  30
HETATM   30  O   UNL     1      -6.707   2.943  66.335  1.00  0.00    -0.042 OA 
HETATM   31  C   UNL     1      -7.473   1.936  66.986  1.00  0.00    -0.060 C  
ENDBRANCH  27  30
ENDBRANCH  13  24
ENDBRANCH  10  12
ENDBRANCH   9  10
ENDBRANCH   7   9
ENDBRANCH   3   4
ENDBRANCH   2   3
TORSDOF 9
ENDMDL
MODEL      151
REMARK 921   NORMALIZED FREE ENERGY PREDICTED BY IDOCK:   -3.57 KCAL/MOL
REMARK 922        TOTAL FREE ENERGY PREDICTED BY IDOCK:   -7.52 KCAL/MOL
REMARK 923 INTER-LIGAND FREE ENERGY PREDICTED BY IDOCK:   -6.43 KCAL/MOL
REMARK 924 INTRA-LIGAND FREE ENERGY PREDICTED BY IDOCK:   -1.10 KCAL/MOL
REMARK 927      BINDING AFFINITY PREDICTED BY RF-SCORE:    0.00 PKD
ROOT
HETATM    1  C   UNL     1     -10.375  20.426  69.027  1.00  0.00     0.053 C  
HETATM    2  C   UNL     1     -10.252  19.093  68.302  1.00  0.00    -0.486 C  
ENDROOT
BRANCH   2   3
HETATM    3  C   UNL     1      -9.855  19.312  66.845  1.00  0.00    -0.424 C  
BRANCH   3   4
HETATM    4  C   UNL     1      -8.863  18.258  66.343  1.00  0.00    -0.256 C  
HETATM    5  C   UNL     1      -9.286  16.826  66.730  1.00  0.00    -0.263 C  
HETATM    6  C   UNL     1     -10.705  16.447  66.238  1.00  0.00    -0.161 C  
HETATM    7  C   UNL     1      -8.218  15.806  66.293  1.00  0.00    -0.027 C  
HETATM    8  C   UNL     1     -10.889  16.454  64.726  1.00  0.00    -0.197 C  
BRANCH   7   9
HETATM    9  O   UNL     1      -8.651  14.502  66.710  1.00  0.00    -0.210 OA 
BRANCH   9  10
HETATM   10  C   UNL     1      -8.690  14.209  68.029  1.00  0.00    -0.177 C  
HETATM   11  O   UNL     1      -8.896  15.006  68.930  1.00  0.00    -0.185 OA 
BRANCH  10  12
HETATM   12  C   UNL     1      -8.676  12.731  68.218  1.00  0.00    -0.168 C  
HETATM   13  C   UNL     1      -9.628  11.858  67.777  1.00  0.00    -0.190 C  
BRANCH  12  14
HETATM   14  C   UNL     1      -7.552  12.245  69.119  1.00  0.00     0.202 C  
HETATM   15  H1  UNL     1      -5.866  11.516  70.471  1.00  0.00     0.000 HD 
HETATM   16  N   UNL     1      -6.620  11.842  69.866  1.00  0.00    -0.337 NA 
HETATM   17  H2  UNL     1      -6.682  11.077  70.538  1.00  0.00     0.000 HD 
ENDBRANCH  12  14
BRANCH  13  18
HETATM   18  C   UNL     1     -10.715  12.298  66.864  1.00  0.00    -0.264 A  
HETATM   19  C   UNL     1     -10.687  11.942  65.511  1.00  0.00    -0.329 A  
HETATM   20  C   UNL     1     -11.760  13.109  67.331  1.00  0.00    -0.419 A  
HETATM   21  C   UNL     1     -12.702  13.632  66.443  1.00  0.00    -0.137 A  
HETATM   22  C   UNL     1     -12.635  13.315  65.090  1.00  0.00    -0.512 A  
HETATM   23  C   UNL     1     -11.646  12.449  64.629  1.00  0.00    -0.400 A  
ENDBRANCH  13  18
BRANCH  13  24
HETATM   24  C   UNL     1      -9.616  10.454  68.278  1.00  0.00    -0.152 A  
HETATM   25  C   UNL     1     -10.310   8.825  69.947  1.00  0.00    -0.212 A  
HETATM   26  C   UNL     1     -10.321  10.130  69.449  1.00  0.00    -0.251 A  
HETATM   27  C   UNL     1      -9.626   7.821  69.271  1.00  0.00    -0.159 A  
HETATM   28  C   UNL     1      -8.913   8.133  68.111  1.00  0.00    -0.135 A  
HETATM   29  C   UNL     1      -8.907   9.448  67.616  1.00  0.00    -0.118 A  
BRANCH  27  30
HETATM   30  O   UNL     1      -9.666   6.587  69.866  1.00  0.00    -0.163 OA 
HETATM   31  C   UNL     1     -10.949   6.123  70.269  1.00  0.00    -0.349 C  
ENDBRANCH  27  30
ENDBRANCH  13  24
ENDBRANCH  10  12
ENDBRANCH   9  10
ENDBRANCH   7   9
ENDBRANCH   3   4
ENDBRANCH   2   3
TORSDOF 9
ENDMDL
MODEL      152
REMARK 921   NORMALIZED FREE ENERGY PREDICTED BY IDOCK:   -3.57 KCAL/MOL
REMARK 922        TOTAL FREE ENERGY PREDICTED BY IDOCK:   -7.52 KCAL/MOL
REMARK 923 INTER-LIGAND FREE ENERGY PREDICTED BY IDOCK:   -6.51 KCAL/MOL
REMARK 924 INTRA-LIGAND FREE ENERGY PREDICTED BY IDOCK:   -1.01 KCAL/MOL
REMARK 927      BINDING AFFINITY PREDICTED BY RF-SCORE:    0.00 PKD
ROOT
HETATM    1  C   UNL     1     -12.917  15.744  73.539  1.00  0.00    -0.693 C  
HETATM    2  C   UNL     1     -13.399  16.066  72.131  1.00  0.00    -0.196 C  
ENDROOT
BRANCH   2   3
HETATM    3  C   UNL     1     -13.995  14.825  71.474  1.00  0.00    -0.548 C  
BRANCH   3   4
HETATM    4  C   UNL     1     -12.962  13.711  71.280  1.00  0.00    -0.399 C  
HETATM    5  C   UNL     1     -12.395  13.682  69.846  1.00  0.00    -0.310 C  
HETATM    6  C   UNL     1     -11.763  15.026  69.405  1.00  0.00    -0.351 C  
HETATM    7  C   UNL     1     -11.435  12.491  69.664  1.00  0.00    -0.185 C  
HETATM    8  C   UNL     1     -10.567  15.480  70.231  1.00  0.00    -0.324 C  
BRANCH   7   9
HETATM    9  O   UNL     1     -10.969  12.499  68.306  1.00  0.00    -0.217 OA 
BRANCH   9  10
HETATM   10  C   UNL     1      -9.653  12.312  68.057  1.00  0.00    -0.206 C  
HETATM   11  O   UNL     1      -8.736  12.942  68.560  1.00  0.00    -0.139 OA 
BRANCH  10  12
HETATM   12  C   UNL     1      -9.464  11.070  67.255  1.00  0.00    -0.179 C  
HETATM   13  C   UNL     1      -9.146   9.839  67.748  1.00  0.00    -0.138 C  
BRANCH  12  14
HETATM   14  C   UNL     1      -9.494  11.308  65.754  1.00  0.00    -0.227 C  
HETATM   15  H1  UNL     1      -9.540  11.665  63.501  1.00  0.00     0.000 HD 
HETATM   16  N   UNL     1      -9.520  11.505  64.509  1.00  0.00    -0.397 NA 
HETATM   17  H2  UNL     1     -10.245  12.009  63.999  1.00  0.00     0.000 HD 
ENDBRANCH  12  14
BRANCH  13  18
HETATM   18  C   UNL     1      -9.147   9.569  69.210  1.00  0.00    -0.161 A  
HETATM   19  C   UNL     1      -7.953   9.254  69.870  1.00  0.00    -0.113 A  
HETATM   20  C   UNL     1     -10.343   9.585  69.942  1.00  0.00    -0.265 A  
HETATM   21  C   UNL     1     -10.358   9.199  71.284  1.00  0.00    -0.405 A  
HETATM   22  C   UNL     1      -9.174   8.835  71.917  1.00  0.00    -0.320 A  
HETATM   23  C   UNL     1      -7.970   8.890  71.219  1.00  0.00    -0.172 A  
ENDBRANCH  13  18
BRANCH  13  24
HETATM   24  C   UNL     1      -8.722   8.764  66.806  1.00  0.00    -0.134 A  
HETATM   25  C   UNL     1      -7.024   7.822  65.340  1.00  0.00    -0.055 A  
HETATM   26  C   UNL     1      -7.438   8.808  66.239  1.00  0.00    -0.087 A  
HETATM   27  C   UNL     1      -7.868   6.765  65.019  1.00  0.00    -0.118 A  
HETATM   28  C   UNL     1      -9.151   6.716  65.569  1.00  0.00     0.158 A  
HETATM   29  C   UNL     1      -9.578   7.715  66.460  1.00  0.00    -0.254 A  
BRANCH  27  30
HETATM   30  O   UNL     1      -7.364   5.873  64.109  1.00  0.00    -0.056 OA 
HETATM   31  C   UNL     1      -6.210   6.292  63.390  1.00  0.00    -0.022 C  
ENDBRANCH  27  30
ENDBRANCH  13  24
ENDBRANCH  10  12
ENDBRANCH   9  10
ENDBRANCH   7   9
ENDBRANCH   3   4
ENDBRANCH   2   3
TORSDOF 9
ENDMDL
MODEL      153
REMARK 921   NORMALIZED FREE ENERGY PREDICTED BY IDOCK:   -3.53 KCAL/MOL
REMARK 922        TOTAL FREE ENERGY PREDICTED BY IDOCK:   -7.45 KCAL/MOL
REMARK 923 INTER-LIGAND FREE ENERGY PREDICTED BY IDOCK:   -5.63 KCAL/MOL
REMARK 924 INTRA-LIGAND FREE ENERGY PREDICTED BY IDOCK:   -1.82 KCAL/MOL
REMARK 927      BINDING AFFINITY PREDICTED BY RF-SCORE:    0.00 PKD
ROOT
HETATM    1  C   UNL     1      -6.303  11.178  66.704  1.00  0.00    -0.134 C  
HETATM    2  C   UNL     1      -6.706  12.350  67.589  1.00  0.00    -0.132 C  
ENDROOT
BRANCH   2   3
HETATM    3  C   UNL     1      -8.058  12.084  68.245  1.00  0.00    -0.155 C  
BRANCH   3   4
HETATM    4  C   UNL     1      -8.131  10.699  68.896  1.00  0.00    -0.139 C  
HETATM    5  C   UNL     1      -9.565  10.131  68.904  1.00  0.00    -0.186 C  
HETATM    6  C   UNL     1     -10.204  10.051  67.495  1.00  0.00    -0.260 C  
HETATM    7  C   UNL     1      -9.613   8.785  69.651  1.00  0.00    -0.171 C  
HETATM    8  C   UNL     1      -9.487   9.138  66.510  1.00  0.00    -0.266 C  
BRANCH   7   9
HETATM    9  O   UNL     1     -10.974   8.327  69.653  1.00  0.00    -0.199 OA 
BRANCH   9  10
HETATM   10  C   UNL     1     -11.258   7.099  70.144  1.00  0.00    -0.262 C  
HETATM   11  O   UNL     1     -12.054   6.855  71.036  1.00  0.00    -0.354 OA 
BRANCH  10  12
HETATM   12  C   UNL     1     -10.630   6.056  69.285  1.00  0.00    -0.366 C  
HETATM   13  C   UNL     1      -9.687   5.153  69.680  1.00  0.00    -0.255 C  
BRANCH  12  14
HETATM   14  C   UNL     1     -11.012   6.169  67.818  1.00  0.00    -0.303 C  
HETATM   15  H1  UNL     1     -11.586   6.340  65.616  1.00  0.00     0.000 HD 
HETATM   16  N   UNL     1     -11.329   6.264  66.601  1.00  0.00    -0.715 NA 
HETATM   17  H2  UNL     1     -12.057   6.868  66.219  1.00  0.00     0.000 HD 
ENDBRANCH  12  14
BRANCH  13  18
HETATM   18  C   UNL     1      -9.323   4.995  71.112  1.00  0.00    -0.199 A  
HETATM   19  C   UNL     1      -8.278   5.748  71.662  1.00  0.00    -0.119 A  
HETATM   20  C   UNL     1      -9.988   4.065  71.924  1.00  0.00    -0.246 A  
HETATM   21  C   UNL     1      -9.554   3.822  73.228  1.00  0.00    -0.143 A  
HETATM   22  C   UNL     1      -8.480   4.538  73.748  1.00  0.00    -0.104 A  
HETATM   23  C   UNL     1      -7.861   5.519  72.976  1.00  0.00    -0.098 A  
ENDBRANCH  13  18
BRANCH  13  24
HETATM   24  C   UNL     1      -8.959   4.361  68.648  1.00  0.00    -0.153 A  
HETATM   25  C   UNL     1      -8.720   2.295  67.384  1.00  0.00    -0.142 A  
HETATM   26  C   UNL     1      -9.397   3.063  68.335  1.00  0.00    -0.248 A  
HETATM   27  C   UNL     1      -7.622   2.819  66.711  1.00  0.00    -0.071 A  
HETATM   28  C   UNL     1      -7.172   4.104  67.020  1.00  0.00    -0.068 A  
HETATM   29  C   UNL     1      -7.839   4.874  67.989  1.00  0.00    -0.083 A  
BRANCH  27  30
HETATM   30  O   UNL     1      -7.026   1.966  65.819  1.00  0.00    -0.044 OA 
HETATM   31  C   UNL     1      -5.692   1.573  66.120  1.00  0.00    -0.017 C  
ENDBRANCH  27  30
ENDBRANCH  13  24
ENDBRANCH  10  12
ENDBRANCH   9  10
ENDBRANCH   7   9
ENDBRANCH   3   4
ENDBRANCH   2   3
TORSDOF 9
ENDMDL
MODEL      154
REMARK 921   NORMALIZED FREE ENERGY PREDICTED BY IDOCK:   -3.52 KCAL/MOL
REMARK 922        TOTAL FREE ENERGY PREDICTED BY IDOCK:   -7.44 KCAL/MOL
REMARK 923 INTER-LIGAND FREE ENERGY PREDICTED BY IDOCK:   -6.03 KCAL/MOL
REMARK 924 INTRA-LIGAND FREE ENERGY PREDICTED BY IDOCK:   -1.41 KCAL/MOL
REMARK 927      BINDING AFFINITY PREDICTED BY RF-SCORE:    0.00 PKD
ROOT
HETATM    1  C   UNL     1      -6.782   6.413  68.584  1.00  0.00    -0.061 C  
HETATM    2  C   UNL     1      -6.932   4.968  69.038  1.00  0.00    -0.052 C  
ENDROOT
BRANCH   2   3
HETATM    3  C   UNL     1      -8.256   4.389  68.548  1.00  0.00    -0.086 C  
BRANCH   3   4
HETATM    4  C   UNL     1      -9.421   5.371  68.712  1.00  0.00    -0.168 C  
HETATM    5  C   UNL     1      -9.472   6.414  67.577  1.00  0.00    -0.121 C  
HETATM    6  C   UNL     1      -9.549   5.784  66.164  1.00  0.00    -0.126 C  
HETATM    7  C   UNL     1     -10.594   7.438  67.828  1.00  0.00    -0.210 C  
HETATM    8  C   UNL     1     -10.788   4.938  65.899  1.00  0.00    -0.140 C  
BRANCH   7   9
HETATM    9  O   UNL     1     -10.568   8.397  66.759  1.00  0.00    -0.295 OA 
BRANCH   9  10
HETATM   10  C   UNL     1      -9.581   9.321  66.724  1.00  0.00    -0.183 C  
HETATM   11  O   UNL     1      -8.507   9.196  66.159  1.00  0.00    -0.122 OA 
BRANCH  10  12
HETATM   12  C   UNL     1     -10.080  10.611  67.280  1.00  0.00    -0.238 C  
HETATM   13  C   UNL     1      -9.882  11.066  68.551  1.00  0.00    -0.194 C  
BRANCH  12  14
HETATM   14  C   UNL     1     -11.009  11.358  66.337  1.00  0.00    -0.260 C  
HETATM   15  H1  UNL     1     -12.403  12.480  64.922  1.00  0.00     0.000 HD 
HETATM   16  N   UNL     1     -11.780  11.978  65.555  1.00  0.00    -0.364 NA 
HETATM   17  H2  UNL     1     -12.782  12.113  65.687  1.00  0.00     0.000 HD 
ENDBRANCH  12  14
BRANCH  13  18
HETATM   18  C   UNL     1      -8.950  10.376  69.481  1.00  0.00    -0.127 A  
HETATM   19  C   UNL     1      -7.587  10.697  69.479  1.00  0.00    -0.128 A  
HETATM   20  C   UNL     1      -9.408   9.368  70.341  1.00  0.00    -0.317 A  
HETATM   21  C   UNL     1      -8.508   8.629  71.112  1.00  0.00    -0.211 A  
HETATM   22  C   UNL     1      -7.149   8.920  71.064  1.00  0.00    -0.090 A  
HETATM   23  C   UNL     1      -6.692   9.971  70.270  1.00  0.00    -0.137 A  
ENDBRANCH  13  18
BRANCH  13  24
HETATM   24  C   UNL     1     -10.670  12.234  69.037  1.00  0.00    -0.149 A  
HETATM   25  C   UNL     1     -12.564  13.098  70.298  1.00  0.00    -0.133 A  
HETATM   26  C   UNL     1     -11.800  12.020  69.844  1.00  0.00    -0.405 A  
HETATM   27  C   UNL     1     -12.196  14.401  69.982  1.00  0.00    -0.351 A  
HETATM   28  C   UNL     1     -11.081  14.626  69.172  1.00  0.00    -0.285 A  
HETATM   29  C   UNL     1     -10.319  13.544  68.699  1.00  0.00    -0.220 A  
BRANCH  27  30
HETATM   30  O   UNL     1     -13.034  15.374  70.461  1.00  0.00    -0.409 OA 
HETATM   31  C   UNL     1     -13.089  15.518  71.875  1.00  0.00    -0.454 C  
ENDBRANCH  27  30
ENDBRANCH  13  24
ENDBRANCH  10  12
ENDBRANCH   9  10
ENDBRANCH   7   9
ENDBRANCH   3   4
ENDBRANCH   2   3
TORSDOF 9
ENDMDL
MODEL      155
REMARK 921   NORMALIZED FREE ENERGY PREDICTED BY IDOCK:   -3.50 KCAL/MOL
REMARK 922        TOTAL FREE ENERGY PREDICTED BY IDOCK:   -7.41 KCAL/MOL
REMARK 923 INTER-LIGAND FREE ENERGY PREDICTED BY IDOCK:   -6.30 KCAL/MOL
REMARK 924 INTRA-LIGAND FREE ENERGY PREDICTED BY IDOCK:   -1.12 KCAL/MOL
REMARK 927      BINDING AFFINITY PREDICTED BY RF-SCORE:    0.00 PKD
ROOT
HETATM    1  C   UNL     1      -6.036   5.170  68.089  1.00  0.00    -0.022 C  
HETATM    2  C   UNL     1      -7.535   5.432  68.146  1.00  0.00    -0.076 C  
ENDROOT
BRANCH   2   3
HETATM    3  C   UNL     1      -8.192   5.062  66.820  1.00  0.00    -0.107 C  
BRANCH   3   4
HETATM    4  C   UNL     1      -9.139   6.153  66.311  1.00  0.00    -0.165 C  
HETATM    5  C   UNL     1      -8.541   7.566  66.465  1.00  0.00    -0.134 C  
HETATM    6  C   UNL     1      -7.169   7.735  65.766  1.00  0.00    -0.068 C  
HETATM    7  C   UNL     1      -9.559   8.639  66.032  1.00  0.00    -0.195 C  
HETATM    8  C   UNL     1      -7.183   7.540  64.255  1.00  0.00    -0.079 C  
BRANCH   7   9
HETATM    9  O   UNL     1      -8.957   9.928  66.230  1.00  0.00    -0.141 OA 
BRANCH   9  10
HETATM   10  C   UNL     1      -9.390  10.979  65.497  1.00  0.00    -0.215 C  
HETATM   11  O   UNL     1      -9.424  11.031  64.278  1.00  0.00    -0.221 OA 
BRANCH  10  12
HETATM   12  C   UNL     1     -10.038  11.982  66.389  1.00  0.00    -0.242 C  
HETATM   13  C   UNL     1      -9.552  12.424  67.584  1.00  0.00    -0.193 C  
BRANCH  12  14
HETATM   14  C   UNL     1     -11.431  12.387  65.934  1.00  0.00    -0.374 C  
HETATM   15  H1  UNL     1     -13.520  12.996  65.250  1.00  0.00     0.000 HD 
HETATM   16  N   UNL     1     -12.586  12.723  65.556  1.00  0.00    -0.610 NA 
HETATM   17  H2  UNL     1     -13.143  13.484  65.945  1.00  0.00     0.000 HD 
ENDBRANCH  12  14
BRANCH  13  18
HETATM   18  C   UNL     1      -8.179  12.074  68.036  1.00  0.00    -0.156 A  
HETATM   19  C   UNL     1      -7.988  11.101  69.023  1.00  0.00    -0.087 A  
HETATM   20  C   UNL     1      -7.061  12.738  67.513  1.00  0.00    -0.148 A  
HETATM   21  C   UNL     1      -5.787  12.504  68.037  1.00  0.00    -0.082 A  
HETATM   22  C   UNL     1      -5.615  11.573  69.056  1.00  0.00    -0.050 A  
HETATM   23  C   UNL     1      -6.709  10.852  69.529  1.00  0.00    -0.117 A  
ENDBRANCH  13  18
BRANCH  13  24
HETATM   24  C   UNL     1     -10.439  13.213  68.485  1.00  0.00    -0.262 A  
HETATM   25  C   UNL     1     -11.069  15.361  69.440  1.00  0.00    -0.283 A  
HETATM   26  C   UNL     1     -10.261  14.603  68.589  1.00  0.00    -0.244 A  
HETATM   27  C   UNL     1     -12.084  14.753  70.171  1.00  0.00    -0.327 A  
HETATM   28  C   UNL     1     -12.265  13.371  70.082  1.00  0.00    -0.385 A  
HETATM   29  C   UNL     1     -11.443  12.602  69.242  1.00  0.00    -0.354 A  
BRANCH  27  30
HETATM   30  O   UNL     1     -12.795  15.593  70.988  1.00  0.00    -0.467 OA 
HETATM   31  C   UNL     1     -12.069  16.202  72.050  1.00  0.00    -0.496 C  
ENDBRANCH  27  30
ENDBRANCH  13  24
ENDBRANCH  10  12
ENDBRANCH   9  10
ENDBRANCH   7   9
ENDBRANCH   3   4
ENDBRANCH   2   3
TORSDOF 9
ENDMDL
MODEL      156
REMARK 921   NORMALIZED FREE ENERGY PREDICTED BY IDOCK:   -3.43 KCAL/MOL
REMARK 922        TOTAL FREE ENERGY PREDICTED BY IDOCK:   -7.30 KCAL/MOL
REMARK 923 INTER-LIGAND FREE ENERGY PREDICTED BY IDOCK:   -5.87 KCAL/MOL
REMARK 924 INTRA-LIGAND FREE ENERGY PREDICTED BY IDOCK:   -1.43 KCAL/MOL
REMARK 927      BINDING AFFINITY PREDICTED BY RF-SCORE:    0.00 PKD
ROOT
HETATM    1  C   UNL     1     -11.692  15.852  71.434  1.00  0.00    -0.530 C  
HETATM    2  C   UNL     1     -12.470  15.442  70.192  1.00  0.00    -0.370 C  
ENDROOT
BRANCH   2   3
HETATM    3  C   UNL     1     -11.562  15.453  68.966  1.00  0.00    -0.361 C  
BRANCH   3   4
HETATM    4  C   UNL     1     -10.646  14.227  68.904  1.00  0.00    -0.252 C  
HETATM    5  C   UNL     1     -11.419  12.936  68.563  1.00  0.00    -0.345 C  
HETATM    6  C   UNL     1     -12.217  13.026  67.238  1.00  0.00    -0.180 C  
HETATM    7  C   UNL     1     -10.482  11.713  68.605  1.00  0.00    -0.213 C  
HETATM    8  C   UNL     1     -11.375  13.253  65.989  1.00  0.00    -0.329 C  
BRANCH   7   9
HETATM    9  O   UNL     1     -11.264  10.544  68.313  1.00  0.00    -0.278 OA 
BRANCH   9  10
HETATM   10  C   UNL     1     -10.636   9.369  68.088  1.00  0.00    -0.212 C  
HETATM   11  O   UNL     1     -10.256   8.960  67.002  1.00  0.00    -0.231 OA 
BRANCH  10  12
HETATM   12  C   UNL     1     -10.262   8.740  69.386  1.00  0.00    -0.210 C  
HETATM   13  C   UNL     1      -8.997   8.613  69.881  1.00  0.00    -0.149 C  
BRANCH  12  14
HETATM   14  C   UNL     1     -11.429   8.071  70.094  1.00  0.00    -0.003 C  
HETATM   15  H1  UNL     1     -13.181   7.067  71.156  1.00  0.00     0.000 HD 
HETATM   16  N   UNL     1     -12.398   7.516  70.681  1.00  0.00    -0.539 NA 
HETATM   17  H2  UNL     1     -12.612   7.586  71.676  1.00  0.00     0.000 HD 
ENDBRANCH  12  14
BRANCH  13  18
HETATM   18  C   UNL     1      -7.844   9.289  69.230  1.00  0.00    -0.085 A  
HETATM   19  C   UNL     1      -7.439  10.560  69.656  1.00  0.00    -0.145 A  
HETATM   20  C   UNL     1      -7.171   8.687  68.157  1.00  0.00    -0.087 A  
HETATM   21  C   UNL     1      -6.179   9.383  67.462  1.00  0.00    -0.058 A  
HETATM   22  C   UNL     1      -5.820  10.667  67.860  1.00  0.00    -0.043 A  
HETATM   23  C   UNL     1      -6.430  11.243  68.973  1.00  0.00    -0.069 A  
ENDBRANCH  13  18
BRANCH  13  24
HETATM   24  C   UNL     1      -8.758   7.723  71.052  1.00  0.00    -0.138 A  
HETATM   25  C   UNL     1      -8.598   7.442  73.464  1.00  0.00    -0.202 A  
HETATM   26  C   UNL     1      -8.835   8.252  72.351  1.00  0.00    -0.286 A  
HETATM   27  C   UNL     1      -8.315   6.090  73.300  1.00  0.00    -0.115 A  
HETATM   28  C   UNL     1      -8.226   5.555  72.014  1.00  0.00    -0.115 A  
HETATM   29  C   UNL     1      -8.446   6.370  70.891  1.00  0.00    -0.131 A  
BRANCH  27  30
HETATM   30  O   UNL     1      -8.077   5.402  74.461  1.00  0.00    -0.104 OA 
HETATM   31  C   UNL     1      -8.377   4.011  74.442  1.00  0.00    -0.090 C  
ENDBRANCH  27  30
ENDBRANCH  13  24
ENDBRANCH  10  12
ENDBRANCH   9  10
ENDBRANCH   7   9
ENDBRANCH   3   4
ENDBRANCH   2   3
TORSDOF 9
ENDMDL
MODEL      157
REMARK 921   NORMALIZED FREE ENERGY PREDICTED BY IDOCK:   -3.40 KCAL/MOL
REMARK 922        TOTAL FREE ENERGY PREDICTED BY IDOCK:   -7.26 KCAL/MOL
REMARK 923 INTER-LIGAND FREE ENERGY PREDICTED BY IDOCK:   -5.90 KCAL/MOL
REMARK 924 INTRA-LIGAND FREE ENERGY PREDICTED BY IDOCK:   -1.35 KCAL/MOL
REMARK 927      BINDING AFFINITY PREDICTED BY RF-SCORE:    0.00 PKD
ROOT
HETATM    1  C   UNL     1     -10.545  14.734  68.762  1.00  0.00    -0.251 C  
HETATM    2  C   UNL     1     -11.230  15.733  67.839  1.00  0.00    -0.313 C  
ENDROOT
BRANCH   2   3
HETATM    3  C   UNL     1     -11.136  15.272  66.388  1.00  0.00    -0.273 C  
BRANCH   3   4
HETATM    4  C   UNL     1     -10.110  14.151  66.195  1.00  0.00    -0.324 C  
HETATM    5  C   UNL     1     -10.754  12.751  66.266  1.00  0.00    -0.291 C  
HETATM    6  C   UNL     1     -11.907  12.549  65.252  1.00  0.00    -0.461 C  
HETATM    7  C   UNL     1      -9.679  11.651  66.164  1.00  0.00    -0.229 C  
HETATM    8  C   UNL     1     -11.507  12.660  63.786  1.00  0.00    -0.539 C  
BRANCH   7   9
HETATM    9  O   UNL     1     -10.334  10.378  66.271  1.00  0.00    -0.236 OA 
BRANCH   9  10
HETATM   10  C   UNL     1     -10.451   9.795  67.485  1.00  0.00    -0.251 C  
HETATM   11  O   UNL     1     -11.139  10.201  68.407  1.00  0.00    -0.250 OA 
BRANCH  10  12
HETATM   12  C   UNL     1      -9.801   8.454  67.464  1.00  0.00    -0.235 C  
HETATM   13  C   UNL     1      -8.469   8.207  67.624  1.00  0.00    -0.131 C  
BRANCH  12  14
HETATM   14  C   UNL     1     -10.745   7.328  67.073  1.00  0.00    -0.336 C  
HETATM   15  H1  UNL     1     -12.162   5.639  66.487  1.00  0.00     0.000 HD 
HETATM   16  N   UNL     1     -11.528   6.394  66.749  1.00  0.00    -0.746 NA 
HETATM   17  H2  UNL     1     -11.491   5.858  65.882  1.00  0.00     0.000 HD 
ENDBRANCH  12  14
BRANCH  13  18
HETATM   18  C   UNL     1      -7.530   9.281  68.043  1.00  0.00    -0.083 A  
HETATM   19  C   UNL     1      -7.510   9.720  69.372  1.00  0.00    -0.099 A  
HETATM   20  C   UNL     1      -6.684   9.898  67.111  1.00  0.00    -0.074 A  
HETATM   21  C   UNL     1      -5.905  10.997  67.480  1.00  0.00    -0.046 A  
HETATM   22  C   UNL     1      -5.931  11.460  68.791  1.00  0.00    -0.043 A  
HETATM   23  C   UNL     1      -6.710  10.805  69.743  1.00  0.00    -0.139 A  
ENDBRANCH  13  18
BRANCH  13  24
HETATM   24  C   UNL     1      -7.936   6.852  67.304  1.00  0.00    -0.114 A  
HETATM   25  C   UNL     1      -7.132   4.688  68.074  1.00  0.00    -0.061 A  
HETATM   26  C   UNL     1      -7.649   5.957  68.348  1.00  0.00    -0.090 A  
HETATM   27  C   UNL     1      -6.925   4.283  66.760  1.00  0.00    -0.059 A  
HETATM   28  C   UNL     1      -7.196   5.168  65.715  1.00  0.00    -0.069 A  
HETATM   29  C   UNL     1      -7.700   6.451  65.987  1.00  0.00    -0.093 A  
BRANCH  27  30
HETATM   30  O   UNL     1      -6.392   3.029  66.616  1.00  0.00    -0.027 OA 
HETATM   31  C   UNL     1      -7.018   1.988  67.357  1.00  0.00    -0.039 C  
ENDBRANCH  27  30
ENDBRANCH  13  24
ENDBRANCH  10  12
ENDBRANCH   9  10
ENDBRANCH   7   9
ENDBRANCH   3   4
ENDBRANCH   2   3
TORSDOF 9
ENDMDL
MODEL      158
REMARK 921   NORMALIZED FREE ENERGY PREDICTED BY IDOCK:   -3.36 KCAL/MOL
REMARK 922        TOTAL FREE ENERGY PREDICTED BY IDOCK:   -7.20 KCAL/MOL
REMARK 923 INTER-LIGAND FREE ENERGY PREDICTED BY IDOCK:   -5.98 KCAL/MOL
REMARK 924 INTRA-LIGAND FREE ENERGY PREDICTED BY IDOCK:   -1.21 KCAL/MOL
REMARK 927      BINDING AFFINITY PREDICTED BY RF-SCORE:    0.00 PKD
ROOT
HETATM    1  C   UNL     1      -5.318   5.491  72.586  1.00  0.00    -0.018 C  
HETATM    2  C   UNL     1      -5.506   5.509  74.097  1.00  0.00    -0.028 C  
ENDROOT
BRANCH   2   3
HETATM    3  C   UNL     1      -6.981   5.348  74.452  1.00  0.00    -0.078 C  
BRANCH   3   4
HETATM    4  C   UNL     1      -7.845   6.487  73.903  1.00  0.00    -0.097 C  
HETATM    5  C   UNL     1      -8.655   6.061  72.661  1.00  0.00    -0.118 C  
HETATM    6  C   UNL     1      -9.559   4.828  72.909  1.00  0.00    -0.154 C  
HETATM    7  C   UNL     1      -9.434   7.257  72.082  1.00  0.00    -0.135 C  
HETATM    8  C   UNL     1     -10.640   5.019  73.965  1.00  0.00    -0.348 C  
BRANCH   7   9
HETATM    9  O   UNL     1     -10.138   6.805  70.914  1.00  0.00    -0.190 OA 
BRANCH   9  10
HETATM   10  C   UNL     1     -11.378   7.283  70.664  1.00  0.00    -0.284 C  
HETATM   11  O   UNL     1     -12.419   6.838  71.120  1.00  0.00    -0.367 OA 
BRANCH  10  12
HETATM   12  C   UNL     1     -11.280   8.578  69.933  1.00  0.00    -0.035 C  
HETATM   13  C   UNL     1     -10.661   8.777  68.733  1.00  0.00    -0.174 C  
BRANCH  12  14
HETATM   14  C   UNL     1     -11.805   9.763  70.727  1.00  0.00    -0.319 C  
HETATM   15  H1  UNL     1     -12.593  11.542  71.918  1.00  0.00     0.000 HD 
HETATM   16  N   UNL     1     -12.241  10.747  71.386  1.00  0.00    -0.313 NA 
HETATM   17  H2  UNL     1     -11.844  11.106  72.254  1.00  0.00     0.000 HD 
ENDBRANCH  12  14
BRANCH  13  18
HETATM   18  C   UNL     1     -10.172   7.633  67.919  1.00  0.00    -0.250 A  
HETATM   19  C   UNL     1      -8.806   7.496  67.644  1.00  0.00    -0.128 A  
HETATM   20  C   UNL     1     -11.070   6.700  67.381  1.00  0.00    -0.398 A  
HETATM   21  C   UNL     1     -10.622   5.708  66.506  1.00  0.00    -0.320 A  
HETATM   22  C   UNL     1      -9.269   5.612  66.196  1.00  0.00    -0.169 A  
HETATM   23  C   UNL     1      -8.359   6.487  66.787  1.00  0.00    -0.111 A  
ENDBRANCH  13  18
BRANCH  13  24
HETATM   24  C   UNL     1     -10.408  10.169  68.266  1.00  0.00    -0.215 A  
HETATM   25  C   UNL     1      -8.981  12.140  68.249  1.00  0.00    -0.186 A  
HETATM   26  C   UNL     1      -9.232  10.829  68.660  1.00  0.00    -0.184 A  
HETATM   27  C   UNL     1      -9.879  12.799  67.416  1.00  0.00    -0.210 A  
HETATM   28  C   UNL     1     -11.056  12.157  67.026  1.00  0.00    -0.347 A  
HETATM   29  C   UNL     1     -11.321  10.844  67.451  1.00  0.00    -0.273 A  
BRANCH  27  30
HETATM   30  O   UNL     1      -9.539  14.088  67.099  1.00  0.00    -0.230 OA 
HETATM   31  C   UNL     1     -10.548  14.868  66.468  1.00  0.00    -0.306 C  
ENDBRANCH  27  30
ENDBRANCH  13  24
ENDBRANCH  10  12
ENDBRANCH   9  10
ENDBRANCH   7   9
ENDBRANCH   3   4
ENDBRANCH   2   3
TORSDOF 9
ENDMDL
MODEL      159
REMARK 921   NORMALIZED FREE ENERGY PREDICTED BY IDOCK:   -3.35 KCAL/MOL
REMARK 922        TOTAL FREE ENERGY PREDICTED BY IDOCK:   -7.19 KCAL/MOL
REMARK 923 INTER-LIGAND FREE ENERGY PREDICTED BY IDOCK:   -6.12 KCAL/MOL
REMARK 924 INTRA-LIGAND FREE ENERGY PREDICTED BY IDOCK:   -1.07 KCAL/MOL
REMARK 927      BINDING AFFINITY PREDICTED BY RF-SCORE:    0.00 PKD
ROOT
HETATM    1  C   UNL     1      -9.369  18.166  67.007  1.00  0.00    -0.270 C  
HETATM    2  C   UNL     1     -10.747  17.833  67.563  1.00  0.00    -0.315 C  
ENDROOT
BRANCH   2   3
HETATM    3  C   UNL     1     -10.771  16.409  68.109  1.00  0.00    -0.336 C  
BRANCH   3   4
HETATM    4  C   UNL     1      -9.968  15.434  67.243  1.00  0.00    -0.226 C  
HETATM    5  C   UNL     1     -10.836  14.278  66.704  1.00  0.00    -0.301 C  
HETATM    6  C   UNL     1     -12.070  14.756  65.900  1.00  0.00    -0.106 C  
HETATM    7  C   UNL     1      -9.975  13.270  65.920  1.00  0.00    -0.272 C  
HETATM    8  C   UNL     1     -11.753  15.552  64.641  1.00  0.00    -0.226 C  
BRANCH   7   9
HETATM    9  O   UNL     1     -10.830  12.205  65.476  1.00  0.00    -0.266 OA 
BRANCH   9  10
HETATM   10  C   UNL     1     -10.276  11.067  64.999  1.00  0.00    -0.299 C  
HETATM   11  O   UNL     1      -9.936  10.870  63.844  1.00  0.00    -0.285 OA 
BRANCH  10  12
HETATM   12  C   UNL     1      -9.924  10.166  66.133  1.00  0.00    -0.310 C  
HETATM   13  C   UNL     1      -8.896   9.270  66.154  1.00  0.00    -0.183 C  
BRANCH  12  14
HETATM   14  C   UNL     1     -10.933  10.199  67.269  1.00  0.00    -0.183 C  
HETATM   15  H1  UNL     1     -12.447  10.246  68.975  1.00  0.00     0.000 HD 
HETATM   16  N   UNL     1     -11.770  10.225  68.212  1.00  0.00    -0.719 NA 
HETATM   17  H2  UNL     1     -11.727   9.666  69.064  1.00  0.00     0.000 HD 
ENDBRANCH  12  14
BRANCH  13  18
HETATM   18  C   UNL     1      -7.873   9.243  65.075  1.00  0.00    -0.111 A  
HETATM   19  C   UNL     1      -7.953   8.291  64.051  1.00  0.00    -0.147 A  
HETATM   20  C   UNL     1      -6.795  10.138  65.086  1.00  0.00    -0.134 A  
HETATM   21  C   UNL     1      -5.766  10.021  64.150  1.00  0.00    -0.119 A  
HETATM   22  C   UNL     1      -5.827   9.037  63.167  1.00  0.00    -0.088 A  
HETATM   23  C   UNL     1      -6.933   8.192  63.101  1.00  0.00    -0.086 A  
ENDBRANCH  13  18
BRANCH  13  24
HETATM   24  C   UNL     1      -8.839   8.252  67.242  1.00  0.00    -0.137 A  
HETATM   25  C   UNL     1      -9.583   6.121  68.150  1.00  0.00    -0.117 A  
HETATM   26  C   UNL     1      -9.606   7.081  67.135  1.00  0.00    -0.187 A  
HETATM   27  C   UNL     1      -8.773   6.299  69.267  1.00  0.00    -0.124 A  
HETATM   28  C   UNL     1      -8.013   7.464  69.388  1.00  0.00    -0.124 A  
HETATM   29  C   UNL     1      -8.047   8.441  68.378  1.00  0.00    -0.123 A  
BRANCH  27  30
HETATM   30  O   UNL     1      -8.851   5.305  70.206  1.00  0.00    -0.121 OA 
HETATM   31  C   UNL     1     -10.093   4.617  70.294  1.00  0.00    -0.206 C  
ENDBRANCH  27  30
ENDBRANCH  13  24
ENDBRANCH  10  12
ENDBRANCH   9  10
ENDBRANCH   7   9
ENDBRANCH   3   4
ENDBRANCH   2   3
TORSDOF 9
ENDMDL
MODEL      160
REMARK 921   NORMALIZED FREE ENERGY PREDICTED BY IDOCK:   -3.34 KCAL/MOL
REMARK 922        TOTAL FREE ENERGY PREDICTED BY IDOCK:   -7.16 KCAL/MOL
REMARK 923 INTER-LIGAND FREE ENERGY PREDICTED BY IDOCK:   -5.50 KCAL/MOL
REMARK 924 INTRA-LIGAND FREE ENERGY PREDICTED BY IDOCK:   -1.66 KCAL/MOL
REMARK 927      BINDING AFFINITY PREDICTED BY RF-SCORE:    0.00 PKD
ROOT
HETATM    1  C   UNL     1      -6.919  11.444  66.889  1.00  0.00    -0.140 C  
HETATM    2  C   UNL     1      -7.038   9.925  66.883  1.00  0.00    -0.090 C  
ENDROOT
BRANCH   2   3
HETATM    3  C   UNL     1      -7.281   9.403  68.295  1.00  0.00    -0.077 C  
BRANCH   3   4
HETATM    4  C   UNL     1      -8.121  10.366  69.140  1.00  0.00    -0.151 C  
HETATM    5  C   UNL     1      -9.463  10.718  68.465  1.00  0.00    -0.181 C  
HETATM    6  C   UNL     1     -10.325   9.477  68.121  1.00  0.00    -0.251 C  
HETATM    7  C   UNL     1     -10.235  11.759  69.297  1.00  0.00     0.185 C  
HETATM    8  C   UNL     1     -10.760   8.640  69.317  1.00  0.00    -0.151 C  
BRANCH   7   9
HETATM    9  O   UNL     1     -11.453  12.069  68.602  1.00  0.00    -0.246 OA 
BRANCH   9  10
HETATM   10  C   UNL     1     -11.938  13.330  68.649  1.00  0.00    -0.310 C  
HETATM   11  O   UNL     1     -13.017  13.662  69.113  1.00  0.00     0.697 OA 
BRANCH  10  12
HETATM   12  C   UNL     1     -10.869  14.295  68.263  1.00  0.00    -0.256 C  
HETATM   13  C   UNL     1     -10.286  14.396  67.034  1.00  0.00    -0.263 C  
BRANCH  12  14
HETATM   14  C   UNL     1     -10.328  15.100  69.434  1.00  0.00    -0.255 C  
HETATM   15  H1  UNL     1      -9.517  16.309  71.190  1.00  0.00     0.000 HD 
HETATM   16  N   UNL     1      -9.880  15.769  70.405  1.00  0.00     0.113 NA 
HETATM   17  H2  UNL     1     -10.052  16.759  70.578  1.00  0.00     0.000 HD 
ENDBRANCH  12  14
BRANCH  13  18
HETATM   18  C   UNL     1     -10.820  13.650  65.864  1.00  0.00    -0.276 A  
HETATM   19  C   UNL     1     -10.150  12.517  65.386  1.00  0.00    -0.284 A  
HETATM   20  C   UNL     1     -11.972  14.088  65.197  1.00  0.00    -0.392 A  
HETATM   21  C   UNL     1     -12.391  13.466  64.019  1.00  0.00    -0.402 A  
HETATM   22  C   UNL     1     -11.688  12.373  63.522  1.00  0.00    -0.592 A  
HETATM   23  C   UNL     1     -10.586  11.882  64.220  1.00  0.00    -0.381 A  
ENDBRANCH  13  18
BRANCH  13  24
HETATM   24  C   UNL     1      -9.050  15.214  66.879  1.00  0.00    -0.270 A  
HETATM   25  C   UNL     1      -6.663  15.486  67.264  1.00  0.00    -0.128 A  
HETATM   26  C   UNL     1      -7.832  14.729  67.381  1.00  0.00    -0.224 A  
HETATM   27  C   UNL     1      -6.686  16.717  66.618  1.00  0.00    -0.206 A  
HETATM   28  C   UNL     1      -7.893  17.214  66.122  1.00  0.00    -0.303 A  
HETATM   29  C   UNL     1      -9.074  16.464  66.254  1.00  0.00    -0.362 A  
BRANCH  27  30
HETATM   30  O   UNL     1      -5.486  17.379  66.585  1.00  0.00    -0.156 OA 
HETATM   31  C   UNL     1      -5.539  18.789  66.763  1.00  0.00    -0.150 C  
ENDBRANCH  27  30
ENDBRANCH  13  24
ENDBRANCH  10  12
ENDBRANCH   9  10
ENDBRANCH   7   9
ENDBRANCH   3   4
ENDBRANCH   2   3
TORSDOF 9
ENDMDL
MODEL      161
REMARK 921   NORMALIZED FREE ENERGY PREDICTED BY IDOCK:   -3.30 KCAL/MOL
REMARK 922        TOTAL FREE ENERGY PREDICTED BY IDOCK:   -7.11 KCAL/MOL
REMARK 923 INTER-LIGAND FREE ENERGY PREDICTED BY IDOCK:   -5.83 KCAL/MOL
REMARK 924 INTRA-LIGAND FREE ENERGY PREDICTED BY IDOCK:   -1.28 KCAL/MOL
REMARK 927      BINDING AFFINITY PREDICTED BY RF-SCORE:    0.00 PKD
ROOT
HETATM    1  C   UNL     1     -10.736  17.635  67.722  1.00  0.00    -0.336 C  
HETATM    2  C   UNL     1     -11.411  16.341  68.154  1.00  0.00    -0.173 C  
ENDROOT
BRANCH   2   3
HETATM    3  C   UNL     1     -10.851  15.868  69.492  1.00  0.00    -0.305 C  
BRANCH   3   4
HETATM    4  C   UNL     1     -10.711  14.344  69.564  1.00  0.00    -0.133 C  
HETATM    5  C   UNL     1     -10.080  13.755  68.286  1.00  0.00    -0.239 C  
HETATM    6  C   UNL     1      -8.698  14.365  67.942  1.00  0.00    -0.168 C  
HETATM    7  C   UNL     1     -10.044  12.216  68.356  1.00  0.00    -0.209 C  
HETATM    8  C   UNL     1      -7.613  14.140  68.986  1.00  0.00    -0.058 C  
BRANCH   7   9
HETATM    9  O   UNL     1      -9.480  11.728  67.129  1.00  0.00    -0.172 OA 
BRANCH   9  10
HETATM   10  C   UNL     1      -8.476  10.823  67.176  1.00  0.00    -0.126 C  
HETATM   11  O   UNL     1      -7.387  10.994  67.700  1.00  0.00    -0.090 OA 
BRANCH  10  12
HETATM   12  C   UNL     1      -8.970   9.499  66.702  1.00  0.00    -0.168 C  
HETATM   13  C   UNL     1      -9.229   8.413  67.485  1.00  0.00    -0.158 C  
BRANCH  12  14
HETATM   14  C   UNL     1      -9.018   9.378  65.187  1.00  0.00    -0.212 C  
HETATM   15  H1  UNL     1      -9.091   9.197  62.914  1.00  0.00     0.000 HD 
HETATM   16  N   UNL     1      -9.058   9.278  63.930  1.00  0.00    -0.422 NA 
HETATM   17  H2  UNL     1      -9.035  10.054  63.269  1.00  0.00     0.000 HD 
ENDBRANCH  12  14
BRANCH  13  18
HETATM   18  C   UNL     1      -9.227   8.514  68.968  1.00  0.00    -0.146 A  
HETATM   19  C   UNL     1     -10.388   8.896  69.651  1.00  0.00    -0.214 A  
HETATM   20  C   UNL     1      -8.057   8.270  69.702  1.00  0.00    -0.116 A  
HETATM   21  C   UNL     1      -8.024   8.498  71.079  1.00  0.00    -0.132 A  
HETATM   22  C   UNL     1      -9.168   8.929  71.742  1.00  0.00    -0.279 A  
HETATM   23  C   UNL     1     -10.356   9.100  71.033  1.00  0.00    -0.363 A  
ENDBRANCH  13  18
BRANCH  13  24
HETATM   24  C   UNL     1      -9.450   7.087  66.841  1.00  0.00    -0.199 A  
HETATM   25  C   UNL     1      -8.589   5.245  65.504  1.00  0.00    -0.146 A  
HETATM   26  C   UNL     1      -8.401   6.479  66.131  1.00  0.00    -0.129 A  
HETATM   27  C   UNL     1      -9.810   4.586  65.604  1.00  0.00    -0.216 A  
HETATM   28  C   UNL     1     -10.862   5.184  66.299  1.00  0.00    -0.180 A  
HETATM   29  C   UNL     1     -10.683   6.434  66.916  1.00  0.00    -0.408 A  
BRANCH  27  30
HETATM   30  O   UNL     1      -9.884   3.395  64.929  1.00  0.00    -0.158 OA 
HETATM   31  C   UNL     1      -9.964   3.479  63.511  1.00  0.00    -0.169 C  
ENDBRANCH  27  30
ENDBRANCH  13  24
ENDBRANCH  10  12
ENDBRANCH   9  10
ENDBRANCH   7   9
ENDBRANCH   3   4
ENDBRANCH   2   3
TORSDOF 9
ENDMDL
MODEL      162
REMARK 921   NORMALIZED FREE ENERGY PREDICTED BY IDOCK:   -3.28 KCAL/MOL
REMARK 922        TOTAL FREE ENERGY PREDICTED BY IDOCK:   -7.08 KCAL/MOL
REMARK 923 INTER-LIGAND FREE ENERGY PREDICTED BY IDOCK:   -5.68 KCAL/MOL
REMARK 924 INTRA-LIGAND FREE ENERGY PREDICTED BY IDOCK:   -1.40 KCAL/MOL
REMARK 927      BINDING AFFINITY PREDICTED BY RF-SCORE:    0.00 PKD
ROOT
HETATM    1  C   UNL     1      -9.590  19.139  66.224  1.00  0.00    -0.386 C  
HETATM    2  C   UNL     1     -10.257  18.033  67.031  1.00  0.00    -0.367 C  
ENDROOT
BRANCH   2   3
HETATM    3  C   UNL     1      -9.206  17.122  67.658  1.00  0.00    -0.238 C  
BRANCH   3   4
HETATM    4  C   UNL     1      -9.828  15.973  68.458  1.00  0.00    -0.216 C  
HETATM    5  C   UNL     1      -9.339  14.592  67.977  1.00  0.00    -0.198 C  
HETATM    6  C   UNL     1      -7.797  14.439  68.006  1.00  0.00    -0.141 C  
HETATM    7  C   UNL     1     -10.057  13.463  68.740  1.00  0.00    -0.085 C  
HETATM    8  C   UNL     1      -7.160  14.559  69.384  1.00  0.00    -0.140 C  
BRANCH   7   9
HETATM    9  O   UNL     1      -9.586  12.208  68.225  1.00  0.00    -0.206 OA 
BRANCH   9  10
HETATM   10  C   UNL     1     -10.479  11.240  67.924  1.00  0.00    -0.188 C  
HETATM   11  O   UNL     1     -11.049  11.104  66.853  1.00  0.00    -0.289 OA 
BRANCH  10  12
HETATM   12  C   UNL     1     -10.500  10.218  69.008  1.00  0.00    -0.238 C  
HETATM   13  C   UNL     1      -9.549   9.265  69.230  1.00  0.00    -0.161 C  
BRANCH  12  14
HETATM   14  C   UNL     1     -11.797  10.202  69.802  1.00  0.00    -0.088 C  
HETATM   15  H1  UNL     1     -13.742  10.177  70.992  1.00  0.00     0.000 HD 
HETATM   16  N   UNL     1     -12.872  10.188  70.459  1.00  0.00    -0.555 NA 
HETATM   17  H2  UNL     1     -13.477   9.378  70.598  1.00  0.00     0.000 HD 
ENDBRANCH  12  14
BRANCH  13  18
HETATM   18  C   UNL     1      -8.256   9.281  68.495  1.00  0.00    -0.114 A  
HETATM   19  C   UNL     1      -7.150   9.953  69.029  1.00  0.00    -0.068 A  
HETATM   20  C   UNL     1      -8.134   8.662  67.244  1.00  0.00    -0.101 A  
HETATM   21  C   UNL     1      -6.962   8.796  66.497  1.00  0.00    -0.079 A  
HETATM   22  C   UNL     1      -5.886   9.511  67.013  1.00  0.00    -0.052 A  
HETATM   23  C   UNL     1      -5.970  10.065  68.289  1.00  0.00    -0.042 A  
ENDBRANCH  13  18
BRANCH  13  24
HETATM   24  C   UNL     1      -9.842   8.149  70.173  1.00  0.00    -0.184 A  
HETATM   25  C   UNL     1      -9.788   7.260  72.438  1.00  0.00    -0.188 A  
HETATM   26  C   UNL     1      -9.539   8.298  71.537  1.00  0.00    -0.247 A  
HETATM   27  C   UNL     1     -10.370   6.075  72.000  1.00  0.00    -0.202 A  
HETATM   28  C   UNL     1     -10.666   5.912  70.645  1.00  0.00    -0.353 A  
HETATM   29  C   UNL     1     -10.401   6.947  69.733  1.00  0.00    -0.224 A  
BRANCH  27  30
HETATM   30  O   UNL     1     -10.543   5.120  72.968  1.00  0.00    -0.196 OA 
HETATM   31  C   UNL     1      -9.561   5.079  73.996  1.00  0.00    -0.133 C  
ENDBRANCH  27  30
ENDBRANCH  13  24
ENDBRANCH  10  12
ENDBRANCH   9  10
ENDBRANCH   7   9
ENDBRANCH   3   4
ENDBRANCH   2   3
TORSDOF 9
ENDMDL
MODEL      163
REMARK 921   NORMALIZED FREE ENERGY PREDICTED BY IDOCK:   -3.23 KCAL/MOL
REMARK 922        TOTAL FREE ENERGY PREDICTED BY IDOCK:   -7.01 KCAL/MOL
REMARK 923 INTER-LIGAND FREE ENERGY PREDICTED BY IDOCK:   -6.10 KCAL/MOL
REMARK 924 INTRA-LIGAND FREE ENERGY PREDICTED BY IDOCK:   -0.91 KCAL/MOL
REMARK 927      BINDING AFFINITY PREDICTED BY RF-SCORE:    0.00 PKD
ROOT
HETATM    1  C   UNL     1     -12.157   9.987  71.414  1.00  0.00    -0.498 C  
HETATM    2  C   UNL     1     -13.533  10.293  71.990  1.00  0.00    -0.385 C  
ENDROOT
BRANCH   2   3
HETATM    3  C   UNL     1     -13.685  11.789  72.244  1.00  0.00     0.079 C  
BRANCH   3   4
HETATM    4  C   UNL     1     -12.435  12.581  71.848  1.00  0.00     0.173 C  
HETATM    5  C   UNL     1     -12.736  13.656  70.783  1.00  0.00    -0.338 C  
HETATM    6  C   UNL     1     -13.842  14.654  71.210  1.00  0.00    -0.420 C  
HETATM    7  C   UNL     1     -11.441  14.364  70.341  1.00  0.00    -0.170 C  
HETATM    8  C   UNL     1     -13.522  15.486  72.445  1.00  0.00    -0.606 C  
BRANCH   7   9
HETATM    9  O   UNL     1     -11.783  15.324  69.330  1.00  0.00    -0.301 OA 
BRANCH   9  10
HETATM   10  C   UNL     1     -11.353  15.130  68.063  1.00  0.00    -0.337 C  
HETATM   11  O   UNL     1     -11.399  15.952  67.161  1.00  0.00    -0.145 OA 
BRANCH  10  12
HETATM   12  C   UNL     1     -10.599  13.847  67.977  1.00  0.00    -0.252 C  
HETATM   13  C   UNL     1      -9.250  13.719  67.821  1.00  0.00    -0.206 C  
BRANCH  12  14
HETATM   14  C   UNL     1     -11.496  12.621  67.914  1.00  0.00    -0.309 C  
HETATM   15  H1  UNL     1     -12.841  10.781  67.820  1.00  0.00     0.000 HD 
HETATM   16  N   UNL     1     -12.239  11.604  67.862  1.00  0.00    -0.437 NA 
HETATM   17  H2  UNL     1     -12.326  10.890  68.586  1.00  0.00     0.000 HD 
ENDBRANCH  12  14
BRANCH  13  18
HETATM   18  C   UNL     1      -8.347  14.897  67.917  1.00  0.00    -0.149 A  
HETATM   19  C   UNL     1      -7.999  15.418  69.169  1.00  0.00    -0.222 A  
HETATM   20  C   UNL     1      -7.866  15.528  66.762  1.00  0.00    -0.162 A  
HETATM   21  C   UNL     1      -7.132  16.712  66.854  1.00  0.00    -0.264 A  
HETATM   22  C   UNL     1      -6.835  17.252  68.101  1.00  0.00    -0.182 A  
HETATM   23  C   UNL     1      -7.244  16.590  69.258  1.00  0.00    -0.213 A  
ENDBRANCH  13  18
BRANCH  13  24
HETATM   24  C   UNL     1      -8.680  12.386  67.477  1.00  0.00    -0.179 A  
HETATM   25  C   UNL     1      -7.588  10.333  68.195  1.00  0.00    -0.087 A  
HETATM   26  C   UNL     1      -8.144  11.579  68.495  1.00  0.00    -0.146 A  
HETATM   27  C   UNL     1      -7.588   9.860  66.887  1.00  0.00    -0.095 A  
HETATM   28  C   UNL     1      -8.109  10.657  65.866  1.00  0.00    -0.159 A  
HETATM   29  C   UNL     1      -8.653  11.919  66.160  1.00  0.00     0.052 A  
BRANCH  27  30
HETATM   30  O   UNL     1      -6.994   8.638  66.710  1.00  0.00    -0.074 OA 
HETATM   31  C   UNL     1      -6.803   8.219  65.365  1.00  0.00    -0.062 C  
ENDBRANCH  27  30
ENDBRANCH  13  24
ENDBRANCH  10  12
ENDBRANCH   9  10
ENDBRANCH   7   9
ENDBRANCH   3   4
ENDBRANCH   2   3
TORSDOF 9
ENDMDL
MODEL      164
REMARK 921   NORMALIZED FREE ENERGY PREDICTED BY IDOCK:   -3.23 KCAL/MOL
REMARK 922        TOTAL FREE ENERGY PREDICTED BY IDOCK:   -7.00 KCAL/MOL
REMARK 923 INTER-LIGAND FREE ENERGY PREDICTED BY IDOCK:   -5.32 KCAL/MOL
REMARK 924 INTRA-LIGAND FREE ENERGY PREDICTED BY IDOCK:   -1.68 KCAL/MOL
REMARK 927      BINDING AFFINITY PREDICTED BY RF-SCORE:    0.00 PKD
ROOT
HETATM    1  C   UNL     1     -11.781  14.835  65.180  1.00  0.00    -0.337 C  
HETATM    2  C   UNL     1     -12.090  13.955  63.976  1.00  0.00    -0.437 C  
ENDROOT
BRANCH   2   3
HETATM    3  C   UNL     1     -12.097  12.483  64.379  1.00  0.00    -0.500 C  
BRANCH   3   4
HETATM    4  C   UNL     1     -12.092  12.291  65.899  1.00  0.00    -0.261 C  
HETATM    5  C   UNL     1     -11.153  11.150  66.341  1.00  0.00    -0.204 C  
HETATM    6  C   UNL     1      -9.692  11.332  65.859  1.00  0.00    -0.258 C  
HETATM    7  C   UNL     1     -11.248  10.925  67.862  1.00  0.00    -0.321 C  
HETATM    8  C   UNL     1      -8.985  12.573  66.388  1.00  0.00    -0.077 C  
BRANCH   7   9
HETATM    9  O   UNL     1     -10.380   9.834  68.205  1.00  0.00    -0.181 OA 
BRANCH   9  10
HETATM   10  C   UNL     1      -9.470   9.997  69.192  1.00  0.00    -0.207 C  
HETATM   11  O   UNL     1      -8.859  11.026  69.434  1.00  0.00     0.015 OA 
BRANCH  10  12
HETATM   12  C   UNL     1      -9.486   8.811  70.093  1.00  0.00    -0.182 C  
HETATM   13  C   UNL     1      -8.733   7.682  69.946  1.00  0.00    -0.139 C  
BRANCH  12  14
HETATM   14  C   UNL     1     -10.570   8.873  71.158  1.00  0.00    -0.265 C  
HETATM   15  H1  UNL     1     -12.195   8.967  72.755  1.00  0.00     0.000 HD 
HETATM   16  N   UNL     1     -11.468   8.925  72.041  1.00  0.00    -0.367 NA 
HETATM   17  H2  UNL     1     -12.255   9.575  72.055  1.00  0.00     0.000 HD 
ENDBRANCH  12  14
BRANCH  13  18
HETATM   18  C   UNL     1      -7.643   7.609  68.939  1.00  0.00    -0.101 A  
HETATM   19  C   UNL     1      -7.867   6.996  67.700  1.00  0.00    -0.113 A  
HETATM   20  C   UNL     1      -6.366   8.113  69.225  1.00  0.00    -0.039 A  
HETATM   21  C   UNL     1      -5.310   7.920  68.332  1.00  0.00    -0.031 A  
HETATM   22  C   UNL     1      -5.530   7.262  67.126  1.00  0.00    -0.025 A  
HETATM   23  C   UNL     1      -6.813   6.826  66.799  1.00  0.00    -0.061 A  
ENDBRANCH  13  18
BRANCH  13  24
HETATM   24  C   UNL     1      -9.058   6.479  70.762  1.00  0.00    -0.154 A  
HETATM   25  C   UNL     1      -8.847   5.253  72.854  1.00  0.00    -0.121 A  
HETATM   26  C   UNL     1      -8.570   6.380  72.076  1.00  0.00    -0.126 A  
HETATM   27  C   UNL     1      -9.637   4.227  72.349  1.00  0.00    -0.141 A  
HETATM   28  C   UNL     1     -10.121   4.310  71.041  1.00  0.00    -0.165 A  
HETATM   29  C   UNL     1      -9.830   5.433  70.248  1.00  0.00    -0.272 A  
BRANCH  27  30
HETATM   30  O   UNL     1      -9.820   3.164  73.193  1.00  0.00    -0.106 OA 
HETATM   31  C   UNL     1     -10.188   1.932  72.584  1.00  0.00    -0.144 C  
ENDBRANCH  27  30
ENDBRANCH  13  24
ENDBRANCH  10  12
ENDBRANCH   9  10
ENDBRANCH   7   9
ENDBRANCH   3   4
ENDBRANCH   2   3
TORSDOF 9
ENDMDL
MODEL      165
REMARK 921   NORMALIZED FREE ENERGY PREDICTED BY IDOCK:   -3.20 KCAL/MOL
REMARK 922        TOTAL FREE ENERGY PREDICTED BY IDOCK:   -6.95 KCAL/MOL
REMARK 923 INTER-LIGAND FREE ENERGY PREDICTED BY IDOCK:   -4.57 KCAL/MOL
REMARK 924 INTRA-LIGAND FREE ENERGY PREDICTED BY IDOCK:   -2.38 KCAL/MOL
REMARK 927      BINDING AFFINITY PREDICTED BY RF-SCORE:    0.00 PKD
ROOT
HETATM    1  C   UNL     1      -5.409  11.339  66.669  1.00  0.00    -0.122 C  
HETATM    2  C   UNL     1      -6.276  11.874  67.800  1.00  0.00    -0.070 C  
ENDROOT
BRANCH   2   3
HETATM    3  C   UNL     1      -7.694  12.141  67.304  1.00  0.00    -0.168 C  
BRANCH   3   4
HETATM    4  C   UNL     1      -8.220  11.022  66.401  1.00  0.00    -0.166 C  
HETATM    5  C   UNL     1      -9.327  10.191  67.083  1.00  0.00    -0.176 C  
HETATM    6  C   UNL     1     -10.527  11.042  67.568  1.00  0.00    -0.244 C  
HETATM    7  C   UNL     1      -9.761   9.019  66.182  1.00  0.00    -0.283 C  
HETATM    8  C   UNL     1     -11.286  11.776  66.470  1.00  0.00    -0.380 C  
BRANCH   7   9
HETATM    9  O   UNL     1     -10.764   8.268  66.884  1.00  0.00    -0.299 OA 
BRANCH   9  10
HETATM   10  C   UNL     1     -10.391   7.450  67.894  1.00  0.00    -0.204 C  
HETATM   11  O   UNL     1     -10.721   7.565  69.063  1.00  0.00    -0.207 OA 
BRANCH  10  12
HETATM   12  C   UNL     1      -9.705   6.247  67.340  1.00  0.00    -0.137 C  
HETATM   13  C   UNL     1      -8.398   5.910  67.534  1.00  0.00    -0.105 C  
BRANCH  12  14
HETATM   14  C   UNL     1     -10.561   5.458  66.362  1.00  0.00    -0.260 C  
HETATM   15  H1  UNL     1     -11.844   4.274  64.894  1.00  0.00     0.000 HD 
HETATM   16  N   UNL     1     -11.270   4.804  65.550  1.00  0.00    -0.968 NA 
HETATM   17  H2  UNL     1     -10.970   4.460  64.638  1.00  0.00     0.000 HD 
ENDBRANCH  12  14
BRANCH  13  18
HETATM   18  C   UNL     1      -7.550   6.640  68.513  1.00  0.00    -0.097 A  
HETATM   19  C   UNL     1      -7.505   6.230  69.851  1.00  0.00    -0.084 A  
HETATM   20  C   UNL     1      -6.819   7.772  68.126  1.00  0.00    -0.068 A  
HETATM   21  C   UNL     1      -6.134   8.533  69.076  1.00  0.00    -0.043 A  
HETATM   22  C   UNL     1      -6.138   8.147  70.412  1.00  0.00    -0.028 A  
HETATM   23  C   UNL     1      -6.799   6.981  70.794  1.00  0.00    -0.054 A  
ENDBRANCH  13  18
BRANCH  13  24
HETATM   24  C   UNL     1      -7.791   4.836  66.698  1.00  0.00    -0.099 A  
HETATM   25  C   UNL     1      -7.177   2.498  66.423  1.00  0.00    -0.065 A  
HETATM   26  C   UNL     1      -7.757   3.518  67.181  1.00  0.00    -0.079 A  
HETATM   27  C   UNL     1      -6.654   2.769  65.163  1.00  0.00    -0.035 A  
HETATM   28  C   UNL     1      -6.673   4.078  64.676  1.00  0.00    -0.044 A  
HETATM   29  C   UNL     1      -7.240   5.111  65.443  1.00  0.00    -0.068 A  
BRANCH  27  30
HETATM   30  O   UNL     1      -6.091   1.696  64.524  1.00  0.00    -0.016 OA 
HETATM   31  C   UNL     1      -5.147   1.996  63.502  1.00  0.00    -0.004 C  
ENDBRANCH  27  30
ENDBRANCH  13  24
ENDBRANCH  10  12
ENDBRANCH   9  10
ENDBRANCH   7   9
ENDBRANCH   3   4
ENDBRANCH   2   3
TORSDOF 9
ENDMDL
MODEL      166
REMARK 921   NORMALIZED FREE ENERGY PREDICTED BY IDOCK:   -3.20 KCAL/MOL
REMARK 922        TOTAL FREE ENERGY PREDICTED BY IDOCK:   -6.95 KCAL/MOL
REMARK 923 INTER-LIGAND FREE ENERGY PREDICTED BY IDOCK:   -7.34 KCAL/MOL
REMARK 924 INTRA-LIGAND FREE ENERGY PREDICTED BY IDOCK:    0.40 KCAL/MOL
REMARK 927      BINDING AFFINITY PREDICTED BY RF-SCORE:    0.00 PKD
ROOT
HETATM    1  C   UNL     1      -7.321  15.756  67.033  1.00  0.00    -0.226 C  
HETATM    2  C   UNL     1      -7.588  14.654  68.049  1.00  0.00    -0.132 C  
ENDROOT
BRANCH   2   3
HETATM    3  C   UNL     1      -6.277  14.140  68.635  1.00  0.00    -0.088 C  
BRANCH   3   4
HETATM    4  C   UNL     1      -6.408  12.730  69.219  1.00  0.00    -0.108 C  
HETATM    5  C   UNL     1      -7.221  11.792  68.303  1.00  0.00    -0.084 C  
HETATM    6  C   UNL     1      -6.650  11.683  66.867  1.00  0.00    -0.129 C  
HETATM    7  C   UNL     1      -7.413  10.415  68.967  1.00  0.00    -0.106 C  
HETATM    8  C   UNL     1      -5.242  11.108  66.773  1.00  0.00    -0.090 C  
BRANCH   7   9
HETATM    9  O   UNL     1      -8.202   9.602  68.085  1.00  0.00    -0.105 OA 
BRANCH   9  10
HETATM   10  C   UNL     1      -9.262  10.152  67.451  1.00  0.00    -0.141 C  
HETATM   11  O   UNL     1      -9.533  10.019  66.268  1.00  0.00    -0.172 OA 
BRANCH  10  12
HETATM   12  C   UNL     1     -10.188  10.758  68.450  1.00  0.00    -0.192 C  
HETATM   13  C   UNL     1     -10.961  11.865  68.258  1.00  0.00    -0.273 C  
BRANCH  12  14
HETATM   14  C   UNL     1     -10.093  10.121  69.827  1.00  0.00    -0.231 C  
HETATM   15  H1  UNL     1      -9.952   9.166  71.894  1.00  0.00     0.000 HD 
HETATM   16  N   UNL     1     -10.015   9.593  70.970  1.00  0.00    -0.300 NA 
HETATM   17  H2  UNL     1     -10.768   9.105  71.454  1.00  0.00     0.000 HD 
ENDBRANCH  12  14
BRANCH  13  18
HETATM   18  C   UNL     1     -11.101  12.484  66.913  1.00  0.00    -0.323 A  
HETATM   19  C   UNL     1     -10.135  13.383  66.447  1.00  0.00    -0.292 A  
HETATM   20  C   UNL     1     -12.218  12.212  66.111  1.00  0.00     0.158 A  
HETATM   21  C   UNL     1     -12.414  12.899  64.911  1.00  0.00    -0.540 A  
HETATM   22  C   UNL     1     -11.474  13.830  64.481  1.00  0.00    -0.401 A  
HETATM   23  C   UNL     1     -10.323  14.051  65.234  1.00  0.00    -0.403 A  
ENDBRANCH  13  18
BRANCH  13  24
HETATM   24  C   UNL     1     -11.619  12.506  69.431  1.00  0.00    -0.368 A  
HETATM   25  C   UNL     1     -13.010  12.299  71.417  1.00  0.00    -0.354 A  
HETATM   26  C   UNL     1     -12.369  11.718  70.320  1.00  0.00    -0.320 A  
HETATM   27  C   UNL     1     -12.887  13.663  71.661  1.00  0.00    -0.338 A  
HETATM   28  C   UNL     1     -12.152  14.458  70.780  1.00  0.00    -0.408 A  
HETATM   29  C   UNL     1     -11.520  13.880  69.665  1.00  0.00    -0.310 A  
BRANCH  27  30
HETATM   30  O   UNL     1     -13.579  14.123  72.751  1.00  0.00    -0.596 OA 
HETATM   31  C   UNL     1     -12.931  15.119  73.534  1.00  0.00    -0.470 C  
ENDBRANCH  27  30
ENDBRANCH  13  24
ENDBRANCH  10  12
ENDBRANCH   9  10
ENDBRANCH   7   9
ENDBRANCH   3   4
ENDBRANCH   2   3
TORSDOF 9
ENDMDL
MODEL      167
REMARK 921   NORMALIZED FREE ENERGY PREDICTED BY IDOCK:   -3.19 KCAL/MOL
REMARK 922        TOTAL FREE ENERGY PREDICTED BY IDOCK:   -6.94 KCAL/MOL
REMARK 923 INTER-LIGAND FREE ENERGY PREDICTED BY IDOCK:   -6.08 KCAL/MOL
REMARK 924 INTRA-LIGAND FREE ENERGY PREDICTED BY IDOCK:   -0.86 KCAL/MOL
REMARK 927      BINDING AFFINITY PREDICTED BY RF-SCORE:    0.00 PKD
ROOT
HETATM    1  C   UNL     1     -14.407   7.500  71.578  1.00  0.00    -0.603 C  
HETATM    2  C   UNL     1     -13.818   8.871  71.881  1.00  0.00    -0.492 C  
ENDROOT
BRANCH   2   3
HETATM    3  C   UNL     1     -12.333   8.753  72.208  1.00  0.00    -0.448 C  
BRANCH   3   4
HETATM    4  C   UNL     1     -11.627   7.691  71.359  1.00  0.00    -0.300 C  
HETATM    5  C   UNL     1     -10.112   7.629  71.641  1.00  0.00    -0.212 C  
HETATM    6  C   UNL     1      -9.771   7.380  73.132  1.00  0.00    -0.281 C  
HETATM    7  C   UNL     1      -9.425   6.619  70.702  1.00  0.00    -0.169 C  
HETATM    8  C   UNL     1     -10.273   6.058  73.698  1.00  0.00    -0.239 C  
BRANCH   7   9
HETATM    9  O   UNL     1      -8.018   6.632  70.989  1.00  0.00    -0.104 OA 
BRANCH   9  10
HETATM   10  C   UNL     1      -7.144   6.917  69.998  1.00  0.00    -0.074 C  
HETATM   11  O   UNL     1      -6.045   6.406  69.847  1.00  0.00    -0.028 OA 
BRANCH  10  12
HETATM   12  C   UNL     1      -7.804   7.779  68.977  1.00  0.00    -0.118 C  
HETATM   13  C   UNL     1      -8.222   7.380  67.741  1.00  0.00    -0.119 C  
BRANCH  12  14
HETATM   14  C   UNL     1      -7.843   9.250  69.359  1.00  0.00    -0.083 C  
HETATM   15  H1  UNL     1      -7.901  11.457  69.932  1.00  0.00     0.000 HD 
HETATM   16  N   UNL     1      -7.875  10.470  69.676  1.00  0.00    -0.310 NA 
HETATM   17  H2  UNL     1      -8.526  10.899  70.334  1.00  0.00     0.000 HD 
ENDBRANCH  12  14
BRANCH  13  18
HETATM   18  C   UNL     1      -8.231   5.944  67.356  1.00  0.00    -0.105 A  
HETATM   19  C   UNL     1      -7.147   5.393  66.662  1.00  0.00    -0.069 A  
HETATM   20  C   UNL     1      -9.336   5.131  67.643  1.00  0.00    -0.134 A  
HETATM   21  C   UNL     1      -9.399   3.822  67.161  1.00  0.00    -0.223 A  
HETATM   22  C   UNL     1      -8.339   3.300  66.426  1.00  0.00    -0.099 A  
HETATM   23  C   UNL     1      -7.203   4.075  66.201  1.00  0.00    -0.068 A  
ENDBRANCH  13  18
BRANCH  13  24
HETATM   24  C   UNL     1      -8.610   8.410  66.736  1.00  0.00    -0.123 A  
HETATM   25  C   UNL     1      -8.155   9.557  64.639  1.00  0.00    -0.136 A  
HETATM   26  C   UNL     1      -7.822   8.586  65.586  1.00  0.00    -0.102 A  
HETATM   27  C   UNL     1      -9.292  10.341  64.806  1.00  0.00    -0.260 A  
HETATM   28  C   UNL     1     -10.078  10.181  65.949  1.00  0.00    -0.325 A  
HETATM   29  C   UNL     1      -9.736   9.217  66.914  1.00  0.00    -0.248 A  
BRANCH  27  30
HETATM   30  O   UNL     1      -9.503  11.275  63.825  1.00  0.00    -0.223 OA 
HETATM   31  C   UNL     1     -10.306  12.393  64.184  1.00  0.00    -0.382 C  
ENDBRANCH  27  30
ENDBRANCH  13  24
ENDBRANCH  10  12
ENDBRANCH   9  10
ENDBRANCH   7   9
ENDBRANCH   3   4
ENDBRANCH   2   3
TORSDOF 9
ENDMDL
MODEL      168
REMARK 921   NORMALIZED FREE ENERGY PREDICTED BY IDOCK:   -3.17 KCAL/MOL
REMARK 922        TOTAL FREE ENERGY PREDICTED BY IDOCK:   -6.91 KCAL/MOL
REMARK 923 INTER-LIGAND FREE ENERGY PREDICTED BY IDOCK:   -5.54 KCAL/MOL
REMARK 924 INTRA-LIGAND FREE ENERGY PREDICTED BY IDOCK:   -1.37 KCAL/MOL
REMARK 927      BINDING AFFINITY PREDICTED BY RF-SCORE:    0.00 PKD
ROOT
HETATM    1  C   UNL     1     -11.996  15.218  71.490  1.00  0.00    -0.429 C  
HETATM    2  C   UNL     1     -12.533  14.898  70.101  1.00  0.00    -0.353 C  
ENDROOT
BRANCH   2   3
HETATM    3  C   UNL     1     -11.442  15.085  69.051  1.00  0.00    -0.322 C  
BRANCH   3   4
HETATM    4  C   UNL     1     -10.540  13.854  68.917  1.00  0.00    -0.228 C  
HETATM    5  C   UNL     1     -11.187  12.745  68.062  1.00  0.00    -0.310 C  
HETATM    6  C   UNL     1     -11.595  13.218  66.644  1.00  0.00    -0.408 C  
HETATM    7  C   UNL     1     -10.294  11.491  68.031  1.00  0.00    -0.190 C  
HETATM    8  C   UNL     1     -10.446  13.693  65.765  1.00  0.00    -0.296 C  
BRANCH   7   9
HETATM    9  O   UNL     1     -10.963  10.488  67.251  1.00  0.00    -0.291 OA 
BRANCH   9  10
HETATM   10  C   UNL     1     -10.228   9.610  66.532  1.00  0.00    -0.224 C  
HETATM   11  O   UNL     1      -9.925   9.729  65.356  1.00  0.00    -0.320 OA 
BRANCH  10  12
HETATM   12  C   UNL     1      -9.641   8.583  67.439  1.00  0.00    -0.204 C  
HETATM   13  C   UNL     1      -8.317   8.436  67.732  1.00  0.00    -0.130 C  
BRANCH  12  14
HETATM   14  C   UNL     1     -10.650   7.554  67.923  1.00  0.00    -0.185 C  
HETATM   15  H1  UNL     1     -12.164   6.010  68.649  1.00  0.00     0.000 HD 
HETATM   16  N   UNL     1     -11.487   6.700  68.325  1.00  0.00    -0.525 NA 
HETATM   17  H2  UNL     1     -12.487   6.706  68.126  1.00  0.00     0.000 HD 
ENDBRANCH  12  14
BRANCH  13  18
HETATM   18  C   UNL     1      -7.315   9.448  67.304  1.00  0.00    -0.087 A  
HETATM   19  C   UNL     1      -7.193  10.657  67.999  1.00  0.00    -0.087 A  
HETATM   20  C   UNL     1      -6.509   9.228  66.178  1.00  0.00    -0.069 A  
HETATM   21  C   UNL     1      -5.668  10.236  65.700  1.00  0.00    -0.088 A  
HETATM   22  C   UNL     1      -5.593  11.455  66.367  1.00  0.00    -0.125 A  
HETATM   23  C   UNL     1      -6.334  11.654  67.531  1.00  0.00    -0.087 A  
ENDBRANCH  13  18
BRANCH  13  24
HETATM   24  C   UNL     1      -7.858   7.202  68.431  1.00  0.00    -0.122 A  
HETATM   25  C   UNL     1      -7.335   6.051  70.510  1.00  0.00    -0.085 A  
HETATM   26  C   UNL     1      -7.779   7.190  69.833  1.00  0.00    -0.108 A  
HETATM   27  C   UNL     1      -6.996   4.902  69.804  1.00  0.00    -0.053 A  
HETATM   28  C   UNL     1      -7.062   4.905  68.409  1.00  0.00    -0.061 A  
HETATM   29  C   UNL     1      -7.491   6.054  67.723  1.00  0.00    -0.085 A  
BRANCH  27  30
HETATM   30  O   UNL     1      -6.552   3.857  70.572  1.00  0.00    -0.030 OA 
HETATM   31  C   UNL     1      -6.780   2.552  70.053  1.00  0.00    -0.033 C  
ENDBRANCH  27  30
ENDBRANCH  13  24
ENDBRANCH  10  12
ENDBRANCH   9  10
ENDBRANCH   7   9
ENDBRANCH   3   4
ENDBRANCH   2   3
TORSDOF 9
ENDMDL
MODEL      169
REMARK 921   NORMALIZED FREE ENERGY PREDICTED BY IDOCK:   -3.16 KCAL/MOL
REMARK 922        TOTAL FREE ENERGY PREDICTED BY IDOCK:   -6.89 KCAL/MOL
REMARK 923 INTER-LIGAND FREE ENERGY PREDICTED BY IDOCK:   -5.27 KCAL/MOL
REMARK 924 INTRA-LIGAND FREE ENERGY PREDICTED BY IDOCK:   -1.62 KCAL/MOL
REMARK 927      BINDING AFFINITY PREDICTED BY RF-SCORE:    0.00 PKD
ROOT
HETATM    1  C   UNL     1      -5.850  12.955  68.137  1.00  0.00    -0.088 C  
HETATM    2  C   UNL     1      -6.068  11.898  67.063  1.00  0.00    -0.149 C  
ENDROOT
BRANCH   2   3
HETATM    3  C   UNL     1      -5.184  10.682  67.324  1.00  0.00    -0.040 C  
BRANCH   3   4
HETATM    4  C   UNL     1      -5.988   9.382  67.417  1.00  0.00    -0.049 C  
HETATM    5  C   UNL     1      -5.850   8.705  68.796  1.00  0.00    -0.044 C  
HETATM    6  C   UNL     1      -6.254   9.624  69.977  1.00  0.00    -0.055 C  
HETATM    7  C   UNL     1      -6.592   7.356  68.818  1.00  0.00    -0.048 C  
HETATM    8  C   UNL     1      -7.706  10.083  69.972  1.00  0.00    -0.181 C  
BRANCH   7   9
HETATM    9  O   UNL     1      -6.398   6.763  70.111  1.00  0.00    -0.037 OA 
BRANCH   9  10
HETATM   10  C   UNL     1      -7.225   5.771  70.514  1.00  0.00    -0.078 C  
HETATM   11  O   UNL     1      -6.916   4.599  70.654  1.00  0.00    -0.036 OA 
BRANCH  10  12
HETATM   12  C   UNL     1      -8.513   6.351  70.989  1.00  0.00    -0.127 C  
HETATM   13  C   UNL     1      -9.660   6.460  70.259  1.00  0.00    -0.177 C  
BRANCH  12  14
HETATM   14  C   UNL     1      -8.418   6.995  72.363  1.00  0.00    -0.113 C  
HETATM   15  H1  UNL     1      -8.277   7.960  74.425  1.00  0.00     0.000 HD 
HETATM   16  N   UNL     1      -8.340   7.529  73.503  1.00  0.00    -0.136 NA 
HETATM   17  H2  UNL     1      -9.123   7.712  74.131  1.00  0.00     0.000 HD 
ENDBRANCH  12  14
BRANCH  13  18
HETATM   18  C   UNL     1      -9.793   5.807  68.930  1.00  0.00    -0.191 A  
HETATM   19  C   UNL     1     -10.205   6.551  67.817  1.00  0.00    -0.201 A  
HETATM   20  C   UNL     1      -9.549   4.435  68.776  1.00  0.00    -0.224 A  
HETATM   21  C   UNL     1      -9.807   3.801  67.558  1.00  0.00    -0.026 A  
HETATM   22  C   UNL     1     -10.267   4.539  66.473  1.00  0.00    -0.224 A  
HETATM   23  C   UNL     1     -10.439   5.917  66.594  1.00  0.00    -0.310 A  
ENDBRANCH  13  18
BRANCH  13  24
HETATM   24  C   UNL     1     -10.774   7.306  70.773  1.00  0.00    -0.248 A  
HETATM   25  C   UNL     1     -11.607   9.502  71.410  1.00  0.00    -0.466 A  
HETATM   26  C   UNL     1     -10.583   8.691  70.914  1.00  0.00    -0.265 A  
HETATM   27  C   UNL     1     -12.840   8.953  71.742  1.00  0.00    -0.365 A  
HETATM   28  C   UNL     1     -13.038   7.576  71.616  1.00  0.00    -0.401 A  
HETATM   29  C   UNL     1     -12.006   6.754  71.133  1.00  0.00    -0.421 A  
BRANCH  27  30
HETATM   30  O   UNL     1     -13.757   9.841  72.242  1.00  0.00    -0.393 OA 
HETATM   31  C   UNL     1     -13.507  11.217  71.983  1.00  0.00    -0.174 C  
ENDBRANCH  27  30
ENDBRANCH  13  24
ENDBRANCH  10  12
ENDBRANCH   9  10
ENDBRANCH   7   9
ENDBRANCH   3   4
ENDBRANCH   2   3
TORSDOF 9
ENDMDL
MODEL      170
REMARK 921   NORMALIZED FREE ENERGY PREDICTED BY IDOCK:   -3.14 KCAL/MOL
REMARK 922        TOTAL FREE ENERGY PREDICTED BY IDOCK:   -6.86 KCAL/MOL
REMARK 923 INTER-LIGAND FREE ENERGY PREDICTED BY IDOCK:   -5.05 KCAL/MOL
REMARK 924 INTRA-LIGAND FREE ENERGY PREDICTED BY IDOCK:   -1.81 KCAL/MOL
REMARK 927      BINDING AFFINITY PREDICTED BY RF-SCORE:    0.00 PKD
ROOT
HETATM    1  C   UNL     1     -10.857  15.822  66.616  1.00  0.00    -0.241 C  
HETATM    2  C   UNL     1     -11.803  14.639  66.470  1.00  0.00    -0.317 C  
ENDROOT
BRANCH   2   3
HETATM    3  C   UNL     1     -11.700  13.719  67.683  1.00  0.00    -0.402 C  
BRANCH   3   4
HETATM    4  C   UNL     1     -11.415  12.265  67.294  1.00  0.00    -0.426 C  
HETATM    5  C   UNL     1     -10.180  12.136  66.380  1.00  0.00    -0.245 C  
HETATM    6  C   UNL     1      -8.894  12.747  66.990  1.00  0.00    -0.213 C  
HETATM    7  C   UNL     1      -9.983  10.674  65.933  1.00  0.00    -0.255 C  
HETATM    8  C   UNL     1      -8.422  12.101  68.286  1.00  0.00    -0.176 C  
BRANCH   7   9
HETATM    9  O   UNL     1      -8.843  10.625  65.061  1.00  0.00    -0.192 OA 
BRANCH   9  10
HETATM   10  C   UNL     1      -7.816   9.799  65.363  1.00  0.00    -0.122 C  
HETATM   11  O   UNL     1      -6.747  10.138  65.846  1.00  0.00    -0.092 OA 
BRANCH  10  12
HETATM   12  C   UNL     1      -8.257   8.381  65.238  1.00  0.00    -0.151 C  
HETATM   13  C   UNL     1      -8.514   7.528  66.271  1.00  0.00    -0.141 C  
BRANCH  12  14
HETATM   14  C   UNL     1      -8.251   7.868  63.807  1.00  0.00    -0.008 C  
HETATM   15  H1  UNL     1      -8.243   7.098  61.660  1.00  0.00     0.000 HD 
HETATM   16  N   UNL     1      -8.246   7.442  62.620  1.00  0.00    -0.321 NA 
HETATM   17  H2  UNL     1      -8.877   6.739  62.236  1.00  0.00     0.000 HD 
ENDBRANCH  12  14
BRANCH  13  18
HETATM   18  C   UNL     1      -8.564   8.011  67.676  1.00  0.00    -0.130 A  
HETATM   19  C   UNL     1      -9.789   8.363  68.257  1.00  0.00    -0.189 A  
HETATM   20  C   UNL     1      -7.390   8.163  68.426  1.00  0.00    -0.094 A  
HETATM   21  C   UNL     1      -7.427   8.745  69.694  1.00  0.00    -0.071 A  
HETATM   22  C   UNL     1      -8.643   9.140  70.243  1.00  0.00    -0.218 A  
HETATM   23  C   UNL     1      -9.825   8.924  69.537  1.00  0.00    -0.180 A  
ENDBRANCH  13  18
BRANCH  13  24
HETATM   24  C   UNL     1      -8.677   6.073  65.991  1.00  0.00    -0.154 A  
HETATM   25  C   UNL     1      -7.665   3.905  65.550  1.00  0.00    -0.085 A  
HETATM   26  C   UNL     1      -7.538   5.267  65.831  1.00  0.00    -0.083 A  
HETATM   27  C   UNL     1      -8.924   3.321  65.458  1.00  0.00    -0.142 A  
HETATM   28  C   UNL     1     -10.064   4.114  65.606  1.00  0.00    -0.189 A  
HETATM   29  C   UNL     1      -9.941   5.489  65.870  1.00  0.00    -0.002 A  
BRANCH  27  30
HETATM   30  O   UNL     1      -8.925   1.985  65.155  1.00  0.00    -0.118 OA 
HETATM   31  C   UNL     1      -8.993   1.652  63.773  1.00  0.00    -0.091 C  
ENDBRANCH  27  30
ENDBRANCH  13  24
ENDBRANCH  10  12
ENDBRANCH   9  10
ENDBRANCH   7   9
ENDBRANCH   3   4
ENDBRANCH   2   3
TORSDOF 9
ENDMDL
MODEL      171
REMARK 921   NORMALIZED FREE ENERGY PREDICTED BY IDOCK:   -3.13 KCAL/MOL
REMARK 922        TOTAL FREE ENERGY PREDICTED BY IDOCK:   -6.84 KCAL/MOL
REMARK 923 INTER-LIGAND FREE ENERGY PREDICTED BY IDOCK:   -5.43 KCAL/MOL
REMARK 924 INTRA-LIGAND FREE ENERGY PREDICTED BY IDOCK:   -1.41 KCAL/MOL
REMARK 927      BINDING AFFINITY PREDICTED BY RF-SCORE:    0.00 PKD
ROOT
HETATM    1  C   UNL     1     -11.726  15.624  72.040  1.00  0.00    -0.551 C  
HETATM    2  C   UNL     1     -11.958  15.789  70.545  1.00  0.00    -0.401 C  
ENDROOT
BRANCH   2   3
HETATM    3  C   UNL     1     -12.022  14.426  69.861  1.00  0.00    -0.391 C  
BRANCH   3   4
HETATM    4  C   UNL     1     -10.732  14.088  69.107  1.00  0.00    -0.198 C  
HETATM    5  C   UNL     1     -10.679  12.610  68.672  1.00  0.00    -0.269 C  
HETATM    6  C   UNL     1     -11.888  12.178  67.805  1.00  0.00    -0.327 C  
HETATM    7  C   UNL     1      -9.329  12.286  68.003  1.00  0.00    -0.195 C  
HETATM    8  C   UNL     1     -12.030  12.913  66.479  1.00  0.00    -0.447 C  
BRANCH   7   9
HETATM    9  O   UNL     1      -9.329  10.894  67.653  1.00  0.00    -0.153 OA 
BRANCH   9  10
HETATM   10  C   UNL     1      -8.209  10.343  67.133  1.00  0.00    -0.122 C  
HETATM   11  O   UNL     1      -7.073  10.764  67.281  1.00  0.00    -0.085 OA 
BRANCH  10  12
HETATM   12  C   UNL     1      -8.529   9.013  66.542  1.00  0.00    -0.124 C  
HETATM   13  C   UNL     1      -8.366   7.804  67.153  1.00  0.00    -0.118 C  
BRANCH  12  14
HETATM   14  C   UNL     1      -8.923   9.081  65.075  1.00  0.00    -0.147 C  
HETATM   15  H1  UNL     1      -9.512   9.182  62.874  1.00  0.00     0.000 HD 
HETATM   16  N   UNL     1      -9.249   9.137  63.858  1.00  0.00    -0.349 NA 
HETATM   17  H2  UNL     1      -8.680   9.525  63.105  1.00  0.00     0.000 HD 
ENDBRANCH  12  14
BRANCH  13  18
HETATM   18  C   UNL     1      -8.020   7.710  68.596  1.00  0.00    -0.122 A  
HETATM   19  C   UNL     1      -6.686   7.556  68.992  1.00  0.00    -0.049 A  
HETATM   20  C   UNL     1      -9.021   7.732  69.577  1.00  0.00    -0.142 A  
HETATM   21  C   UNL     1      -8.704   7.507  70.919  1.00  0.00    -0.142 A  
HETATM   22  C   UNL     1      -7.381   7.301  71.296  1.00  0.00    -0.077 A  
HETATM   23  C   UNL     1      -6.370   7.354  70.338  1.00  0.00    -0.038 A  
ENDBRANCH  13  18
BRANCH  13  24
HETATM   24  C   UNL     1      -8.469   6.558  66.342  1.00  0.00    -0.124 A  
HETATM   25  C   UNL     1      -7.449   4.986  64.790  1.00  0.00    -0.075 A  
HETATM   26  C   UNL     1      -7.370   6.141  65.573  1.00  0.00    -0.080 A  
HETATM   27  C   UNL     1      -8.607   4.216  64.789  1.00  0.00    -0.119 A  
HETATM   28  C   UNL     1      -9.708   4.626  65.543  1.00  0.00    -0.192 A  
HETATM   29  C   UNL     1      -9.640   5.796  66.317  1.00  0.00    -0.159 A  
BRANCH  27  30
HETATM   30  O   UNL     1      -8.576   3.120  63.966  1.00  0.00    -0.089 OA 
HETATM   31  C   UNL     1      -9.822   2.479  63.724  1.00  0.00    -0.140 C  
ENDBRANCH  27  30
ENDBRANCH  13  24
ENDBRANCH  10  12
ENDBRANCH   9  10
ENDBRANCH   7   9
ENDBRANCH   3   4
ENDBRANCH   2   3
TORSDOF 9
ENDMDL
MODEL      172
REMARK 921   NORMALIZED FREE ENERGY PREDICTED BY IDOCK:   -3.13 KCAL/MOL
REMARK 922        TOTAL FREE ENERGY PREDICTED BY IDOCK:   -6.84 KCAL/MOL
REMARK 923 INTER-LIGAND FREE ENERGY PREDICTED BY IDOCK:   -6.22 KCAL/MOL
REMARK 924 INTRA-LIGAND FREE ENERGY PREDICTED BY IDOCK:   -0.63 KCAL/MOL
REMARK 927      BINDING AFFINITY PREDICTED BY RF-SCORE:    0.00 PKD
ROOT
HETATM    1  C   UNL     1     -14.239   8.174  71.324  1.00  0.00    -0.346 C  
HETATM    2  C   UNL     1     -13.646   9.521  71.715  1.00  0.00    -0.447 C  
ENDROOT
BRANCH   2   3
HETATM    3  C   UNL     1     -12.141   9.397  71.937  1.00  0.00    -0.427 C  
BRANCH   3   4
HETATM    4  C   UNL     1     -11.555   8.139  71.290  1.00  0.00    -0.305 C  
HETATM    5  C   UNL     1     -10.031   8.028  71.502  1.00  0.00    -0.225 C  
HETATM    6  C   UNL     1      -9.612   8.061  72.993  1.00  0.00    -0.347 C  
HETATM    7  C   UNL     1      -9.465   6.804  70.758  1.00  0.00    -0.165 C  
HETATM    8  C   UNL     1     -10.153   6.919  73.843  1.00  0.00    -0.391 C  
BRANCH   7   9
HETATM    9  O   UNL     1      -8.044   6.776  70.965  1.00  0.00    -0.112 OA 
BRANCH   9  10
HETATM   10  C   UNL     1      -7.225   7.243  69.996  1.00  0.00    -0.078 C  
HETATM   11  O   UNL     1      -6.319   6.619  69.466  1.00  0.00    -0.039 OA 
BRANCH  10  12
HETATM   12  C   UNL     1      -7.731   8.554  69.498  1.00  0.00    -0.091 C  
HETATM   13  C   UNL     1      -8.572   8.738  68.440  1.00  0.00    -0.134 C  
BRANCH  12  14
HETATM   14  C   UNL     1      -7.090   9.750  70.183  1.00  0.00    -0.130 C  
HETATM   15  H1  UNL     1      -6.129  11.546  71.209  1.00  0.00     0.000 HD 
HETATM   16  N   UNL     1      -6.559  10.743  70.750  1.00  0.00    -0.445 NA 
HETATM   17  H2  UNL     1      -6.241  11.595  70.288  1.00  0.00     0.000 HD 
ENDBRANCH  12  14
BRANCH  13  18
HETATM   18  C   UNL     1      -9.242   7.588  67.778  1.00  0.00    -0.139 A  
HETATM   19  C   UNL     1      -8.498   6.690  67.003  1.00  0.00    -0.113 A  
HETATM   20  C   UNL     1     -10.628   7.407  67.882  1.00  0.00    -0.255 A  
HETATM   21  C   UNL     1     -11.271   6.408  67.148  1.00  0.00    -0.298 A  
HETATM   22  C   UNL     1     -10.529   5.553  66.339  1.00  0.00    -0.294 A  
HETATM   23  C   UNL     1      -9.142   5.676  66.289  1.00  0.00    -0.153 A  
ENDBRANCH  13  18
BRANCH  13  24
HETATM   24  C   UNL     1      -8.767  10.112  67.895  1.00  0.00    -0.122 A  
HETATM   25  C   UNL     1      -9.998  12.211  67.912  1.00  0.00    -0.200 A  
HETATM   26  C   UNL     1      -9.784  10.926  68.419  1.00  0.00    -0.179 A  
HETATM   27  C   UNL     1      -9.182  12.712  66.904  1.00  0.00    -0.216 A  
HETATM   28  C   UNL     1      -8.174  11.908  66.369  1.00  0.00     0.049 A  
HETATM   29  C   UNL     1      -7.967  10.609  66.863  1.00  0.00    -0.124 A  
BRANCH  27  30
HETATM   30  O   UNL     1      -9.501  13.973  66.470  1.00  0.00    -0.277 OA 
HETATM   31  C   UNL     1      -8.811  15.047  67.097  1.00  0.00    -0.213 C  
ENDBRANCH  27  30
ENDBRANCH  13  24
ENDBRANCH  10  12
ENDBRANCH   9  10
ENDBRANCH   7   9
ENDBRANCH   3   4
ENDBRANCH   2   3
TORSDOF 9
ENDMDL
MODEL      173
REMARK 921   NORMALIZED FREE ENERGY PREDICTED BY IDOCK:   -3.11 KCAL/MOL
REMARK 922        TOTAL FREE ENERGY PREDICTED BY IDOCK:   -6.81 KCAL/MOL
REMARK 923 INTER-LIGAND FREE ENERGY PREDICTED BY IDOCK:   -5.41 KCAL/MOL
REMARK 924 INTRA-LIGAND FREE ENERGY PREDICTED BY IDOCK:   -1.40 KCAL/MOL
REMARK 927      BINDING AFFINITY PREDICTED BY RF-SCORE:    0.00 PKD
ROOT
HETATM    1  C   UNL     1     -10.832  15.385  66.038  1.00  0.00    -0.315 C  
HETATM    2  C   UNL     1     -11.286  14.885  64.673  1.00  0.00    -0.349 C  
ENDROOT
BRANCH   2   3
HETATM    3  C   UNL     1     -10.939  13.409  64.502  1.00  0.00    -0.404 C  
BRANCH   3   4
HETATM    4  C   UNL     1     -10.297  12.809  65.757  1.00  0.00    -0.297 C  
HETATM    5  C   UNL     1     -10.494  11.282  65.841  1.00  0.00    -0.314 C  
HETATM    6  C   UNL     1      -9.963  10.522  64.599  1.00  0.00    -0.415 C  
HETATM    7  C   UNL     1      -9.919  10.730  67.160  1.00  0.00    -0.194 C  
HETATM    8  C   UNL     1      -8.466  10.654  64.350  1.00  0.00    -0.070 C  
BRANCH   7   9
HETATM    9  O   UNL     1     -10.162   9.315  67.193  1.00  0.00    -0.219 OA 
BRANCH   9  10
HETATM   10  C   UNL     1     -10.287   8.694  68.388  1.00  0.00    -0.201 C  
HETATM   11  O   UNL     1     -10.818   9.162  69.383  1.00  0.00    -0.219 OA 
BRANCH  10  12
HETATM   12  C   UNL     1      -9.890   7.264  68.256  1.00  0.00    -0.165 C  
HETATM   13  C   UNL     1      -8.826   6.668  68.868  1.00  0.00    -0.131 C  
BRANCH  12  14
HETATM   14  C   UNL     1     -10.696   6.505  67.214  1.00  0.00    -0.356 C  
HETATM   15  H1  UNL     1     -11.905   5.366  65.651  1.00  0.00     0.000 HD 
HETATM   16  N   UNL     1     -11.364   5.875  66.350  1.00  0.00    -0.669 NA 
HETATM   17  H2  UNL     1     -11.608   4.885  66.389  1.00  0.00     0.000 HD 
ENDBRANCH  12  14
BRANCH  13  18
HETATM   18  C   UNL     1      -8.045   7.374  69.918  1.00  0.00    -0.126 A  
HETATM   19  C   UNL     1      -8.440   7.299  71.259  1.00  0.00    -0.115 A  
HETATM   20  C   UNL     1      -6.932   8.156  69.580  1.00  0.00    -0.049 A  
HETATM   21  C   UNL     1      -6.286   8.926  70.550  1.00  0.00    -0.042 A  
HETATM   22  C   UNL     1      -6.718   8.886  71.871  1.00  0.00    -0.025 A  
HETATM   23  C   UNL     1      -7.775   8.053  72.230  1.00  0.00    -0.140 A  
ENDBRANCH  13  18
BRANCH  13  24
HETATM   24  C   UNL     1      -8.397   5.311  68.425  1.00  0.00    -0.093 A  
HETATM   25  C   UNL     1      -7.081   3.924  66.920  1.00  0.00    -0.063 A  
HETATM   26  C   UNL     1      -7.484   5.185  67.365  1.00  0.00    -0.083 A  
HETATM   27  C   UNL     1      -7.555   2.775  67.544  1.00  0.00    -0.061 A  
HETATM   28  C   UNL     1      -8.471   2.887  68.592  1.00  0.00    -0.095 A  
HETATM   29  C   UNL     1      -8.893   4.154  69.031  1.00  0.00    -0.141 A  
BRANCH  27  30
HETATM   30  O   UNL     1      -7.110   1.595  67.006  1.00  0.00    -0.044 OA 
HETATM   31  C   UNL     1      -5.946   1.674  66.192  1.00  0.00    -0.018 C  
ENDBRANCH  27  30
ENDBRANCH  13  24
ENDBRANCH  10  12
ENDBRANCH   9  10
ENDBRANCH   7   9
ENDBRANCH   3   4
ENDBRANCH   2   3
TORSDOF 9
ENDMDL
MODEL      174
REMARK 921   NORMALIZED FREE ENERGY PREDICTED BY IDOCK:   -3.10 KCAL/MOL
REMARK 922        TOTAL FREE ENERGY PREDICTED BY IDOCK:   -6.80 KCAL/MOL
REMARK 923 INTER-LIGAND FREE ENERGY PREDICTED BY IDOCK:   -5.30 KCAL/MOL
REMARK 924 INTRA-LIGAND FREE ENERGY PREDICTED BY IDOCK:   -1.51 KCAL/MOL
REMARK 927      BINDING AFFINITY PREDICTED BY RF-SCORE:    0.00 PKD
ROOT
HETATM    1  C   UNL     1      -9.187  15.883  65.921  1.00  0.00    -0.332 C  
HETATM    2  C   UNL     1     -10.507  15.392  65.341  1.00  0.00    -0.426 C  
ENDROOT
BRANCH   2   3
HETATM    3  C   UNL     1     -10.598  13.872  65.434  1.00  0.00    -0.344 C  
BRANCH   3   4
HETATM    4  C   UNL     1     -10.994  13.392  66.834  1.00  0.00    -0.295 C  
HETATM    5  C   UNL     1     -10.289  12.076  67.223  1.00  0.00    -0.232 C  
HETATM    6  C   UNL     1      -8.744  12.157  67.144  1.00  0.00    -0.190 C  
HETATM    7  C   UNL     1     -10.785  11.578  68.594  1.00  0.00    -0.207 C  
HETATM    8  C   UNL     1      -8.100  13.171  68.080  1.00  0.00    -0.157 C  
BRANCH   7   9
HETATM    9  O   UNL     1     -10.120  10.338  68.882  1.00  0.00    -0.184 OA 
BRANCH   9  10
HETATM   10  C   UNL     1     -10.528   9.209  68.260  1.00  0.00    -0.208 C  
HETATM   11  O   UNL     1     -10.859   9.120  67.088  1.00  0.00    -0.212 OA 
BRANCH  10  12
HETATM   12  C   UNL     1     -10.297   8.033  69.147  1.00  0.00    -0.226 C  
HETATM   13  C   UNL     1      -9.182   7.247  69.161  1.00  0.00    -0.139 C  
BRANCH  12  14
HETATM   14  C   UNL     1     -11.514   7.648  69.972  1.00  0.00     0.005 C  
HETATM   15  H1  UNL     1     -13.341   7.071  71.210  1.00  0.00     0.000 HD 
HETATM   16  N   UNL     1     -12.525   7.329  70.656  1.00  0.00    -0.591 NA 
HETATM   17  H2  UNL     1     -13.410   7.834  70.685  1.00  0.00     0.000 HD 
ENDBRANCH  12  14
BRANCH  13  18
HETATM   18  C   UNL     1      -7.965   7.621  68.393  1.00  0.00    -0.123 A  
HETATM   19  C   UNL     1      -6.952   8.371  69.002  1.00  0.00    -0.061 A  
HETATM   20  C   UNL     1      -7.830   7.267  67.044  1.00  0.00    -0.112 A  
HETATM   21  C   UNL     1      -6.751   7.736  66.291  1.00  0.00    -0.054 A  
HETATM   22  C   UNL     1      -5.776   8.526  66.891  1.00  0.00    -0.041 A  
HETATM   23  C   UNL     1      -5.861   8.820  68.251  1.00  0.00    -0.042 A  
ENDBRANCH  13  18
BRANCH  13  24
HETATM   24  C   UNL     1      -9.212   5.954  69.902  1.00  0.00    -0.163 A  
HETATM   25  C   UNL     1      -9.758   3.583  69.946  1.00  0.00    -0.131 A  
HETATM   26  C   UNL     1      -9.704   4.802  69.266  1.00  0.00    -0.266 A  
HETATM   27  C   UNL     1      -9.295   3.488  71.254  1.00  0.00    -0.139 A  
HETATM   28  C   UNL     1      -8.813   4.628  71.900  1.00  0.00    -0.139 A  
HETATM   29  C   UNL     1      -8.773   5.860  71.225  1.00  0.00    -0.132 A  
BRANCH  27  30
HETATM   30  O   UNL     1      -9.421   2.249  71.826  1.00  0.00    -0.098 OA 
HETATM   31  C   UNL     1      -8.376   1.852  72.706  1.00  0.00    -0.058 C  
ENDBRANCH  27  30
ENDBRANCH  13  24
ENDBRANCH  10  12
ENDBRANCH   9  10
ENDBRANCH   7   9
ENDBRANCH   3   4
ENDBRANCH   2   3
TORSDOF 9
ENDMDL
MODEL      175
REMARK 921   NORMALIZED FREE ENERGY PREDICTED BY IDOCK:   -3.09 KCAL/MOL
REMARK 922        TOTAL FREE ENERGY PREDICTED BY IDOCK:   -6.78 KCAL/MOL
REMARK 923 INTER-LIGAND FREE ENERGY PREDICTED BY IDOCK:   -4.82 KCAL/MOL
REMARK 924 INTRA-LIGAND FREE ENERGY PREDICTED BY IDOCK:   -1.97 KCAL/MOL
REMARK 927      BINDING AFFINITY PREDICTED BY RF-SCORE:    0.00 PKD
ROOT
HETATM    1  C   UNL     1     -10.016  15.240  68.731  1.00  0.00    -0.215 C  
HETATM    2  C   UNL     1     -11.213  15.338  67.795  1.00  0.00    -0.327 C  
ENDROOT
BRANCH   2   3
HETATM    3  C   UNL     1     -12.139  14.140  67.986  1.00  0.00    -0.303 C  
BRANCH   3   4
HETATM    4  C   UNL     1     -11.488  13.020  68.803  1.00  0.00    -0.340 C  
HETATM    5  C   UNL     1     -11.345  11.714  67.995  1.00  0.00    -0.366 C  
HETATM    6  C   UNL     1     -10.555  11.888  66.673  1.00  0.00    -0.273 C  
HETATM    7  C   UNL     1     -10.776  10.586  68.877  1.00  0.00    -0.220 C  
HETATM    8  C   UNL     1      -9.110  12.340  66.839  1.00  0.00    -0.208 C  
BRANCH   7   9
HETATM    9  O   UNL     1     -10.700   9.394  68.081  1.00  0.00    -0.224 OA 
BRANCH   9  10
HETATM   10  C   UNL     1     -10.656   8.190  68.695  1.00  0.00    -0.109 C  
HETATM   11  O   UNL     1     -11.384   7.827  69.605  1.00  0.00    -0.033 OA 
BRANCH  10  12
HETATM   12  C   UNL     1      -9.743   7.277  67.950  1.00  0.00    -0.161 C  
HETATM   13  C   UNL     1      -8.381   7.346  67.931  1.00  0.00    -0.119 C  
BRANCH  12  14
HETATM   14  C   UNL     1     -10.472   6.307  67.034  1.00  0.00    -0.278 C  
HETATM   15  H1  UNL     1     -11.564   4.851  65.659  1.00  0.00     0.000 HD 
HETATM   16  N   UNL     1     -11.076   5.502  66.274  1.00  0.00    -0.770 NA 
HETATM   17  H2  UNL     1     -10.657   4.980  65.504  1.00  0.00     0.000 HD 
ENDBRANCH  12  14
BRANCH  13  18
HETATM   18  C   UNL     1      -7.642   8.258  68.844  1.00  0.00    -0.093 A  
HETATM   19  C   UNL     1      -7.422   7.894  70.178  1.00  0.00    -0.078 A  
HETATM   20  C   UNL     1      -7.192   9.509  68.399  1.00  0.00    -0.075 A  
HETATM   21  C   UNL     1      -6.622  10.417  69.294  1.00  0.00    -0.056 A  
HETATM   22  C   UNL     1      -6.455  10.067  70.630  1.00  0.00    -0.098 A  
HETATM   23  C   UNL     1      -6.829   8.797  71.065  1.00  0.00    -0.074 A  
ENDBRANCH  13  18
BRANCH  13  24
HETATM   24  C   UNL     1      -7.625   6.544  66.929  1.00  0.00    -0.095 A  
HETATM   25  C   UNL     1      -6.727   6.323  64.677  1.00  0.00    -0.038 A  
HETATM   26  C   UNL     1      -7.418   7.064  65.640  1.00  0.00    -0.085 A  
HETATM   27  C   UNL     1      -6.207   5.073  64.994  1.00  0.00    -0.034 A  
HETATM   28  C   UNL     1      -6.414   4.542  66.268  1.00  0.00    -0.041 A  
HETATM   29  C   UNL     1      -7.124   5.276  67.234  1.00  0.00    -0.070 A  
BRANCH  27  30
HETATM   30  O   UNL     1      -5.571   4.430  63.964  1.00  0.00    -0.013 OA 
HETATM   31  C   UNL     1      -6.302   4.312  62.748  1.00  0.00    -0.022 C  
ENDBRANCH  27  30
ENDBRANCH  13  24
ENDBRANCH  10  12
ENDBRANCH   9  10
ENDBRANCH   7   9
ENDBRANCH   3   4
ENDBRANCH   2   3
TORSDOF 9
ENDMDL
MODEL      176
REMARK 921   NORMALIZED FREE ENERGY PREDICTED BY IDOCK:   -3.07 KCAL/MOL
REMARK 922        TOTAL FREE ENERGY PREDICTED BY IDOCK:   -6.75 KCAL/MOL
REMARK 923 INTER-LIGAND FREE ENERGY PREDICTED BY IDOCK:   -5.25 KCAL/MOL
REMARK 924 INTRA-LIGAND FREE ENERGY PREDICTED BY IDOCK:   -1.50 KCAL/MOL
REMARK 927      BINDING AFFINITY PREDICTED BY RF-SCORE:    0.00 PKD
ROOT
HETATM    1  C   UNL     1     -11.092  20.126  66.097  1.00  0.00     0.299 C  
HETATM    2  C   UNL     1     -10.155  20.338  67.278  1.00  0.00    -0.545 C  
ENDROOT
BRANCH   2   3
HETATM    3  C   UNL     1      -9.863  19.010  67.971  1.00  0.00    -0.414 C  
BRANCH   3   4
HETATM    4  C   UNL     1      -8.747  18.221  67.279  1.00  0.00    -0.255 C  
HETATM    5  C   UNL     1      -9.016  16.703  67.283  1.00  0.00    -0.211 C  
HETATM    6  C   UNL     1     -10.371  16.315  66.639  1.00  0.00    -0.302 C  
HETATM    7  C   UNL     1      -7.830  15.938  66.665  1.00  0.00    -0.201 C  
HETATM    8  C   UNL     1     -10.516  16.678  65.167  1.00  0.00    -0.117 C  
BRANCH   7   9
HETATM    9  O   UNL     1      -8.125  14.534  66.728  1.00  0.00    -0.077 OA 
BRANCH   9  10
HETATM   10  C   UNL     1      -7.435  13.751  67.588  1.00  0.00    -0.178 C  
HETATM   11  O   UNL     1      -6.569  14.131  68.359  1.00  0.00    -0.089 OA 
BRANCH  10  12
HETATM   12  C   UNL     1      -8.044  12.391  67.630  1.00  0.00    -0.168 C  
HETATM   13  C   UNL     1      -9.277  12.080  68.125  1.00  0.00    -0.195 C  
BRANCH  12  14
HETATM   14  C   UNL     1      -7.090  11.286  67.208  1.00  0.00    -0.114 C  
HETATM   15  H1  UNL     1      -5.657   9.629  66.573  1.00  0.00     0.000 HD 
HETATM   16  N   UNL     1      -6.297  10.370  66.857  1.00  0.00    -0.068 NA 
HETATM   17  H2  UNL     1      -5.870  10.271  65.936  1.00  0.00     0.000 HD 
ENDBRANCH  12  14
BRANCH  13  18
HETATM   18  C   UNL     1     -10.244  13.142  68.509  1.00  0.00    -0.218 A  
HETATM   19  C   UNL     1      -9.886  14.114  69.452  1.00  0.00     0.288 A  
HETATM   20  C   UNL     1     -11.538  13.164  67.970  1.00  0.00    -0.371 A  
HETATM   21  C   UNL     1     -12.485  14.079  68.435  1.00  0.00     0.231 A  
HETATM   22  C   UNL     1     -12.136  15.007  69.410  1.00  0.00    -0.290 A  
HETATM   23  C   UNL     1     -10.831  15.043  69.897  1.00  0.00    -0.266 A  
ENDBRANCH  13  18
BRANCH  13  24
HETATM   24  C   UNL     1      -9.632  10.651  68.351  1.00  0.00    -0.170 A  
HETATM   25  C   UNL     1     -10.223   8.475  67.434  1.00  0.00    -0.329 A  
HETATM   26  C   UNL     1      -9.872   9.815  67.247  1.00  0.00    -0.228 A  
HETATM   27  C   UNL     1     -10.308   7.944  68.716  1.00  0.00    -0.203 A  
HETATM   28  C   UNL     1     -10.081   8.767  69.820  1.00  0.00    -0.198 A  
HETATM   29  C   UNL     1      -9.745  10.119  69.638  1.00  0.00    -0.250 A  
BRANCH  27  30
HETATM   30  O   UNL     1     -10.685   6.627  68.775  1.00  0.00    -0.217 OA 
HETATM   31  C   UNL     1     -11.431   6.236  69.922  1.00  0.00    -0.389 C  
ENDBRANCH  27  30
ENDBRANCH  13  24
ENDBRANCH  10  12
ENDBRANCH   9  10
ENDBRANCH   7   9
ENDBRANCH   3   4
ENDBRANCH   2   3
TORSDOF 9
ENDMDL
MODEL      177
REMARK 921   NORMALIZED FREE ENERGY PREDICTED BY IDOCK:   -3.01 KCAL/MOL
REMARK 922        TOTAL FREE ENERGY PREDICTED BY IDOCK:   -6.67 KCAL/MOL
REMARK 923 INTER-LIGAND FREE ENERGY PREDICTED BY IDOCK:   -5.83 KCAL/MOL
REMARK 924 INTRA-LIGAND FREE ENERGY PREDICTED BY IDOCK:   -0.83 KCAL/MOL
REMARK 927      BINDING AFFINITY PREDICTED BY RF-SCORE:    0.00 PKD
ROOT
HETATM    1  C   UNL     1     -12.540  16.150  74.297  1.00  0.00    -0.633 C  
HETATM    2  C   UNL     1     -12.386  15.538  72.911  1.00  0.00    -0.535 C  
ENDROOT
BRANCH   2   3
HETATM    3  C   UNL     1     -13.737  15.063  72.384  1.00  0.00    -0.585 C  
BRANCH   3   4
HETATM    4  C   UNL     1     -13.655  14.541  70.947  1.00  0.00    -0.196 C  
HETATM    5  C   UNL     1     -12.419  13.647  70.718  1.00  0.00    -0.432 C  
HETATM    6  C   UNL     1     -12.340  12.442  71.689  1.00  0.00     0.188 C  
HETATM    7  C   UNL     1     -12.319  13.222  69.241  1.00  0.00    -0.008 C  
HETATM    8  C   UNL     1     -13.493  11.452  71.587  1.00  0.00    -0.110 C  
BRANCH   7   9
HETATM    9  O   UNL     1     -11.135  12.424  69.087  1.00  0.00    -0.244 OA 
BRANCH   9  10
HETATM   10  C   UNL     1     -10.462  12.460  67.915  1.00  0.00    -0.215 C  
HETATM   11  O   UNL     1     -10.718  11.793  66.925  1.00  0.00    -0.229 OA 
BRANCH  10  12
HETATM   12  C   UNL     1      -9.502  13.600  67.920  1.00  0.00    -0.213 C  
HETATM   13  C   UNL     1      -8.153  13.511  68.102  1.00  0.00    -0.154 C  
BRANCH  12  14
HETATM   14  C   UNL     1     -10.177  14.961  67.865  1.00  0.00    -0.228 C  
HETATM   15  H1  UNL     1     -11.189  17.003  67.783  1.00  0.00     0.000 HD 
HETATM   16  N   UNL     1     -10.737  16.090  67.820  1.00  0.00    -0.316 NA 
HETATM   17  H2  UNL     1     -10.591  16.856  68.478  1.00  0.00     0.000 HD 
ENDBRANCH  12  14
BRANCH  13  18
HETATM   18  C   UNL     1      -7.463  12.194  68.121  1.00  0.00    -0.114 A  
HETATM   19  C   UNL     1      -6.560  11.857  67.105  1.00  0.00    -0.148 A  
HETATM   20  C   UNL     1      -7.734  11.256  69.127  1.00  0.00    -0.047 A  
HETATM   21  C   UNL     1      -7.189   9.972  69.065  1.00  0.00    -0.076 A  
HETATM   22  C   UNL     1      -6.334   9.628  68.022  1.00  0.00    -0.056 A  
HETATM   23  C   UNL     1      -5.998  10.578  67.060  1.00  0.00    -0.053 A  
ENDBRANCH  13  18
BRANCH  13  24
HETATM   24  C   UNL     1      -7.368  14.752  68.356  1.00  0.00    -0.116 A  
HETATM   25  C   UNL     1      -6.347  16.290  69.942  1.00  0.00    -0.131 A  
HETATM   26  C   UNL     1      -7.066  15.121  69.678  1.00  0.00    -0.193 A  
HETATM   27  C   UNL     1      -5.893  17.087  68.897  1.00  0.00    -0.150 A  
HETATM   28  C   UNL     1      -6.196  16.735  67.580  1.00  0.00    -0.188 A  
HETATM   29  C   UNL     1      -6.934  15.570  67.310  1.00  0.00    -0.206 A  
BRANCH  27  30
HETATM   30  O   UNL     1      -5.221  18.219  69.278  1.00  0.00    -0.185 OA 
HETATM   31  C   UNL     1      -6.024  19.334  69.645  1.00  0.00    -0.259 C  
ENDBRANCH  27  30
ENDBRANCH  13  24
ENDBRANCH  10  12
ENDBRANCH   9  10
ENDBRANCH   7   9
ENDBRANCH   3   4
ENDBRANCH   2   3
TORSDOF 9
ENDMDL
MODEL      178
REMARK 921   NORMALIZED FREE ENERGY PREDICTED BY IDOCK:   -2.97 KCAL/MOL
REMARK 922        TOTAL FREE ENERGY PREDICTED BY IDOCK:   -6.61 KCAL/MOL
REMARK 923 INTER-LIGAND FREE ENERGY PREDICTED BY IDOCK:   -5.23 KCAL/MOL
REMARK 924 INTRA-LIGAND FREE ENERGY PREDICTED BY IDOCK:   -1.37 KCAL/MOL
REMARK 927      BINDING AFFINITY PREDICTED BY RF-SCORE:    0.00 PKD
ROOT
HETATM    1  C   UNL     1      -5.627   7.023  72.535  1.00  0.00    -0.038 C  
HETATM    2  C   UNL     1      -6.368   5.896  71.829  1.00  0.00    -0.045 C  
ENDROOT
BRANCH   2   3
HETATM    3  C   UNL     1      -7.118   6.430  70.612  1.00  0.00    -0.069 C  
BRANCH   3   4
HETATM    4  C   UNL     1      -8.243   7.396  70.995  1.00  0.00    -0.110 C  
HETATM    5  C   UNL     1      -8.319   8.611  70.048  1.00  0.00    -0.124 C  
HETATM    6  C   UNL     1      -8.484   8.223  68.557  1.00  0.00    -0.126 C  
HETATM    7  C   UNL     1      -9.397   9.605  70.521  1.00  0.00    -0.166 C  
HETATM    8  C   UNL     1      -9.758   7.459  68.225  1.00  0.00    -0.159 C  
BRANCH   7   9
HETATM    9  O   UNL     1      -9.395  10.725  69.622  1.00  0.00     0.002 OA 
BRANCH   9  10
HETATM   10  C   UNL     1     -10.551  11.097  69.028  1.00  0.00    -0.218 C  
HETATM   11  O   UNL     1     -11.605  10.482  69.070  1.00  0.00    -0.255 OA 
BRANCH  10  12
HETATM   12  C   UNL     1     -10.422  12.486  68.503  1.00  0.00    -0.246 C  
HETATM   13  C   UNL     1      -9.305  13.030  67.940  1.00  0.00    -0.212 C  
BRANCH  12  14
HETATM   14  C   UNL     1     -11.633  13.358  68.793  1.00  0.00    -0.325 C  
HETATM   15  H1  UNL     1     -13.450  14.667  69.228  1.00  0.00     0.000 HD 
HETATM   16  N   UNL     1     -12.638  14.082  69.034  1.00  0.00    -0.334 NA 
HETATM   17  H2  UNL     1     -12.836  14.988  68.609  1.00  0.00     0.000 HD 
ENDBRANCH  12  14
BRANCH  13  18
HETATM   18  C   UNL     1      -8.122  12.192  67.611  1.00  0.00    -0.158 A  
HETATM   19  C   UNL     1      -8.119  11.400  66.456  1.00  0.00    -0.141 A  
HETATM   20  C   UNL     1      -7.012  12.149  68.466  1.00  0.00    -0.091 A  
HETATM   21  C   UNL     1      -5.964  11.259  68.224  1.00  0.00    -0.045 A  
HETATM   22  C   UNL     1      -5.994  10.437  67.102  1.00  0.00    -0.050 A  
HETATM   23  C   UNL     1      -7.056  10.528  66.205  1.00  0.00    -0.135 A  
ENDBRANCH  13  18
BRANCH  13  24
HETATM   24  C   UNL     1      -9.244  14.502  67.718  1.00  0.00    -0.194 A  
HETATM   25  C   UNL     1      -9.092  16.750  68.639  1.00  0.00    -0.254 A  
HETATM   26  C   UNL     1      -9.133  15.365  68.821  1.00  0.00    -0.207 A  
HETATM   27  C   UNL     1      -9.129  17.291  67.359  1.00  0.00    -0.226 A  
HETATM   28  C   UNL     1      -9.248  16.444  66.255  1.00  0.00    -0.350 A  
HETATM   29  C   UNL     1      -9.308  15.051  66.435  1.00  0.00    -0.334 A  
BRANCH  27  30
HETATM   30  O   UNL     1      -9.107  18.660  67.306  1.00  0.00    -0.272 OA 
HETATM   31  C   UNL     1      -8.447  19.322  68.378  1.00  0.00    -0.351 C  
ENDBRANCH  27  30
ENDBRANCH  13  24
ENDBRANCH  10  12
ENDBRANCH   9  10
ENDBRANCH   7   9
ENDBRANCH   3   4
ENDBRANCH   2   3
TORSDOF 9
ENDMDL
MODEL      179
REMARK 921   NORMALIZED FREE ENERGY PREDICTED BY IDOCK:   -2.93 KCAL/MOL
REMARK 922        TOTAL FREE ENERGY PREDICTED BY IDOCK:   -6.55 KCAL/MOL
REMARK 923 INTER-LIGAND FREE ENERGY PREDICTED BY IDOCK:   -5.07 KCAL/MOL
REMARK 924 INTRA-LIGAND FREE ENERGY PREDICTED BY IDOCK:   -1.48 KCAL/MOL
REMARK 927      BINDING AFFINITY PREDICTED BY RF-SCORE:    0.00 PKD
ROOT
HETATM    1  C   UNL     1     -12.572  15.269  74.050  1.00  0.00    -0.695 C  
HETATM    2  C   UNL     1     -12.974  15.353  72.584  1.00  0.00    -0.521 C  
ENDROOT
BRANCH   2   3
HETATM    3  C   UNL     1     -13.836  14.155  72.198  1.00  0.00    -0.613 C  
BRANCH   3   4
HETATM    4  C   UNL     1     -13.344  13.465  70.922  1.00  0.00     0.086 C  
HETATM    5  C   UNL     1     -12.351  12.323  71.220  1.00  0.00    -0.161 C  
HETATM    6  C   UNL     1     -12.918  11.247  72.179  1.00  0.00    -0.208 C  
HETATM    7  C   UNL     1     -11.807  11.719  69.911  1.00  0.00    -0.348 C  
HETATM    8  C   UNL     1     -14.143  10.501  71.664  1.00  0.00     0.681 C  
BRANCH   7   9
HETATM    9  O   UNL     1     -10.867  10.689  70.255  1.00  0.00    -0.248 OA 
BRANCH   9  10
HETATM   10  C   UNL     1     -10.815   9.565  69.505  1.00  0.00    -0.222 C  
HETATM   11  O   UNL     1     -10.963   9.509  68.294  1.00  0.00    -0.182 OA 
BRANCH  10  12
HETATM   12  C   UNL     1     -10.319   8.430  70.333  1.00  0.00    -0.219 C  
HETATM   13  C   UNL     1      -9.185   7.707  70.105  1.00  0.00    -0.154 C  
BRANCH  12  14
HETATM   14  C   UNL     1     -11.293   8.001  71.419  1.00  0.00    -0.256 C  
HETATM   15  H1  UNL     1     -12.754   7.359  73.048  1.00  0.00     0.000 HD 
HETATM   16  N   UNL     1     -12.101   7.646  72.320  1.00  0.00    -0.439 NA 
HETATM   17  H2  UNL     1     -12.058   7.920  73.301  1.00  0.00     0.000 HD 
ENDBRANCH  12  14
BRANCH  13  18
HETATM   18  C   UNL     1      -8.197   8.126  69.076  1.00  0.00    -0.127 A  
HETATM   19  C   UNL     1      -8.234   7.566  67.793  1.00  0.00    -0.119 A  
HETATM   20  C   UNL     1      -7.191   9.053  69.382  1.00  0.00    -0.057 A  
HETATM   21  C   UNL     1      -6.185   9.340  68.457  1.00  0.00    -0.049 A  
HETATM   22  C   UNL     1      -6.200   8.738  67.203  1.00  0.00    -0.059 A  
HETATM   23  C   UNL     1      -7.239   7.874  66.862  1.00  0.00    -0.089 A  
ENDBRANCH  13  18
BRANCH  13  24
HETATM   24  C   UNL     1      -8.968   6.436  70.853  1.00  0.00    -0.144 A  
HETATM   25  C   UNL     1      -9.581   4.114  71.248  1.00  0.00    -0.242 A  
HETATM   26  C   UNL     1      -9.753   5.311  70.548  1.00  0.00    -0.254 A  
HETATM   27  C   UNL     1      -8.606   4.011  72.234  1.00  0.00    -0.105 A  
HETATM   28  C   UNL     1      -7.827   5.125  72.552  1.00  0.00    -0.101 A  
HETATM   29  C   UNL     1      -8.009   6.337  71.863  1.00  0.00    -0.102 A  
BRANCH  27  30
HETATM   30  O   UNL     1      -8.546   2.798  72.868  1.00  0.00    -0.070 OA 
HETATM   31  C   UNL     1      -8.346   1.661  72.036  1.00  0.00    -0.048 C  
ENDBRANCH  27  30
ENDBRANCH  13  24
ENDBRANCH  10  12
ENDBRANCH   9  10
ENDBRANCH   7   9
ENDBRANCH   3   4
ENDBRANCH   2   3
TORSDOF 9
ENDMDL
MODEL      180
REMARK 921   NORMALIZED FREE ENERGY PREDICTED BY IDOCK:   -2.90 KCAL/MOL
REMARK 922        TOTAL FREE ENERGY PREDICTED BY IDOCK:   -6.50 KCAL/MOL
REMARK 923 INTER-LIGAND FREE ENERGY PREDICTED BY IDOCK:   -4.94 KCAL/MOL
REMARK 924 INTRA-LIGAND FREE ENERGY PREDICTED BY IDOCK:   -1.56 KCAL/MOL
REMARK 927      BINDING AFFINITY PREDICTED BY RF-SCORE:    0.00 PKD
ROOT
HETATM    1  C   UNL     1     -11.004  14.130  64.362  1.00  0.00    -0.240 C  
HETATM    2  C   UNL     1     -11.277  12.637  64.487  1.00  0.00    -0.375 C  
ENDROOT
BRANCH   2   3
HETATM    3  C   UNL     1     -11.907  12.321  65.840  1.00  0.00    -0.420 C  
BRANCH   3   4
HETATM    4  C   UNL     1     -10.891  12.368  66.986  1.00  0.00    -0.282 C  
HETATM    5  C   UNL     1     -10.492  10.960  67.472  1.00  0.00    -0.252 C  
HETATM    6  C   UNL     1      -9.930  10.055  66.347  1.00  0.00    -0.300 C  
HETATM    7  C   UNL     1      -9.546  11.050  68.684  1.00  0.00    -0.195 C  
HETATM    8  C   UNL     1      -8.652  10.559  65.689  1.00  0.00    -0.182 C  
BRANCH   7   9
HETATM    9  O   UNL     1      -9.239   9.713  69.109  1.00  0.00    -0.153 OA 
BRANCH   9  10
HETATM   10  C   UNL     1     -10.161   9.013  69.807  1.00  0.00    -0.205 C  
HETATM   11  O   UNL     1     -11.372   9.144  69.719  1.00  0.00    -0.126 OA 
BRANCH  10  12
HETATM   12  C   UNL     1      -9.499   7.893  70.534  1.00  0.00    -0.162 C  
HETATM   13  C   UNL     1      -8.856   6.835  69.961  1.00  0.00    -0.142 C  
BRANCH  12  14
HETATM   14  C   UNL     1      -9.734   7.922  72.035  1.00  0.00    -0.187 C  
HETATM   15  H1  UNL     1     -10.087   7.965  74.289  1.00  0.00     0.000 HD 
HETATM   16  N   UNL     1      -9.929   7.946  73.281  1.00  0.00    -0.303 NA 
HETATM   17  H2  UNL     1      -9.282   7.607  73.993  1.00  0.00     0.000 HD 
ENDBRANCH  12  14
BRANCH  13  18
HETATM   18  C   UNL     1      -8.580   6.800  68.501  1.00  0.00    -0.125 A  
HETATM   19  C   UNL     1      -7.361   7.276  68.002  1.00  0.00    -0.097 A  
HETATM   20  C   UNL     1      -9.544   6.332  67.598  1.00  0.00    -0.118 A  
HETATM   21  C   UNL     1      -9.334   6.428  66.221  1.00  0.00    -0.149 A  
HETATM   22  C   UNL     1      -8.140   6.952  65.734  1.00  0.00    -0.123 A  
HETATM   23  C   UNL     1      -7.144   7.349  66.624  1.00  0.00    -0.075 A  
ENDBRANCH  13  18
BRANCH  13  24
HETATM   24  C   UNL     1      -8.489   5.663  70.804  1.00  0.00    -0.124 A  
HETATM   25  C   UNL     1      -6.869   4.544  72.234  1.00  0.00    -0.051 A  
HETATM   26  C   UNL     1      -7.243   5.640  71.452  1.00  0.00    -0.077 A  
HETATM   27  C   UNL     1      -7.740   3.474  72.406  1.00  0.00    -0.063 A  
HETATM   28  C   UNL     1      -8.977   3.481  71.759  1.00  0.00    -0.154 A  
HETATM   29  C   UNL     1      -9.351   4.574  70.957  1.00  0.00    -0.214 A  
BRANCH  27  30
HETATM   30  O   UNL     1      -7.255   2.446  73.173  1.00  0.00    -0.034 OA 
HETATM   31  C   UNL     1      -5.839   2.336  73.255  1.00  0.00    -0.007 C  
ENDBRANCH  27  30
ENDBRANCH  13  24
ENDBRANCH  10  12
ENDBRANCH   9  10
ENDBRANCH   7   9
ENDBRANCH   3   4
ENDBRANCH   2   3
TORSDOF 9
ENDMDL
MODEL      181
REMARK 921   NORMALIZED FREE ENERGY PREDICTED BY IDOCK:   -2.90 KCAL/MOL
REMARK 922        TOTAL FREE ENERGY PREDICTED BY IDOCK:   -6.49 KCAL/MOL
REMARK 923 INTER-LIGAND FREE ENERGY PREDICTED BY IDOCK:   -6.74 KCAL/MOL
REMARK 924 INTRA-LIGAND FREE ENERGY PREDICTED BY IDOCK:    0.25 KCAL/MOL
REMARK 927      BINDING AFFINITY PREDICTED BY RF-SCORE:    0.00 PKD
ROOT
HETATM    1  C   UNL     1     -10.498  11.073  63.652  1.00  0.00    -0.388 C  
HETATM    2  C   UNL     1     -11.868  11.601  63.250  1.00  0.00    -0.232 C  
ENDROOT
BRANCH   2   3
HETATM    3  C   UNL     1     -11.869  13.126  63.235  1.00  0.00    -0.371 C  
BRANCH   3   4
HETATM    4  C   UNL     1     -10.917  13.723  64.276  1.00  0.00    -0.268 C  
HETATM    5  C   UNL     1     -11.648  14.631  65.286  1.00  0.00    -0.354 C  
HETATM    6  C   UNL     1     -12.809  13.921  66.026  1.00  0.00    -0.302 C  
HETATM    7  C   UNL     1     -10.645  15.287  66.254  1.00  0.00    -0.309 C  
HETATM    8  C   UNL     1     -12.399  12.729  66.881  1.00  0.00     0.116 C  
BRANCH   7   9
HETATM    9  O   UNL     1     -11.381  16.142  67.144  1.00  0.00    -0.044 OA 
BRANCH   9  10
HETATM   10  C   UNL     1     -10.909  16.360  68.392  1.00  0.00    -0.342 C  
HETATM   11  O   UNL     1     -10.360  17.379  68.778  1.00  0.00    -0.337 OA 
BRANCH  10  12
HETATM   12  C   UNL     1     -11.360  15.266  69.299  1.00  0.00    -0.308 C  
HETATM   13  C   UNL     1     -10.757  14.052  69.451  1.00  0.00    -0.085 C  
BRANCH  12  14
HETATM   14  C   UNL     1     -12.698  15.544  69.964  1.00  0.00    -0.111 C  
HETATM   15  H1  UNL     1     -14.706  15.960  70.963  1.00  0.00     0.000 HD 
HETATM   16  N   UNL     1     -13.808  15.774  70.516  1.00  0.00    -0.463 NA 
HETATM   17  H2  UNL     1     -14.084  15.471  71.451  1.00  0.00     0.000 HD 
ENDBRANCH  12  14
BRANCH  13  18
HETATM   18  C   UNL     1      -9.430  13.768  68.843  1.00  0.00     0.081 A  
HETATM   19  C   UNL     1      -9.279  12.703  67.947  1.00  0.00    -0.201 A  
HETATM   20  C   UNL     1      -8.305  14.531  69.186  1.00  0.00    -0.001 A  
HETATM   21  C   UNL     1      -7.038  14.176  68.719  1.00  0.00    -0.107 A  
HETATM   22  C   UNL     1      -6.889  13.083  67.871  1.00  0.00    -0.130 A  
HETATM   23  C   UNL     1      -8.012  12.365  67.464  1.00  0.00    -0.173 A  
ENDBRANCH  13  18
BRANCH  13  24
HETATM   24  C   UNL     1     -11.475  12.969  70.180  1.00  0.00    -0.009 A  
HETATM   25  C   UNL     1     -12.912  12.287  72.022  1.00  0.00    -0.375 A  
HETATM   26  C   UNL     1     -12.245  13.288  71.311  1.00  0.00    -0.117 A  
HETATM   27  C   UNL     1     -12.850  10.964  71.598  1.00  0.00    -0.449 A  
HETATM   28  C   UNL     1     -12.080  10.633  70.481  1.00  0.00    -0.448 A  
HETATM   29  C   UNL     1     -11.392  11.634  69.774  1.00  0.00    -0.276 A  
BRANCH  27  30
HETATM   30  O   UNL     1     -13.523  10.069  72.387  1.00  0.00    -0.364 OA 
HETATM   31  C   UNL     1     -13.145   8.704  72.256  1.00  0.00    -0.372 C  
ENDBRANCH  27  30
ENDBRANCH  13  24
ENDBRANCH  10  12
ENDBRANCH   9  10
ENDBRANCH   7   9
ENDBRANCH   3   4
ENDBRANCH   2   3
TORSDOF 9
ENDMDL
MODEL      182
REMARK 921   NORMALIZED FREE ENERGY PREDICTED BY IDOCK:   -2.89 KCAL/MOL
REMARK 922        TOTAL FREE ENERGY PREDICTED BY IDOCK:   -6.48 KCAL/MOL
REMARK 923 INTER-LIGAND FREE ENERGY PREDICTED BY IDOCK:   -5.30 KCAL/MOL
REMARK 924 INTRA-LIGAND FREE ENERGY PREDICTED BY IDOCK:   -1.18 KCAL/MOL
REMARK 927      BINDING AFFINITY PREDICTED BY RF-SCORE:    0.00 PKD
ROOT
HETATM    1  C   UNL     1      -7.109  13.241  68.312  1.00  0.00    -0.109 C  
HETATM    2  C   UNL     1      -7.221  11.729  68.173  1.00  0.00    -0.086 C  
ENDROOT
BRANCH   2   3
HETATM    3  C   UNL     1      -7.189  11.063  69.545  1.00  0.00    -0.091 C  
BRANCH   3   4
HETATM    4  C   UNL     1      -7.577   9.582  69.487  1.00  0.00    -0.096 C  
HETATM    5  C   UNL     1      -8.774   9.254  70.403  1.00  0.00    -0.263 C  
HETATM    6  C   UNL     1     -10.032  10.109  70.104  1.00  0.00    -0.154 C  
HETATM    7  C   UNL     1      -9.072   7.743  70.390  1.00  0.00    -0.155 C  
HETATM    8  C   UNL     1     -10.618   9.933  68.709  1.00  0.00    -0.246 C  
BRANCH   7   9
HETATM    9  O   UNL     1     -10.170   7.499  71.284  1.00  0.00    -0.189 OA 
BRANCH   9  10
HETATM   10  C   UNL     1     -10.912   6.379  71.129  1.00  0.00    -0.275 C  
HETATM   11  O   UNL     1     -11.922   6.102  71.754  1.00  0.00    -0.289 OA 
BRANCH  10  12
HETATM   12  C   UNL     1     -10.453   5.634  69.922  1.00  0.00    -0.378 C  
HETATM   13  C   UNL     1      -9.552   4.609  69.908  1.00  0.00    -0.261 C  
BRANCH  12  14
HETATM   14  C   UNL     1     -10.959   6.224  68.616  1.00  0.00    -0.346 C  
HETATM   15  H1  UNL     1     -11.720   7.111  66.657  1.00  0.00     0.000 HD 
HETATM   16  N   UNL     1     -11.380   6.715  67.533  1.00  0.00    -0.732 NA 
HETATM   17  H2  UNL     1     -12.141   7.387  67.438  1.00  0.00     0.000 HD 
ENDBRANCH  12  14
BRANCH  13  18
HETATM   18  C   UNL     1      -9.070   3.988  71.169  1.00  0.00    -0.180 A  
HETATM   19  C   UNL     1      -9.819   2.981  71.790  1.00  0.00    -0.230 A  
HETATM   20  C   UNL     1      -7.886   4.426  71.778  1.00  0.00    -0.087 A  
HETATM   21  C   UNL     1      -7.509   3.937  73.031  1.00  0.00    -0.073 A  
HETATM   22  C   UNL     1      -8.288   2.975  73.665  1.00  0.00    -0.073 A  
HETATM   23  C   UNL     1      -9.426   2.477  73.033  1.00  0.00    -0.128 A  
ENDBRANCH  13  18
BRANCH  13  24
HETATM   24  C   UNL     1      -8.990   4.152  68.605  1.00  0.00    -0.158 A  
HETATM   25  C   UNL     1      -7.370   4.443  66.812  1.00  0.00    -0.080 A  
HETATM   26  C   UNL     1      -7.903   4.841  68.041  1.00  0.00    -0.082 A  
HETATM   27  C   UNL     1      -7.889   3.337  66.147  1.00  0.00    -0.081 A  
HETATM   28  C   UNL     1      -8.974   2.650  66.694  1.00  0.00    -0.156 A  
HETATM   29  C   UNL     1      -9.525   3.058  67.921  1.00  0.00    -0.210 A  
BRANCH  27  30
HETATM   30  O   UNL     1      -7.302   3.056  64.941  1.00  0.00    -0.067 OA 
HETATM   31  C   UNL     1      -6.471   1.903  64.898  1.00  0.00    -0.023 C  
ENDBRANCH  27  30
ENDBRANCH  13  24
ENDBRANCH  10  12
ENDBRANCH   9  10
ENDBRANCH   7   9
ENDBRANCH   3   4
ENDBRANCH   2   3
TORSDOF 9
ENDMDL
MODEL      183
REMARK 921   NORMALIZED FREE ENERGY PREDICTED BY IDOCK:   -2.82 KCAL/MOL
REMARK 922        TOTAL FREE ENERGY PREDICTED BY IDOCK:   -6.37 KCAL/MOL
REMARK 923 INTER-LIGAND FREE ENERGY PREDICTED BY IDOCK:   -4.76 KCAL/MOL
REMARK 924 INTRA-LIGAND FREE ENERGY PREDICTED BY IDOCK:   -1.61 KCAL/MOL
REMARK 927      BINDING AFFINITY PREDICTED BY RF-SCORE:    0.00 PKD
ROOT
HETATM    1  C   UNL     1     -12.862  11.902  63.414  1.00  0.00    -0.393 C  
HETATM    2  C   UNL     1     -12.181  12.714  64.508  1.00  0.00    -0.514 C  
ENDROOT
BRANCH   2   3
HETATM    3  C   UNL     1     -10.741  13.034  64.116  1.00  0.00    -0.429 C  
BRANCH   3   4
HETATM    4  C   UNL     1      -9.721  12.419  65.080  1.00  0.00    -0.042 C  
HETATM    5  C   UNL     1      -9.753  10.877  65.059  1.00  0.00    -0.319 C  
HETATM    6  C   UNL     1      -9.531  10.274  63.649  1.00  0.00    -0.348 C  
HETATM    7  C   UNL     1      -8.784  10.298  66.107  1.00  0.00    -0.152 C  
HETATM    8  C   UNL     1      -8.183  10.590  63.015  1.00  0.00    -0.137 C  
BRANCH   7   9
HETATM    9  O   UNL     1      -8.885   8.866  66.062  1.00  0.00    -0.150 OA 
BRANCH   9  10
HETATM   10  C   UNL     1      -7.762   8.121  66.174  1.00  0.00    -0.090 C  
HETATM   11  O   UNL     1      -6.764   8.227  65.479  1.00  0.00    -0.054 OA 
BRANCH  10  12
HETATM   12  C   UNL     1      -7.822   7.304  67.419  1.00  0.00    -0.112 C  
HETATM   13  C   UNL     1      -8.019   5.956  67.484  1.00  0.00    -0.102 C  
BRANCH  12  14
HETATM   14  C   UNL     1      -7.806   8.136  68.691  1.00  0.00    -0.114 C  
HETATM   15  H1  UNL     1      -7.781   9.385  70.600  1.00  0.00     0.000 HD 
HETATM   16  N   UNL     1      -7.792   8.827  69.747  1.00  0.00    -0.086 NA 
HETATM   17  H2  UNL     1      -7.264   9.687  69.890  1.00  0.00     0.000 HD 
ENDBRANCH  12  14
BRANCH  13  18
HETATM   18  C   UNL     1      -8.001   5.114  66.259  1.00  0.00    -0.104 A  
HETATM   19  C   UNL     1      -6.810   4.513  65.834  1.00  0.00    -0.058 A  
HETATM   20  C   UNL     1      -9.160   4.942  65.489  1.00  0.00    -0.153 A  
HETATM   21  C   UNL     1      -9.106   4.266  64.268  1.00  0.00    -0.150 A  
HETATM   22  C   UNL     1      -7.906   3.717  63.828  1.00  0.00    -0.084 A  
HETATM   23  C   UNL     1      -6.766   3.816  64.624  1.00  0.00    -0.044 A  
ENDBRANCH  13  18
BRANCH  13  24
HETATM   24  C   UNL     1      -8.329   5.328  68.800  1.00  0.00    -0.092 A  
HETATM   25  C   UNL     1      -9.974   4.699  70.479  1.00  0.00    -0.295 A  
HETATM   26  C   UNL     1      -9.661   5.267  69.242  1.00  0.00    -0.214 A  
HETATM   27  C   UNL     1      -8.972   4.156  71.276  1.00  0.00    -0.114 A  
HETATM   28  C   UNL     1      -7.643   4.218  70.851  1.00  0.00    -0.052 A  
HETATM   29  C   UNL     1      -7.322   4.805  69.615  1.00  0.00    -0.055 A  
BRANCH  27  30
HETATM   30  O   UNL     1      -9.395   3.649  72.477  1.00  0.00    -0.112 OA 
HETATM   31  C   UNL     1     -10.577   4.223  73.022  1.00  0.00    -0.190 C  
ENDBRANCH  27  30
ENDBRANCH  13  24
ENDBRANCH  10  12
ENDBRANCH   9  10
ENDBRANCH   7   9
ENDBRANCH   3   4
ENDBRANCH   2   3
TORSDOF 9
ENDMDL
MODEL      184
REMARK 921   NORMALIZED FREE ENERGY PREDICTED BY IDOCK:   -2.79 KCAL/MOL
REMARK 922        TOTAL FREE ENERGY PREDICTED BY IDOCK:   -6.33 KCAL/MOL
REMARK 923 INTER-LIGAND FREE ENERGY PREDICTED BY IDOCK:   -5.16 KCAL/MOL
REMARK 924 INTRA-LIGAND FREE ENERGY PREDICTED BY IDOCK:   -1.18 KCAL/MOL
REMARK 927      BINDING AFFINITY PREDICTED BY RF-SCORE:    0.00 PKD
ROOT
HETATM    1  C   UNL     1      -8.266   7.381  62.830  1.00  0.00    -0.015 C  
HETATM    2  C   UNL     1      -7.899   6.304  63.841  1.00  0.00    -0.112 C  
ENDROOT
BRANCH   2   3
HETATM    3  C   UNL     1      -7.886   6.880  65.254  1.00  0.00    -0.118 C  
BRANCH   3   4
HETATM    4  C   UNL     1      -8.577   8.245  65.337  1.00  0.00    -0.176 C  
HETATM    5  C   UNL     1      -7.812   9.234  66.240  1.00  0.00    -0.103 C  
HETATM    6  C   UNL     1      -6.339   9.449  65.811  1.00  0.00    -0.068 C  
HETATM    7  C   UNL     1      -8.587  10.559  66.375  1.00  0.00    -0.144 C  
HETATM    8  C   UNL     1      -6.150  10.047  64.423  1.00  0.00    -0.130 C  
BRANCH   7   9
HETATM    9  O   UNL     1      -7.844  11.421  67.251  1.00  0.00    -0.133 OA 
BRANCH   9  10
HETATM   10  C   UNL     1      -8.509  12.302  68.031  1.00  0.00    -0.171 C  
HETATM   11  O   UNL     1      -9.443  12.036  68.770  1.00  0.00    -0.102 OA 
BRANCH  10  12
HETATM   12  C   UNL     1      -7.792  13.609  68.040  1.00  0.00    -0.150 C  
HETATM   13  C   UNL     1      -8.355  14.831  68.264  1.00  0.00    -0.148 C  
BRANCH  12  14
HETATM   14  C   UNL     1      -6.340  13.505  67.602  1.00  0.00    -0.147 C  
HETATM   15  H1  UNL     1      -4.161  13.350  66.945  1.00  0.00     0.000 HD 
HETATM   16  N   UNL     1      -5.135  13.420  67.239  1.00  0.00    -0.314 NA 
HETATM   17  H2  UNL     1      -4.781  12.842  66.476  1.00  0.00     0.000 HD 
ENDBRANCH  12  14
BRANCH  13  18
HETATM   18  C   UNL     1      -9.761  14.958  68.730  1.00  0.00    -0.225 A  
HETATM   19  C   UNL     1     -10.819  14.826  67.822  1.00  0.00    -0.278 A  
HETATM   20  C   UNL     1     -10.050  15.251  70.070  1.00  0.00    -0.178 A  
HETATM   21  C   UNL     1     -11.363  15.505  70.474  1.00  0.00    -0.372 A  
HETATM   22  C   UNL     1     -12.402  15.424  69.553  1.00  0.00    -0.207 A  
HETATM   23  C   UNL     1     -12.134  15.057  68.236  1.00  0.00    -0.110 A  
ENDBRANCH  13  18
BRANCH  13  24
HETATM   24  C   UNL     1      -7.568  16.061  67.969  1.00  0.00    -0.137 A  
HETATM   25  C   UNL     1      -6.084  17.827  68.743  1.00  0.00    -0.195 A  
HETATM   26  C   UNL     1      -6.815  16.663  68.991  1.00  0.00    -0.207 A  
HETATM   27  C   UNL     1      -6.065  18.387  67.470  1.00  0.00    -0.174 A  
HETATM   28  C   UNL     1      -6.816  17.802  66.448  1.00  0.00    -0.285 A  
HETATM   29  C   UNL     1      -7.568  16.642  66.698  1.00  0.00    -0.314 A  
BRANCH  27  30
HETATM   30  O   UNL     1      -5.333  19.540  67.352  1.00  0.00    -0.163 OA 
HETATM   31  C   UNL     1      -5.965  20.735  67.793  1.00  0.00    -0.281 C  
ENDBRANCH  27  30
ENDBRANCH  13  24
ENDBRANCH  10  12
ENDBRANCH   9  10
ENDBRANCH   7   9
ENDBRANCH   3   4
ENDBRANCH   2   3
TORSDOF 9
ENDMDL
MODEL      185
REMARK 921   NORMALIZED FREE ENERGY PREDICTED BY IDOCK:   -2.75 KCAL/MOL
REMARK 922        TOTAL FREE ENERGY PREDICTED BY IDOCK:   -6.27 KCAL/MOL
REMARK 923 INTER-LIGAND FREE ENERGY PREDICTED BY IDOCK:   -4.46 KCAL/MOL
REMARK 924 INTRA-LIGAND FREE ENERGY PREDICTED BY IDOCK:   -1.80 KCAL/MOL
REMARK 927      BINDING AFFINITY PREDICTED BY RF-SCORE:    0.00 PKD
ROOT
HETATM    1  C   UNL     1      -8.243   8.865  62.881  1.00  0.00    -0.190 C  
HETATM    2  C   UNL     1      -8.071  10.354  62.614  1.00  0.00    -0.173 C  
ENDROOT
BRANCH   2   3
HETATM    3  C   UNL     1      -9.136  11.156  63.356  1.00  0.00    -0.164 C  
BRANCH   3   4
HETATM    4  C   UNL     1      -9.894  10.312  64.386  1.00  0.00    -0.374 C  
HETATM    5  C   UNL     1     -10.080  11.053  65.726  1.00  0.00    -0.305 C  
HETATM    6  C   UNL     1     -10.795  12.419  65.582  1.00  0.00    -0.312 C  
HETATM    7  C   UNL     1     -10.759  10.139  66.764  1.00  0.00    -0.121 C  
HETATM    8  C   UNL     1     -12.215  12.352  65.035  1.00  0.00    -0.465 C  
BRANCH   7   9
HETATM    9  O   UNL     1     -10.872  10.871  67.994  1.00  0.00    -0.207 OA 
BRANCH   9  10
HETATM   10  C   UNL     1      -9.886  10.775  68.914  1.00  0.00    -0.199 C  
HETATM   11  O   UNL     1      -9.298  11.712  69.429  1.00  0.00     0.350 OA 
BRANCH  10  12
HETATM   12  C   UNL     1      -9.775   9.365  69.387  1.00  0.00    -0.181 C  
HETATM   13  C   UNL     1      -8.920   8.421  68.899  1.00  0.00    -0.146 C  
BRANCH  12  14
HETATM   14  C   UNL     1     -10.843   8.979  70.398  1.00  0.00    -0.246 C  
HETATM   15  H1  UNL     1     -12.446   8.399  71.914  1.00  0.00     0.000 HD 
HETATM   16  N   UNL     1     -11.730   8.659  71.236  1.00  0.00    -0.279 NA 
HETATM   17  H2  UNL     1     -12.172   7.743  71.316  1.00  0.00     0.000 HD 
ENDBRANCH  12  14
BRANCH  13  18
HETATM   18  C   UNL     1      -7.843   8.779  67.940  1.00  0.00    -0.102 A  
HETATM   19  C   UNL     1      -7.785   8.166  66.682  1.00  0.00    -0.094 A  
HETATM   20  C   UNL     1      -6.846   9.701  68.291  1.00  0.00    -0.069 A  
HETATM   21  C   UNL     1      -5.762   9.931  67.441  1.00  0.00    -0.046 A  
HETATM   22  C   UNL     1      -5.686   9.277  66.216  1.00  0.00    -0.053 A  
HETATM   23  C   UNL     1      -6.711   8.417  65.825  1.00  0.00    -0.053 A  
ENDBRANCH  13  18
BRANCH  13  24
HETATM   24  C   UNL     1      -9.116   6.994  69.281  1.00  0.00    -0.137 A  
HETATM   25  C   UNL     1     -10.186   4.848  68.865  1.00  0.00    -0.137 A  
HETATM   26  C   UNL     1      -9.973   6.184  68.516  1.00  0.00    -0.173 A  
HETATM   27  C   UNL     1      -9.527   4.293  69.956  1.00  0.00    -0.184 A  
HETATM   28  C   UNL     1      -8.680   5.091  70.729  1.00  0.00    -0.144 A  
HETATM   29  C   UNL     1      -8.476   6.440  70.392  1.00  0.00    -0.131 A  
BRANCH  27  30
HETATM   30  O   UNL     1      -9.833   2.983  70.216  1.00  0.00    -0.069 OA 
HETATM   31  C   UNL     1      -8.776   2.045  70.054  1.00  0.00    -0.058 C  
ENDBRANCH  27  30
ENDBRANCH  13  24
ENDBRANCH  10  12
ENDBRANCH   9  10
ENDBRANCH   7   9
ENDBRANCH   3   4
ENDBRANCH   2   3
TORSDOF 9
ENDMDL
MODEL      186
REMARK 921   NORMALIZED FREE ENERGY PREDICTED BY IDOCK:   -2.74 KCAL/MOL
REMARK 922        TOTAL FREE ENERGY PREDICTED BY IDOCK:   -6.26 KCAL/MOL
REMARK 923 INTER-LIGAND FREE ENERGY PREDICTED BY IDOCK:   -5.20 KCAL/MOL
REMARK 924 INTRA-LIGAND FREE ENERGY PREDICTED BY IDOCK:   -1.06 KCAL/MOL
REMARK 927      BINDING AFFINITY PREDICTED BY RF-SCORE:    0.00 PKD
ROOT
HETATM    1  C   UNL     1     -10.020  11.658  63.184  1.00  0.00    -0.400 C  
HETATM    2  C   UNL     1     -11.414  11.140  62.855  1.00  0.00     0.810 C  
ENDROOT
BRANCH   2   3
HETATM    3  C   UNL     1     -12.476  12.124  63.335  1.00  0.00    -0.625 C  
BRANCH   3   4
HETATM    4  C   UNL     1     -11.870  13.353  64.020  1.00  0.00    -0.498 C  
HETATM    5  C   UNL     1     -12.326  13.489  65.487  1.00  0.00    -0.524 C  
HETATM    6  C   UNL     1     -12.019  12.238  66.348  1.00  0.00    -0.286 C  
HETATM    7  C   UNL     1     -11.774  14.785  66.111  1.00  0.00    -0.255 C  
HETATM    8  C   UNL     1     -10.541  11.896  66.487  1.00  0.00    -0.278 C  
BRANCH   7   9
HETATM    9  O   UNL     1     -12.260  14.871  67.460  1.00  0.00    -0.150 OA 
BRANCH   9  10
HETATM   10  C   UNL     1     -11.504  15.487  68.397  1.00  0.00    -0.363 C  
HETATM   11  O   UNL     1     -11.802  16.508  68.994  1.00  0.00    -0.097 OA 
BRANCH  10  12
HETATM   12  C   UNL     1     -10.353  14.615  68.768  1.00  0.00    -0.248 C  
HETATM   13  C   UNL     1      -9.035  14.890  68.547  1.00  0.00    -0.179 C  
BRANCH  12  14
HETATM   14  C   UNL     1     -10.771  13.252  69.296  1.00  0.00     0.047 C  
HETATM   15  H1  UNL     1     -11.399  11.207  70.088  1.00  0.00     0.000 HD 
HETATM   16  N   UNL     1     -11.118  12.121  69.734  1.00  0.00    -0.477 NA 
HETATM   17  H2  UNL     1     -11.736  11.462  69.261  1.00  0.00     0.000 HD 
ENDBRANCH  12  14
BRANCH  13  18
HETATM   18  C   UNL     1      -8.596  16.227  68.067  1.00  0.00    -0.176 A  
HETATM   19  C   UNL     1      -8.408  16.458  66.699  1.00  0.00    -0.305 A  
HETATM   20  C   UNL     1      -8.325  17.261  68.974  1.00  0.00    -0.090 A  
HETATM   21  C   UNL     1      -7.783  18.469  68.530  1.00  0.00    -0.330 A  
HETATM   22  C   UNL     1      -7.549  18.671  67.174  1.00  0.00    -0.231 A  
HETATM   23  C   UNL     1      -7.887  17.677  66.257  1.00  0.00    -0.309 A  
ENDBRANCH  13  18
BRANCH  13  24
HETATM   24  C   UNL     1      -8.026  13.807  68.722  1.00  0.00    -0.041 A  
HETATM   25  C   UNL     1      -7.036  11.728  67.937  1.00  0.00    -0.085 A  
HETATM   26  C   UNL     1      -7.961  12.763  67.784  1.00  0.00    -0.157 A  
HETATM   27  C   UNL     1      -6.143  11.735  69.003  1.00  0.00    -0.066 A  
HETATM   28  C   UNL     1      -6.204  12.763  69.946  1.00  0.00    -0.084 A  
HETATM   29  C   UNL     1      -7.146  13.797  69.807  1.00  0.00     0.274 A  
BRANCH  27  30
HETATM   30  O   UNL     1      -5.299  10.657  69.063  1.00  0.00    -0.042 OA 
HETATM   31  C   UNL     1      -5.345   9.759  67.960  1.00  0.00    -0.039 C  
ENDBRANCH  27  30
ENDBRANCH  13  24
ENDBRANCH  10  12
ENDBRANCH   9  10
ENDBRANCH   7   9
ENDBRANCH   3   4
ENDBRANCH   2   3
TORSDOF 9
ENDMDL
MODEL      187
REMARK 921   NORMALIZED FREE ENERGY PREDICTED BY IDOCK:   -2.58 KCAL/MOL
REMARK 922        TOTAL FREE ENERGY PREDICTED BY IDOCK:   -6.01 KCAL/MOL
REMARK 923 INTER-LIGAND FREE ENERGY PREDICTED BY IDOCK:   -5.01 KCAL/MOL
REMARK 924 INTRA-LIGAND FREE ENERGY PREDICTED BY IDOCK:   -1.00 KCAL/MOL
REMARK 927      BINDING AFFINITY PREDICTED BY RF-SCORE:    0.00 PKD
ROOT
HETATM    1  C   UNL     1      -6.675  12.739  68.446  1.00  0.00    -0.087 C  
HETATM    2  C   UNL     1      -6.399  11.887  67.214  1.00  0.00    -0.143 C  
ENDROOT
BRANCH   2   3
HETATM    3  C   UNL     1      -5.564  10.666  67.587  1.00  0.00    -0.043 C  
BRANCH   3   4
HETATM    4  C   UNL     1      -6.389   9.583  68.288  1.00  0.00    -0.053 C  
HETATM    5  C   UNL     1      -7.644   9.189  67.482  1.00  0.00    -0.088 C  
HETATM    6  C   UNL     1      -7.328   8.717  66.041  1.00  0.00    -0.089 C  
HETATM    7  C   UNL     1      -8.496   8.171  68.263  1.00  0.00    -0.130 C  
HETATM    8  C   UNL     1      -6.462   7.468  65.944  1.00  0.00    -0.045 C  
BRANCH   7   9
HETATM    9  O   UNL     1      -9.661   7.872  67.479  1.00  0.00    -0.144 OA 
BRANCH   9  10
HETATM   10  C   UNL     1     -10.535   6.941  67.923  1.00  0.00    -0.212 C  
HETATM   11  O   UNL     1     -11.527   6.553  67.327  1.00  0.00    -0.197 OA 
BRANCH  10  12
HETATM   12  C   UNL     1      -9.992   6.282  69.145  1.00  0.00    -0.181 C  
HETATM   13  C   UNL     1     -10.237   6.657  70.433  1.00  0.00    -0.215 C  
BRANCH  12  14
HETATM   14  C   UNL     1      -8.964   5.203  68.846  1.00  0.00    -0.100 C  
HETATM   15  H1  UNL     1      -7.422   3.583  68.396  1.00  0.00     0.000 HD 
HETATM   16  N   UNL     1      -8.111   4.307  68.597  1.00  0.00    -0.076 NA 
HETATM   17  H2  UNL     1      -7.342   4.385  67.932  1.00  0.00     0.000 HD 
ENDBRANCH  12  14
BRANCH  13  18
HETATM   18  C   UNL     1     -11.264   7.683  70.756  1.00  0.00    -0.282 A  
HETATM   19  C   UNL     1     -10.959   9.045  70.647  1.00  0.00    -0.308 A  
HETATM   20  C   UNL     1     -12.535   7.306  71.212  1.00  0.00    -0.402 A  
HETATM   21  C   UNL     1     -13.448   8.271  71.644  1.00  0.00    -0.358 A  
HETATM   22  C   UNL     1     -13.116   9.620  71.582  1.00  0.00    -0.503 A  
HETATM   23  C   UNL     1     -11.885  10.008  71.058  1.00  0.00    -0.476 A  
ENDBRANCH  13  18
BRANCH  13  24
HETATM   24  C   UNL     1      -9.409   6.080  71.530  1.00  0.00    -0.161 A  
HETATM   25  C   UNL     1      -7.424   6.195  72.932  1.00  0.00    -0.097 A  
HETATM   26  C   UNL     1      -8.225   6.728  71.919  1.00  0.00    -0.102 A  
HETATM   27  C   UNL     1      -7.806   5.033  73.592  1.00  0.00    -0.099 A  
HETATM   28  C   UNL     1      -8.976   4.374  73.208  1.00  0.00    -0.114 A  
HETATM   29  C   UNL     1      -9.776   4.896  72.177  1.00  0.00    -0.213 A  
BRANCH  27  30
HETATM   30  O   UNL     1      -6.930   4.593  74.550  1.00  0.00    -0.066 OA 
HETATM   31  C   UNL     1      -6.605   3.208  74.518  1.00  0.00    -0.030 C  
ENDBRANCH  27  30
ENDBRANCH  13  24
ENDBRANCH  10  12
ENDBRANCH   9  10
ENDBRANCH   7   9
ENDBRANCH   3   4
ENDBRANCH   2   3
TORSDOF 9
ENDMDL
MODEL      188
REMARK 921   NORMALIZED FREE ENERGY PREDICTED BY IDOCK:   -2.56 KCAL/MOL
REMARK 922        TOTAL FREE ENERGY PREDICTED BY IDOCK:   -5.97 KCAL/MOL
REMARK 923 INTER-LIGAND FREE ENERGY PREDICTED BY IDOCK:   -4.47 KCAL/MOL
REMARK 924 INTRA-LIGAND FREE ENERGY PREDICTED BY IDOCK:   -1.50 KCAL/MOL
REMARK 927      BINDING AFFINITY PREDICTED BY RF-SCORE:    0.00 PKD
ROOT
HETATM    1  C   UNL     1     -14.007   7.237  71.232  1.00  0.00    -0.342 C  
HETATM    2  C   UNL     1     -13.095   8.243  71.920  1.00  0.00    -0.367 C  
ENDROOT
BRANCH   2   3
HETATM    3  C   UNL     1     -11.733   7.618  72.208  1.00  0.00    -0.371 C  
BRANCH   3   4
HETATM    4  C   UNL     1     -11.446   6.402  71.322  1.00  0.00    -0.371 C  
HETATM    5  C   UNL     1     -10.004   5.881  71.492  1.00  0.00    -0.221 C  
HETATM    6  C   UNL     1      -9.646   5.524  72.956  1.00  0.00    -0.161 C  
HETATM    7  C   UNL     1      -9.725   4.722  70.517  1.00  0.00    -0.211 C  
HETATM    8  C   UNL     1     -10.481   4.409  73.573  1.00  0.00    -0.268 C  
BRANCH   7   9
HETATM    9  O   UNL     1      -8.363   4.305  70.700  1.00  0.00    -0.069 OA 
BRANCH   9  10
HETATM   10  C   UNL     1      -7.464   4.536  69.717  1.00  0.00    -0.051 C  
HETATM   11  O   UNL     1      -6.928   3.684  69.027  1.00  0.00    -0.045 OA 
BRANCH  10  12
HETATM   12  C   UNL     1      -7.390   5.998  69.436  1.00  0.00    -0.079 C  
HETATM   13  C   UNL     1      -7.731   6.607  68.263  1.00  0.00    -0.105 C  
BRANCH  12  14
HETATM   14  C   UNL     1      -6.726   6.796  70.546  1.00  0.00    -0.053 C  
HETATM   15  H1  UNL     1      -5.729   7.993  72.213  1.00  0.00     0.000 HD 
HETATM   16  N   UNL     1      -6.175   7.458  71.467  1.00  0.00    -0.036 NA 
HETATM   17  H2  UNL     1      -6.452   7.459  72.449  1.00  0.00     0.000 HD 
ENDBRANCH  12  14
BRANCH  13  18
HETATM   18  C   UNL     1      -8.416   5.858  67.177  1.00  0.00    -0.107 A  
HETATM   19  C   UNL     1      -9.813   5.760  67.161  1.00  0.00    -0.163 A  
HETATM   20  C   UNL     1      -7.679   5.207  66.178  1.00  0.00    -0.091 A  
HETATM   21  C   UNL     1      -8.319   4.394  65.240  1.00  0.00    -0.112 A  
HETATM   22  C   UNL     1      -9.703   4.259  65.265  1.00  0.00    -0.201 A  
HETATM   23  C   UNL     1     -10.451   4.964  66.207  1.00  0.00    -0.349 A  
ENDBRANCH  13  18
BRANCH  13  24
HETATM   24  C   UNL     1      -7.344   8.029  68.042  1.00  0.00    -0.096 A  
HETATM   25  C   UNL     1      -5.770   9.649  67.138  1.00  0.00    -0.051 A  
HETATM   26  C   UNL     1      -6.162   8.324  67.343  1.00  0.00    -0.056 A  
HETATM   27  C   UNL     1      -6.563  10.695  67.597  1.00  0.00    -0.061 A  
HETATM   28  C   UNL     1      -7.736  10.414  68.301  1.00  0.00    -0.096 A  
HETATM   29  C   UNL     1      -8.125   9.082  68.525  1.00  0.00    -0.107 A  
BRANCH  27  30
HETATM   30  O   UNL     1      -6.065  11.950  67.360  1.00  0.00    -0.088 OA 
HETATM   31  C   UNL     1      -6.856  13.039  67.821  1.00  0.00    -0.144 C  
ENDBRANCH  27  30
ENDBRANCH  13  24
ENDBRANCH  10  12
ENDBRANCH   9  10
ENDBRANCH   7   9
ENDBRANCH   3   4
ENDBRANCH   2   3
TORSDOF 9
ENDMDL
MODEL      189
REMARK 921   NORMALIZED FREE ENERGY PREDICTED BY IDOCK:   -2.45 KCAL/MOL
REMARK 922        TOTAL FREE ENERGY PREDICTED BY IDOCK:   -5.81 KCAL/MOL
REMARK 923 INTER-LIGAND FREE ENERGY PREDICTED BY IDOCK:   -5.51 KCAL/MOL
REMARK 924 INTRA-LIGAND FREE ENERGY PREDICTED BY IDOCK:   -0.30 KCAL/MOL
REMARK 927      BINDING AFFINITY PREDICTED BY RF-SCORE:    0.00 PKD
ROOT
HETATM    1  C   UNL     1      -7.301   9.664  65.684  1.00  0.00    -0.101 C  
HETATM    2  C   UNL     1      -7.162   8.264  65.102  1.00  0.00    -0.079 C  
ENDROOT
BRANCH   2   3
HETATM    3  C   UNL     1      -5.953   7.553  65.704  1.00  0.00    -0.038 C  
BRANCH   3   4
HETATM    4  C   UNL     1      -5.925   7.637  67.233  1.00  0.00    -0.047 C  
HETATM    5  C   UNL     1      -7.016   6.765  67.887  1.00  0.00    -0.083 C  
HETATM    6  C   UNL     1      -6.945   5.274  67.471  1.00  0.00    -0.065 C  
HETATM    7  C   UNL     1      -7.018   6.950  69.417  1.00  0.00    -0.066 C  
HETATM    8  C   UNL     1      -5.661   4.554  67.860  1.00  0.00    -0.017 C  
BRANCH   7   9
HETATM    9  O   UNL     1      -8.072   6.142  69.961  1.00  0.00    -0.114 OA 
BRANCH   9  10
HETATM   10  C   UNL     1      -9.326   6.274  69.473  1.00  0.00    -0.142 C  
HETATM   11  O   UNL     1     -10.115   5.364  69.277  1.00  0.00    -0.189 OA 
BRANCH  10  12
HETATM   12  C   UNL     1      -9.697   7.717  69.424  1.00  0.00    -0.169 C  
HETATM   13  C   UNL     1      -9.857   8.540  70.500  1.00  0.00    -0.206 C  
BRANCH  12  14
HETATM   14  C   UNL     1     -10.059   8.202  68.029  1.00  0.00    -0.197 C  
HETATM   15  H1  UNL     1     -10.602   8.930  65.937  1.00  0.00     0.000 HD 
HETATM   16  N   UNL     1     -10.359   8.605  66.872  1.00  0.00    -0.293 NA 
HETATM   17  H2  UNL     1     -10.130   8.132  65.998  1.00  0.00     0.000 HD 
ENDBRANCH  12  14
BRANCH  13  18
HETATM   18  C   UNL     1      -9.475   8.104  71.868  1.00  0.00    -0.260 A  
HETATM   19  C   UNL     1      -8.281   8.557  72.445  1.00  0.00    -0.156 A  
HETATM   20  C   UNL     1     -10.276   7.205  72.586  1.00  0.00    -0.231 A  
HETATM   21  C   UNL     1      -9.846   6.693  73.811  1.00  0.00    -0.270 A  
HETATM   22  C   UNL     1      -8.633   7.108  74.352  1.00  0.00    -0.234 A  
HETATM   23  C   UNL     1      -7.865   8.060  73.682  1.00  0.00    -0.234 A  
ENDBRANCH  13  18
BRANCH  13  24
HETATM   24  C   UNL     1     -10.494   9.874  70.307  1.00  0.00    -0.348 A  
HETATM   25  C   UNL     1     -12.205  11.484  70.943  1.00  0.00    -0.425 A  
HETATM   26  C   UNL     1     -11.580  10.246  71.116  1.00  0.00    -0.385 A  
HETATM   27  C   UNL     1     -11.737  12.379  69.987  1.00  0.00    -0.230 A  
HETATM   28  C   UNL     1     -10.664  12.016  69.170  1.00  0.00    -0.121 A  
HETATM   29  C   UNL     1     -10.044  10.765  69.329  1.00  0.00    -0.200 A  
BRANCH  27  30
HETATM   30  O   UNL     1     -12.443  13.549  69.891  1.00  0.00    -0.252 OA 
HETATM   31  C   UNL     1     -12.763  14.194  71.118  1.00  0.00    -0.361 C  
ENDBRANCH  27  30
ENDBRANCH  13  24
ENDBRANCH  10  12
ENDBRANCH   9  10
ENDBRANCH   7   9
ENDBRANCH   3   4
ENDBRANCH   2   3
TORSDOF 9
ENDMDL
MODEL      190
REMARK 921   NORMALIZED FREE ENERGY PREDICTED BY IDOCK:   -2.43 KCAL/MOL
REMARK 922        TOTAL FREE ENERGY PREDICTED BY IDOCK:   -5.78 KCAL/MOL
REMARK 923 INTER-LIGAND FREE ENERGY PREDICTED BY IDOCK:   -5.38 KCAL/MOL
REMARK 924 INTRA-LIGAND FREE ENERGY PREDICTED BY IDOCK:   -0.41 KCAL/MOL
REMARK 927      BINDING AFFINITY PREDICTED BY RF-SCORE:    0.00 PKD
ROOT
HETATM    1  C   UNL     1     -10.663  17.740  68.073  1.00  0.00    -0.317 C  
HETATM    2  C   UNL     1     -11.430  16.433  67.927  1.00  0.00     0.010 C  
ENDROOT
BRANCH   2   3
HETATM    3  C   UNL     1     -11.785  15.866  69.298  1.00  0.00    -0.360 C  
BRANCH   3   4
HETATM    4  C   UNL     1     -11.343  14.409  69.462  1.00  0.00    -0.318 C  
HETATM    5  C   UNL     1     -10.438  13.938  68.305  1.00  0.00    -0.252 C  
HETATM    6  C   UNL     1      -9.179  14.820  68.110  1.00  0.00    -0.195 C  
HETATM    7  C   UNL     1     -10.095  12.444  68.455  1.00  0.00    -0.185 C  
HETATM    8  C   UNL     1      -8.221  14.852  69.293  1.00  0.00    -0.124 C  
BRANCH   7   9
HETATM    9  O   UNL     1      -9.282  12.060  67.335  1.00  0.00    -0.172 OA 
BRANCH   9  10
HETATM   10  C   UNL     1      -8.086  11.470  67.558  1.00  0.00    -0.137 C  
HETATM   11  O   UNL     1      -7.074  12.033  67.943  1.00  0.00    -0.082 OA 
BRANCH  10  12
HETATM   12  C   UNL     1      -8.236   9.988  67.492  1.00  0.00    -0.114 C  
HETATM   13  C   UNL     1      -8.539   9.263  66.377  1.00  0.00    -0.141 C  
BRANCH  12  14
HETATM   14  C   UNL     1      -8.182   9.312  68.852  1.00  0.00    -0.111 C  
HETATM   15  H1  UNL     1      -8.101   8.297  70.893  1.00  0.00     0.000 HD 
HETATM   16  N   UNL     1      -8.137   8.751  69.981  1.00  0.00    -0.104 NA 
HETATM   17  H2  UNL     1      -7.884   9.200  70.861  1.00  0.00     0.000 HD 
ENDBRANCH  12  14
BRANCH  13  18
HETATM   18  C   UNL     1      -8.561   9.892  65.030  1.00  0.00    -0.174 A  
HETATM   19  C   UNL     1      -9.754  10.412  64.513  1.00  0.00    -0.393 A  
HETATM   20  C   UNL     1      -7.403   9.939  64.241  1.00  0.00    -0.133 A  
HETATM   21  C   UNL     1      -7.459  10.406  62.926  1.00  0.00    -0.111 A  
HETATM   22  C   UNL     1      -8.661  10.871  62.403  1.00  0.00    -0.355 A  
HETATM   23  C   UNL     1      -9.801  10.900  63.205  1.00  0.00    -0.392 A  
ENDBRANCH  13  18
BRANCH  13  24
HETATM   24  C   UNL     1      -8.925   7.831  66.522  1.00  0.00    -0.191 A  
HETATM   25  C   UNL     1     -10.667   6.154  66.798  1.00  0.00    -0.371 A  
HETATM   26  C   UNL     1     -10.282   7.488  66.643  1.00  0.00    -0.261 A  
HETATM   27  C   UNL     1      -9.711   5.144  66.802  1.00  0.00    -0.165 A  
HETATM   28  C   UNL     1      -8.359   5.473  66.692  1.00  0.00    -0.109 A  
HETATM   29  C   UNL     1      -7.966   6.815  66.554  1.00  0.00    -0.105 A  
BRANCH  27  30
HETATM   30  O   UNL     1     -10.204   3.878  66.985  1.00  0.00     0.092 OA 
HETATM   31  C   UNL     1      -9.276   2.811  66.826  1.00  0.00    -0.105 C  
ENDBRANCH  27  30
ENDBRANCH  13  24
ENDBRANCH  10  12
ENDBRANCH   9  10
ENDBRANCH   7   9
ENDBRANCH   3   4
ENDBRANCH   2   3
TORSDOF 9
ENDMDL
MODEL      191
REMARK 921   NORMALIZED FREE ENERGY PREDICTED BY IDOCK:   -2.28 KCAL/MOL
REMARK 922        TOTAL FREE ENERGY PREDICTED BY IDOCK:   -5.55 KCAL/MOL
REMARK 923 INTER-LIGAND FREE ENERGY PREDICTED BY IDOCK:   -3.83 KCAL/MOL
REMARK 924 INTRA-LIGAND FREE ENERGY PREDICTED BY IDOCK:   -1.72 KCAL/MOL
REMARK 927      BINDING AFFINITY PREDICTED BY RF-SCORE:    0.00 PKD
ROOT
HETATM    1  C   UNL     1     -11.895  10.921  64.585  1.00  0.00     1.395 C  
HETATM    2  C   UNL     1     -12.794  11.933  63.890  1.00  0.00    -0.346 C  
ENDROOT
BRANCH   2   3
HETATM    3  C   UNL     1     -11.961  13.053  63.275  1.00  0.00    -0.493 C  
BRANCH   3   4
HETATM    4  C   UNL     1     -10.687  13.343  64.074  1.00  0.00    -0.168 C  
HETATM    5  C   UNL     1     -10.632  14.800  64.578  1.00  0.00    -0.050 C  
HETATM    6  C   UNL     1     -11.858  15.203  65.435  1.00  0.00    -0.017 C  
HETATM    7  C   UNL     1      -9.296  15.079  65.292  1.00  0.00     0.484 C  
HETATM    8  C   UNL     1     -12.037  14.409  66.722  1.00  0.00    -0.393 C  
BRANCH   7   9
HETATM    9  O   UNL     1      -9.291  16.454  65.707  1.00  0.00    -0.468 OA 
BRANCH   9  10
HETATM   10  C   UNL     1      -8.591  16.810  66.807  1.00  0.00    -0.232 C  
HETATM   11  O   UNL     1      -7.490  17.337  66.812  1.00  0.00    -0.180 OA 
BRANCH  10  12
HETATM   12  C   UNL     1      -9.454  16.682  68.016  1.00  0.00    -0.224 C  
HETATM   13  C   UNL     1      -9.506  15.606  68.853  1.00  0.00    -0.228 C  
BRANCH  12  14
HETATM   14  C   UNL     1     -10.443  17.825  68.178  1.00  0.00    -0.377 C  
HETATM   15  H1  UNL     1     -11.927  19.541  68.421  1.00  0.00     0.000 HD 
HETATM   16  N   UNL     1     -11.264  18.774  68.312  1.00  0.00     0.107 NA 
HETATM   17  H2  UNL     1     -11.400  19.543  67.656  1.00  0.00     0.000 HD 
ENDBRANCH  12  14
BRANCH  13  18
HETATM   18  C   UNL     1      -8.527  14.494  68.740  1.00  0.00    -0.145 A  
HETATM   19  C   UNL     1      -7.273  14.593  69.356  1.00  0.00    -0.146 A  
HETATM   20  C   UNL     1      -8.823  13.350  67.986  1.00  0.00    -0.183 A  
HETATM   21  C   UNL     1      -7.852  12.370  67.770  1.00  0.00    -0.154 A  
HETATM   22  C   UNL     1      -6.590  12.504  68.342  1.00  0.00    -0.070 A  
HETATM   23  C   UNL     1      -6.311  13.599  69.157  1.00  0.00    -0.103 A  
ENDBRANCH  13  18
BRANCH  13  24
HETATM   24  C   UNL     1     -10.609  15.513  69.851  1.00  0.00    -0.322 A  
HETATM   25  C   UNL     1     -11.585  16.236  71.959  1.00  0.00    -0.427 A  
HETATM   26  C   UNL     1     -10.572  16.319  71.001  1.00  0.00     0.701 A  
HETATM   27  C   UNL     1     -12.662  15.377  71.771  1.00  0.00    -0.396 A  
HETATM   28  C   UNL     1     -12.705  14.564  70.637  1.00  0.00    -0.421 A  
HETATM   29  C   UNL     1     -11.679  14.630  69.679  1.00  0.00    -0.358 A  
BRANCH  27  30
HETATM   30  O   UNL     1     -13.580  15.363  72.788  1.00  0.00    -0.475 OA 
HETATM   31  C   UNL     1     -13.114  15.787  74.064  1.00  0.00    -0.143 C  
ENDBRANCH  27  30
ENDBRANCH  13  24
ENDBRANCH  10  12
ENDBRANCH   9  10
ENDBRANCH   7   9
ENDBRANCH   3   4
ENDBRANCH   2   3
TORSDOF 9
ENDMDL
MODEL      192
REMARK 921   NORMALIZED FREE ENERGY PREDICTED BY IDOCK:   -2.26 KCAL/MOL
REMARK 922        TOTAL FREE ENERGY PREDICTED BY IDOCK:   -5.51 KCAL/MOL
REMARK 923 INTER-LIGAND FREE ENERGY PREDICTED BY IDOCK:   -3.87 KCAL/MOL
REMARK 924 INTRA-LIGAND FREE ENERGY PREDICTED BY IDOCK:   -1.64 KCAL/MOL
REMARK 927      BINDING AFFINITY PREDICTED BY RF-SCORE:    0.00 PKD
ROOT
HETATM    1  C   UNL     1      -5.946  11.171  66.303  1.00  0.00    -0.130 C  
HETATM    2  C   UNL     1      -6.755  11.930  67.346  1.00  0.00    -0.126 C  
ENDROOT
BRANCH   2   3
HETATM    3  C   UNL     1      -8.044  12.469  66.733  1.00  0.00     0.043 C  
BRANCH   3   4
HETATM    4  C   UNL     1      -9.089  11.373  66.507  1.00  0.00    -0.193 C  
HETATM    5  C   UNL     1      -9.752  10.918  67.823  1.00  0.00    -0.183 C  
HETATM    6  C   UNL     1     -10.410  12.075  68.616  1.00  0.00    -0.211 C  
HETATM    7  C   UNL     1     -10.725   9.751  67.568  1.00  0.00    -0.264 C  
HETATM    8  C   UNL     1     -11.547  12.788  67.896  1.00  0.00    -0.400 C  
BRANCH   7   9
HETATM    9  O   UNL     1     -11.282   9.352  68.830  1.00  0.00    -0.035 OA 
BRANCH   9  10
HETATM   10  C   UNL     1     -10.492   8.728  69.733  1.00  0.00    -0.219 C  
HETATM   11  O   UNL     1     -10.465   8.953  70.933  1.00  0.00    -0.205 OA 
BRANCH  10  12
HETATM   12  C   UNL     1      -9.822   7.560  69.094  1.00  0.00    -0.170 C  
HETATM   13  C   UNL     1      -8.497   7.247  69.186  1.00  0.00    -0.133 C  
BRANCH  12  14
HETATM   14  C   UNL     1     -10.727   6.784  68.150  1.00  0.00    -0.236 C  
HETATM   15  H1  UNL     1     -12.084   5.621  66.733  1.00  0.00     0.000 HD 
HETATM   16  N   UNL     1     -11.477   6.141  67.366  1.00  0.00    -0.485 NA 
HETATM   17  H2  UNL     1     -11.727   6.419  66.417  1.00  0.00     0.000 HD 
ENDBRANCH  12  14
BRANCH  13  18
HETATM   18  C   UNL     1      -7.600   7.964  70.129  1.00  0.00    -0.083 A  
HETATM   19  C   UNL     1      -6.901   9.103  69.710  1.00  0.00    -0.051 A  
HETATM   20  C   UNL     1      -7.405   7.491  71.435  1.00  0.00    -0.078 A  
HETATM   21  C   UNL     1      -6.458   8.087  72.271  1.00  0.00    -0.066 A  
HETATM   22  C   UNL     1      -5.730   9.186  71.827  1.00  0.00    -0.073 A  
HETATM   23  C   UNL     1      -5.972   9.710  70.558  1.00  0.00    -0.066 A  
ENDBRANCH  13  18
BRANCH  13  24
HETATM   24  C   UNL     1      -7.928   6.215  68.274  1.00  0.00    -0.107 A  
HETATM   25  C   UNL     1      -7.481   3.873  67.789  1.00  0.00    -0.067 A  
HETATM   26  C   UNL     1      -8.023   4.857  68.619  1.00  0.00    -0.084 A  
HETATM   27  C   UNL     1      -6.867   4.225  66.591  1.00  0.00    -0.055 A  
HETATM   28  C   UNL     1      -6.758   5.572  66.242  1.00  0.00    -0.057 A  
HETATM   29  C   UNL     1      -7.286   6.567  67.083  1.00  0.00    -0.086 A  
BRANCH  27  30
HETATM   30  O   UNL     1      -6.352   3.178  65.873  1.00  0.00    -0.030 OA 
HETATM   31  C   UNL     1      -5.827   2.093  66.628  1.00  0.00    -0.022 C  
ENDBRANCH  27  30
ENDBRANCH  13  24
ENDBRANCH  10  12
ENDBRANCH   9  10
ENDBRANCH   7   9
ENDBRANCH   3   4
ENDBRANCH   2   3
TORSDOF 9
ENDMDL
MODEL      193
REMARK 921   NORMALIZED FREE ENERGY PREDICTED BY IDOCK:   -2.20 KCAL/MOL
REMARK 922        TOTAL FREE ENERGY PREDICTED BY IDOCK:   -5.43 KCAL/MOL
REMARK 923 INTER-LIGAND FREE ENERGY PREDICTED BY IDOCK:   -4.82 KCAL/MOL
REMARK 924 INTRA-LIGAND FREE ENERGY PREDICTED BY IDOCK:   -0.60 KCAL/MOL
REMARK 927      BINDING AFFINITY PREDICTED BY RF-SCORE:    0.00 PKD
ROOT
HETATM    1  C   UNL     1      -6.884   7.680  71.252  1.00  0.00    -0.049 C  
HETATM    2  C   UNL     1      -6.425   6.859  70.055  1.00  0.00    -0.040 C  
ENDROOT
BRANCH   2   3
HETATM    3  C   UNL     1      -7.575   6.658  69.073  1.00  0.00    -0.101 C  
BRANCH   3   4
HETATM    4  C   UNL     1      -8.699   7.679  69.269  1.00  0.00    -0.136 C  
HETATM    5  C   UNL     1      -8.215   9.129  69.062  1.00  0.00    -0.115 C  
HETATM    6  C   UNL     1      -7.562   9.369  67.677  1.00  0.00    -0.088 C  
HETATM    7  C   UNL     1      -9.347  10.130  69.361  1.00  0.00    -0.219 C  
HETATM    8  C   UNL     1      -8.479   9.148  66.482  1.00  0.00    -0.127 C  
BRANCH   7   9
HETATM    9  O   UNL     1      -8.826  11.456  69.184  1.00  0.00     0.021 OA 
BRANCH   9  10
HETATM   10  C   UNL     1      -9.454  12.305  68.339  1.00  0.00    -0.175 C  
HETATM   11  O   UNL     1     -10.585  12.169  67.902  1.00  0.00    -0.197 OA 
BRANCH  10  12
HETATM   12  C   UNL     1      -8.656  13.556  68.197  1.00  0.00    -0.173 C  
HETATM   13  C   UNL     1      -9.083  14.817  68.495  1.00  0.00    -0.187 C  
BRANCH  12  14
HETATM   14  C   UNL     1      -7.315  13.345  67.513  1.00  0.00    -0.156 C  
HETATM   15  H1  UNL     1      -5.302  13.027  66.487  1.00  0.00     0.000 HD 
HETATM   16  N   UNL     1      -6.202  13.169  66.946  1.00  0.00    -0.316 NA 
HETATM   17  H2  UNL     1      -5.772  12.267  66.742  1.00  0.00     0.000 HD 
ENDBRANCH  12  14
BRANCH  13  18
HETATM   18  C   UNL     1     -10.372  15.049  69.198  1.00  0.00    -0.249 A  
HETATM   19  C   UNL     1     -11.573  15.068  68.479  1.00  0.00    -0.348 A  
HETATM   20  C   UNL     1     -10.403  15.293  70.578  1.00  0.00    -0.008 A  
HETATM   21  C   UNL     1     -11.597  15.645  71.210  1.00  0.00    -0.485 A  
HETATM   22  C   UNL     1     -12.778  15.714  70.477  1.00  0.00    -0.391 A  
HETATM   23  C   UNL     1     -12.771  15.398  69.119  1.00  0.00     0.390 A  
ENDBRANCH  13  18
BRANCH  13  24
HETATM   24  C   UNL     1      -8.274  15.985  68.043  1.00  0.00    -0.151 A  
HETATM   25  C   UNL     1      -7.878  17.745  66.410  1.00  0.00    -0.312 A  
HETATM   26  C   UNL     1      -8.631  16.659  66.863  1.00  0.00    -0.240 A  
HETATM   27  C   UNL     1      -6.784  18.194  67.140  1.00  0.00    -0.187 A  
HETATM   28  C   UNL     1      -6.414  17.527  68.310  1.00  0.00    -0.182 A  
HETATM   29  C   UNL     1      -7.158  16.423  68.760  1.00  0.00    -0.180 A  
BRANCH  27  30
HETATM   30  O   UNL     1      -6.108  19.250  66.586  1.00  0.00    -0.167 OA 
HETATM   31  C   UNL     1      -6.830  20.472  66.476  1.00  0.00    -0.255 C  
ENDBRANCH  27  30
ENDBRANCH  13  24
ENDBRANCH  10  12
ENDBRANCH   9  10
ENDBRANCH   7   9
ENDBRANCH   3   4
ENDBRANCH   2   3
TORSDOF 9
ENDMDL
MODEL      194
REMARK 921   NORMALIZED FREE ENERGY PREDICTED BY IDOCK:   -2.06 KCAL/MOL
REMARK 922        TOTAL FREE ENERGY PREDICTED BY IDOCK:   -5.22 KCAL/MOL
REMARK 923 INTER-LIGAND FREE ENERGY PREDICTED BY IDOCK:   -4.12 KCAL/MOL
REMARK 924 INTRA-LIGAND FREE ENERGY PREDICTED BY IDOCK:   -1.11 KCAL/MOL
REMARK 927      BINDING AFFINITY PREDICTED BY RF-SCORE:    0.00 PKD
ROOT
HETATM    1  C   UNL     1     -11.932  16.545  71.954  1.00  0.00    -0.214 C  
HETATM    2  C   UNL     1     -12.009  16.311  70.451  1.00  0.00     0.069 C  
ENDROOT
BRANCH   2   3
HETATM    3  C   UNL     1     -12.915  15.123  70.142  1.00  0.00    -0.126 C  
BRANCH   3   4
HETATM    4  C   UNL     1     -12.434  13.830  70.807  1.00  0.00    -0.441 C  
HETATM    5  C   UNL     1     -12.085  12.736  69.776  1.00  0.00    -0.305 C  
HETATM    6  C   UNL     1     -11.027  13.184  68.737  1.00  0.00    -0.298 C  
HETATM    7  C   UNL     1     -11.699  11.424  70.484  1.00  0.00    -0.198 C  
HETATM    8  C   UNL     1      -9.665  13.547  69.315  1.00  0.00     0.526 C  
BRANCH   7   9
HETATM    9  O   UNL     1     -11.419  10.441  69.475  1.00  0.00    -0.246 OA 
BRANCH   9  10
HETATM   10  C   UNL     1     -10.239   9.782  69.503  1.00  0.00    -0.221 C  
HETATM   11  O   UNL     1      -9.447   9.777  70.432  1.00  0.00    -0.247 OA 
BRANCH  10  12
HETATM   12  C   UNL     1     -10.143   8.871  68.327  1.00  0.00    -0.219 C  
HETATM   13  C   UNL     1      -9.713   7.577  68.349  1.00  0.00    -0.161 C  
BRANCH  12  14
HETATM   14  C   UNL     1     -10.419   9.562  67.001  1.00  0.00    -0.232 C  
HETATM   15  H1  UNL     1     -10.833  10.600  65.012  1.00  0.00     0.000 HD 
HETATM   16  N   UNL     1     -10.648  10.136  65.901  1.00  0.00    -0.053 NA 
HETATM   17  H2  UNL     1     -10.745  11.142  65.762  1.00  0.00     0.000 HD 
ENDBRANCH  12  14
BRANCH  13  18
HETATM   18  C   UNL     1      -9.473   6.866  69.632  1.00  0.00    -0.147 A  
HETATM   19  C   UNL     1      -8.184   6.437  69.970  1.00  0.00    -0.125 A  
HETATM   20  C   UNL     1     -10.534   6.577  70.502  1.00  0.00    -0.251 A  
HETATM   21  C   UNL     1     -10.326   5.791  71.638  1.00  0.00    -0.266 A  
HETATM   22  C   UNL     1      -9.050   5.325  71.937  1.00  0.00    -0.153 A  
HETATM   23  C   UNL     1      -7.976   5.671  71.120  1.00  0.00    -0.112 A  
ENDBRANCH  13  18
BRANCH  13  24
HETATM   24  C   UNL     1      -9.412   6.887  67.062  1.00  0.00    -0.183 A  
HETATM   25  C   UNL     1      -8.030   6.694  65.069  1.00  0.00    -0.124 A  
HETATM   26  C   UNL     1      -8.321   7.313  66.287  1.00  0.00    -0.129 A  
HETATM   27  C   UNL     1      -8.799   5.624  64.624  1.00  0.00     0.105 A  
HETATM   28  C   UNL     1      -9.892   5.198  65.381  1.00  0.00     0.070 A  
HETATM   29  C   UNL     1     -10.199   5.830  66.598  1.00  0.00    -0.261 A  
BRANCH  27  30
HETATM   30  O   UNL     1      -8.434   5.113  63.405  1.00  0.00    -0.127 OA 
HETATM   31  C   UNL     1      -7.274   5.679  62.807  1.00  0.00    -0.046 C  
ENDBRANCH  27  30
ENDBRANCH  13  24
ENDBRANCH  10  12
ENDBRANCH   9  10
ENDBRANCH   7   9
ENDBRANCH   3   4
ENDBRANCH   2   3
TORSDOF 9
ENDMDL
MODEL      195
REMARK 921   NORMALIZED FREE ENERGY PREDICTED BY IDOCK:   -2.00 KCAL/MOL
REMARK 922        TOTAL FREE ENERGY PREDICTED BY IDOCK:   -5.13 KCAL/MOL
REMARK 923 INTER-LIGAND FREE ENERGY PREDICTED BY IDOCK:   -3.41 KCAL/MOL
REMARK 924 INTRA-LIGAND FREE ENERGY PREDICTED BY IDOCK:   -1.72 KCAL/MOL
REMARK 927      BINDING AFFINITY PREDICTED BY RF-SCORE:    0.00 PKD
ROOT
HETATM    1  C   UNL     1     -10.823  15.829  66.983  1.00  0.00    -0.273 C  
HETATM    2  C   UNL     1     -11.442  14.900  68.019  1.00  0.00    -0.355 C  
ENDROOT
BRANCH   2   3
HETATM    3  C   UNL     1     -10.354  14.237  68.859  1.00  0.00    -0.218 C  
BRANCH   3   4
HETATM    4  C   UNL     1     -10.116  12.777  68.464  1.00  0.00    -0.189 C  
HETATM    5  C   UNL     1      -9.150  12.644  67.268  1.00  0.00    -0.191 C  
HETATM    6  C   UNL     1      -7.779  13.325  67.505  1.00  0.00    -0.175 C  
HETATM    7  C   UNL     1      -9.012  11.171  66.840  1.00  0.00    -0.161 C  
HETATM    8  C   UNL     1      -6.964  12.755  68.659  1.00  0.00    -0.101 C  
BRANCH   7   9
HETATM    9  O   UNL     1      -8.131  11.118  65.708  1.00  0.00    -0.098 OA 
BRANCH   9  10
HETATM   10  C   UNL     1      -6.943  10.481  65.823  1.00  0.00    -0.125 C  
HETATM   11  O   UNL     1      -5.877  11.007  66.100  1.00  0.00    -0.132 OA 
BRANCH  10  12
HETATM   12  C   UNL     1      -7.158   9.007  65.793  1.00  0.00    -0.085 C  
HETATM   13  C   UNL     1      -7.073   8.163  66.862  1.00  0.00    -0.078 C  
BRANCH  12  14
HETATM   14  C   UNL     1      -7.333   8.448  64.391  1.00  0.00    -0.091 C  
HETATM   15  H1  UNL     1      -7.597   7.610  62.285  1.00  0.00     0.000 HD 
HETATM   16  N   UNL     1      -7.479   7.984  63.227  1.00  0.00    -0.111 NA 
HETATM   17  H2  UNL     1      -8.369   7.824  62.755  1.00  0.00     0.000 HD 
ENDBRANCH  12  14
BRANCH  13  18
HETATM   18  C   UNL     1      -6.940   8.684  68.248  1.00  0.00    -0.073 A  
HETATM   19  C   UNL     1      -5.675   8.965  68.778  1.00  0.00    -0.041 A  
HETATM   20  C   UNL     1      -8.070   8.864  69.058  1.00  0.00    -0.115 A  
HETATM   21  C   UNL     1      -7.931   9.222  70.401  1.00  0.00    -0.171 A  
HETATM   22  C   UNL     1      -6.665   9.448  70.933  1.00  0.00    -0.097 A  
HETATM   23  C   UNL     1      -5.541   9.347  70.115  1.00  0.00    -0.031 A  
ENDBRANCH  13  18
BRANCH  13  24
HETATM   24  C   UNL     1      -7.041   6.691  66.627  1.00  0.00    -0.068 A  
HETATM   25  C   UNL     1      -8.239   4.586  66.399  1.00  0.00    -0.106 A  
HETATM   26  C   UNL     1      -8.245   5.969  66.599  1.00  0.00    -0.106 A  
HETATM   27  C   UNL     1      -7.041   3.911  66.191  1.00  0.00    -0.064 A  
HETATM   28  C   UNL     1      -5.837   4.618  66.226  1.00  0.00    -0.022 A  
HETATM   29  C   UNL     1      -5.837   6.006  66.446  1.00  0.00    -0.020 A  
BRANCH  27  30
HETATM   30  O   UNL     1      -7.157   2.555  66.030  1.00  0.00    -0.060 OA 
HETATM   31  C   UNL     1      -7.181   1.779  67.222  1.00  0.00    -0.050 C  
ENDBRANCH  27  30
ENDBRANCH  13  24
ENDBRANCH  10  12
ENDBRANCH   9  10
ENDBRANCH   7   9
ENDBRANCH   3   4
ENDBRANCH   2   3
TORSDOF 9
ENDMDL
MODEL      196
REMARK 921   NORMALIZED FREE ENERGY PREDICTED BY IDOCK:   -1.99 KCAL/MOL
REMARK 922        TOTAL FREE ENERGY PREDICTED BY IDOCK:   -5.10 KCAL/MOL
REMARK 923 INTER-LIGAND FREE ENERGY PREDICTED BY IDOCK:   -4.12 KCAL/MOL
REMARK 924 INTRA-LIGAND FREE ENERGY PREDICTED BY IDOCK:   -0.98 KCAL/MOL
REMARK 927      BINDING AFFINITY PREDICTED BY RF-SCORE:    0.00 PKD
ROOT
HETATM    1  C   UNL     1      -5.368  17.272  67.969  1.00  0.00    -0.121 C  
HETATM    2  C   UNL     1      -6.123  16.050  68.476  1.00  0.00    -0.111 C  
ENDROOT
BRANCH   2   3
HETATM    3  C   UNL     1      -5.149  14.933  68.839  1.00  0.00    -0.092 C  
BRANCH   3   4
HETATM    4  C   UNL     1      -5.473  13.618  68.124  1.00  0.00    -0.114 C  
HETATM    5  C   UNL     1      -6.446  12.737  68.934  1.00  0.00    -0.091 C  
HETATM    6  C   UNL     1      -7.775  13.450  69.288  1.00  0.00     0.385 C  
HETATM    7  C   UNL     1      -6.672  11.385  68.229  1.00  0.00    -0.059 C  
HETATM    8  C   UNL     1      -8.620  13.874  68.094  1.00  0.00    -0.180 C  
BRANCH   7   9
HETATM    9  O   UNL     1      -7.555  10.601  69.046  1.00  0.00    -0.101 OA 
BRANCH   9  10
HETATM   10  C   UNL     1      -8.364   9.691  68.458  1.00  0.00    -0.117 C  
HETATM   11  O   UNL     1      -8.421   8.503  68.735  1.00  0.00    -0.121 OA 
BRANCH  10  12
HETATM   12  C   UNL     1      -9.348  10.385  67.579  1.00  0.00    -0.163 C  
HETATM   13  C   UNL     1      -9.265  10.504  66.222  1.00  0.00    -0.192 C  
BRANCH  12  14
HETATM   14  C   UNL     1     -10.428  11.129  68.347  1.00  0.00    -0.188 C  
HETATM   15  H1  UNL     1     -12.049  12.245  69.501  1.00  0.00     0.000 HD 
HETATM   16  N   UNL     1     -11.324  11.746  68.985  1.00  0.00    -0.255 NA 
HETATM   17  H2  UNL     1     -12.075  11.317  69.525  1.00  0.00     0.000 HD 
ENDBRANCH  12  14
BRANCH  13  18
HETATM   18  C   UNL     1      -8.244   9.757  65.443  1.00  0.00    -0.131 A  
HETATM   19  C   UNL     1      -7.102  10.412  64.967  1.00  0.00    -0.062 A  
HETATM   20  C   UNL     1      -8.424   8.401  65.137  1.00  0.00    -0.179 A  
HETATM   21  C   UNL     1      -7.531   7.739  64.291  1.00  0.00    -0.100 A  
HETATM   22  C   UNL     1      -6.428   8.414  63.779  1.00  0.00    -0.072 A  
HETATM   23  C   UNL     1      -6.198   9.740  64.140  1.00  0.00    -0.116 A  
ENDBRANCH  13  18
BRANCH  13  24
HETATM   24  C   UNL     1     -10.172  11.455  65.519  1.00  0.00    -0.312 A  
HETATM   25  C   UNL     1     -10.700  13.738  64.860  1.00  0.00    -0.410 A  
HETATM   26  C   UNL     1      -9.857  12.824  65.498  1.00  0.00    -0.169 A  
HETATM   27  C   UNL     1     -11.847  13.298  64.208  1.00  0.00    -0.417 A  
HETATM   28  C   UNL     1     -12.175  11.941  64.229  1.00  0.00    -0.331 A  
HETATM   29  C   UNL     1     -11.339  11.021  64.885  1.00  0.00     0.224 A  
BRANCH  27  30
HETATM   30  O   UNL     1     -12.608  14.286  63.640  1.00  0.00    -0.831 OA 
HETATM   31  C   UNL     1     -12.618  15.539  64.313  1.00  0.00     0.310 C  
ENDBRANCH  27  30
ENDBRANCH  13  24
ENDBRANCH  10  12
ENDBRANCH   9  10
ENDBRANCH   7   9
ENDBRANCH   3   4
ENDBRANCH   2   3
TORSDOF 9
ENDMDL
MODEL      197
REMARK 921   NORMALIZED FREE ENERGY PREDICTED BY IDOCK:   -1.89 KCAL/MOL
REMARK 922        TOTAL FREE ENERGY PREDICTED BY IDOCK:   -4.95 KCAL/MOL
REMARK 923 INTER-LIGAND FREE ENERGY PREDICTED BY IDOCK:   -4.74 KCAL/MOL
REMARK 924 INTRA-LIGAND FREE ENERGY PREDICTED BY IDOCK:   -0.20 KCAL/MOL
REMARK 927      BINDING AFFINITY PREDICTED BY RF-SCORE:    0.00 PKD
ROOT
HETATM    1  C   UNL     1     -12.112  14.707  71.798  1.00  0.00    -0.391 C  
HETATM    2  C   UNL     1     -12.653  14.400  70.408  1.00  0.00    -0.405 C  
ENDROOT
BRANCH   2   3
HETATM    3  C   UNL     1     -11.575  14.631  69.353  1.00  0.00    -0.342 C  
BRANCH   3   4
HETATM    4  C   UNL     1     -10.639  13.429  69.199  1.00  0.00    -0.035 C  
HETATM    5  C   UNL     1     -11.260  12.309  68.338  1.00  0.00    -0.311 C  
HETATM    6  C   UNL     1     -11.695  12.784  66.929  1.00  0.00    -0.447 C  
HETATM    7  C   UNL     1     -10.331  11.082  68.286  1.00  0.00    -0.178 C  
HETATM    8  C   UNL     1     -10.568  13.301  66.044  1.00  0.00    -0.292 C  
BRANCH   7   9
HETATM    9  O   UNL     1     -10.977  10.067  67.502  1.00  0.00    -0.288 OA 
BRANCH   9  10
HETATM   10  C   UNL     1     -10.223   9.223  66.762  1.00  0.00    -0.255 C  
HETATM   11  O   UNL     1      -9.948   9.363  65.582  1.00  0.00    -0.304 OA 
BRANCH  10  12
HETATM   12  C   UNL     1      -9.579   8.214  67.650  1.00  0.00    -0.186 C  
HETATM   13  C   UNL     1      -8.738   7.216  67.251  1.00  0.00    -0.120 C  
BRANCH  12  14
HETATM   14  C   UNL     1     -10.070   8.271  69.088  1.00  0.00    -0.202 C  
HETATM   15  H1  UNL     1     -10.806   8.355  71.245  1.00  0.00     0.000 HD 
HETATM   16  N   UNL     1     -10.477   8.317  70.281  1.00  0.00    -0.214 NA 
HETATM   17  H2  UNL     1     -11.085   7.633  70.731  1.00  0.00     0.000 HD 
ENDBRANCH  12  14
BRANCH  13  18
HETATM   18  C   UNL     1      -8.214   7.160  65.862  1.00  0.00    -0.132 A  
HETATM   19  C   UNL     1      -7.170   8.006  65.467  1.00  0.00    -0.064 A  
HETATM   20  C   UNL     1      -8.778   6.293  64.916  1.00  0.00     0.143 A  
HETATM   21  C   UNL     1      -8.375   6.341  63.579  1.00  0.00     0.114 A  
HETATM   22  C   UNL     1      -7.374   7.223  63.186  1.00  0.00    -0.085 A  
HETATM   23  C   UNL     1      -6.753   8.035  64.134  1.00  0.00    -0.065 A  
ENDBRANCH  13  18
BRANCH  13  24
HETATM   24  C   UNL     1      -8.397   6.125  68.208  1.00  0.00    -0.114 A  
HETATM   25  C   UNL     1      -6.906   5.228  69.908  1.00  0.00    -0.056 A  
HETATM   26  C   UNL     1      -7.255   6.246  69.017  1.00  0.00    -0.083 A  
HETATM   27  C   UNL     1      -7.703   4.096  70.029  1.00  0.00    -0.052 A  
HETATM   28  C   UNL     1      -8.836   3.961  69.223  1.00  0.00    -0.145 A  
HETATM   29  C   UNL     1      -9.181   4.974  68.312  1.00  0.00    -0.147 A  
BRANCH  27  30
HETATM   30  O   UNL     1      -7.247   3.156  70.916  1.00  0.00    -0.033 OA 
HETATM   31  C   UNL     1      -8.236   2.338  71.531  1.00  0.00    -0.054 C  
ENDBRANCH  27  30
ENDBRANCH  13  24
ENDBRANCH  10  12
ENDBRANCH   9  10
ENDBRANCH   7   9
ENDBRANCH   3   4
ENDBRANCH   2   3
TORSDOF 9
ENDMDL
MODEL      198
REMARK 921   NORMALIZED FREE ENERGY PREDICTED BY IDOCK:   -1.86 KCAL/MOL
REMARK 922        TOTAL FREE ENERGY PREDICTED BY IDOCK:   -4.91 KCAL/MOL
REMARK 923 INTER-LIGAND FREE ENERGY PREDICTED BY IDOCK:   -3.54 KCAL/MOL
REMARK 924 INTRA-LIGAND FREE ENERGY PREDICTED BY IDOCK:   -1.37 KCAL/MOL
REMARK 927      BINDING AFFINITY PREDICTED BY RF-SCORE:    0.00 PKD
ROOT
HETATM    1  C   UNL     1      -6.836  12.789  68.427  1.00  0.00    -0.091 C  
HETATM    2  C   UNL     1      -6.798  12.241  67.007  1.00  0.00    -0.034 C  
ENDROOT
BRANCH   2   3
HETATM    3  C   UNL     1      -5.884  11.021  66.930  1.00  0.00    -0.083 C  
BRANCH   3   4
HETATM    4  C   UNL     1      -6.517   9.774  67.556  1.00  0.00    -0.068 C  
HETATM    5  C   UNL     1      -7.889   9.441  66.936  1.00  0.00    -0.105 C  
HETATM    6  C   UNL     1      -7.844   9.256  65.399  1.00  0.00    -0.100 C  
HETATM    7  C   UNL     1      -8.535   8.242  67.656  1.00  0.00    -0.130 C  
HETATM    8  C   UNL     1      -6.968   8.110  64.910  1.00  0.00    -0.074 C  
BRANCH   7   9
HETATM    9  O   UNL     1      -9.819   8.004  67.058  1.00  0.00    -0.184 OA 
BRANCH   9  10
HETATM   10  C   UNL     1     -10.561   6.956  67.483  1.00  0.00    -0.281 C  
HETATM   11  O   UNL     1     -11.530   6.489  66.906  1.00  0.00    -0.212 OA 
BRANCH  10  12
HETATM   12  C   UNL     1      -9.892   6.302  68.643  1.00  0.00    -0.152 C  
HETATM   13  C   UNL     1      -9.134   5.169  68.595  1.00  0.00    -0.135 C  
BRANCH  12  14
HETATM   14  C   UNL     1     -10.257   6.922  69.982  1.00  0.00    -0.196 C  
HETATM   15  H1  UNL     1     -10.803   7.853  71.991  1.00  0.00     0.000 HD 
HETATM   16  N   UNL     1     -10.559   7.437  71.093  1.00  0.00    -0.221 NA 
HETATM   17  H2  UNL     1     -10.131   8.267  71.502  1.00  0.00     0.000 HD 
ENDBRANCH  12  14
BRANCH  13  18
HETATM   18  C   UNL     1      -8.731   4.564  67.299  1.00  0.00    -0.105 A  
HETATM   19  C   UNL     1      -9.542   3.600  66.688  1.00  0.00    -0.168 A  
HETATM   20  C   UNL     1      -7.519   4.916  66.688  1.00  0.00    -0.087 A  
HETATM   21  C   UNL     1      -7.080   4.247  65.543  1.00  0.00    -0.063 A  
HETATM   22  C   UNL     1      -7.869   3.253  64.974  1.00  0.00    -0.082 A  
HETATM   23  C   UNL     1      -9.110   2.949  65.529  1.00  0.00    -0.147 A  
ENDBRANCH  13  18
BRANCH  13  24
HETATM   24  C   UNL     1      -8.764   4.487  69.868  1.00  0.00    -0.108 A  
HETATM   25  C   UNL     1      -9.284   2.844  71.585  1.00  0.00    -0.181 A  
HETATM   26  C   UNL     1      -9.601   3.485  70.385  1.00  0.00    -0.241 A  
HETATM   27  C   UNL     1      -8.116   3.167  72.267  1.00  0.00    -0.059 A  
HETATM   28  C   UNL     1      -7.281   4.168  71.768  1.00  0.00    -0.054 A  
HETATM   29  C   UNL     1      -7.605   4.828  70.570  1.00  0.00    -0.058 A  
BRANCH  27  30
HETATM   30  O   UNL     1      -7.923   2.491  73.444  1.00  0.00    -0.056 OA 
HETATM   31  C   UNL     1      -9.089   1.963  74.065  1.00  0.00    -0.065 C  
ENDBRANCH  27  30
ENDBRANCH  13  24
ENDBRANCH  10  12
ENDBRANCH   9  10
ENDBRANCH   7   9
ENDBRANCH   3   4
ENDBRANCH   2   3
TORSDOF 9
ENDMDL
MODEL      199
REMARK 921   NORMALIZED FREE ENERGY PREDICTED BY IDOCK:   -1.56 KCAL/MOL
REMARK 922        TOTAL FREE ENERGY PREDICTED BY IDOCK:   -4.45 KCAL/MOL
REMARK 923 INTER-LIGAND FREE ENERGY PREDICTED BY IDOCK:   -4.08 KCAL/MOL
REMARK 924 INTRA-LIGAND FREE ENERGY PREDICTED BY IDOCK:   -0.37 KCAL/MOL
REMARK 927      BINDING AFFINITY PREDICTED BY RF-SCORE:    0.00 PKD
ROOT
HETATM    1  C   UNL     1     -10.650  11.192  63.269  1.00  0.00    -0.268 C  
HETATM    2  C   UNL     1     -12.050  11.781  63.150  1.00  0.00    -0.252 C  
ENDROOT
BRANCH   2   3
HETATM    3  C   UNL     1     -12.011  13.293  63.347  1.00  0.00    -0.491 C  
BRANCH   3   4
HETATM    4  C   UNL     1     -10.874  13.735  64.273  1.00  0.00    -0.241 C  
HETATM    5  C   UNL     1     -11.340  13.903  65.733  1.00  0.00    -0.308 C  
HETATM    6  C   UNL     1     -11.992  12.628  66.323  1.00  0.00    -0.439 C  
HETATM    7  C   UNL     1     -10.194  14.440  66.612  1.00  0.00    -0.277 C  
HETATM    8  C   UNL     1     -11.081  11.410  66.400  1.00  0.00    -0.301 C  
BRANCH   7   9
HETATM    9  O   UNL     1     -10.698  14.606  67.947  1.00  0.00    -0.245 OA 
BRANCH   9  10
HETATM   10  C   UNL     1      -9.888  14.342  68.997  1.00  0.00    -0.067 C  
HETATM   11  O   UNL     1      -9.268  15.170  69.644  1.00  0.00    -0.188 OA 
BRANCH  10  12
HETATM   12  C   UNL     1     -10.039  12.915  69.402  1.00  0.00     0.677 C  
HETATM   13  C   UNL     1      -9.158  11.909  69.134  1.00  0.00     0.453 C  
BRANCH  12  14
HETATM   14  C   UNL     1     -11.387  12.604  70.032  1.00  0.00     0.131 C  
HETATM   15  H1  UNL     1     -13.409  12.136  70.979  1.00  0.00     0.000 HD 
HETATM   16  N   UNL     1     -12.505  12.345  70.556  1.00  0.00    -0.241 NA 
HETATM   17  H2  UNL     1     -12.678  11.647  71.279  1.00  0.00     0.000 HD 
ENDBRANCH  12  14
BRANCH  13  18
HETATM   18  C   UNL     1      -7.819  12.190  68.554  1.00  0.00    -0.122 A  
HETATM   19  C   UNL     1      -7.438  11.602  67.342  1.00  0.00    -0.135 A  
HETATM   20  C   UNL     1      -6.903  13.011  69.227  1.00  0.00    -0.019 A  
HETATM   21  C   UNL     1      -5.600  13.162  68.748  1.00  0.00    -0.073 A  
HETATM   22  C   UNL     1      -5.214  12.530  67.570  1.00  0.00    -0.103 A  
HETATM   23  C   UNL     1      -6.140  11.775  66.853  1.00  0.00    -0.140 A  
ENDBRANCH  13  18
BRANCH  13  24
HETATM   24  C   UNL     1      -9.576  10.496  69.361  1.00  0.00    -0.170 A  
HETATM   25  C   UNL     1      -9.375   8.439  70.646  1.00  0.00    -0.182 A  
HETATM   26  C   UNL     1      -9.012   9.770  70.424  1.00  0.00    -0.143 A  
HETATM   27  C   UNL     1     -10.324   7.825  69.836  1.00  0.00    -0.223 A  
HETATM   28  C   UNL     1     -10.884   8.534  68.771  1.00  0.00     0.004 A  
HETATM   29  C   UNL     1     -10.509   9.867  68.533  1.00  0.00    -0.232 A  
BRANCH  27  30
HETATM   30  O   UNL     1     -10.581   6.512  70.134  1.00  0.00    -0.202 OA 
HETATM   31  C   UNL     1     -11.040   6.244  71.453  1.00  0.00    -0.284 C  
ENDBRANCH  27  30
ENDBRANCH  13  24
ENDBRANCH  10  12
ENDBRANCH   9  10
ENDBRANCH   7   9
ENDBRANCH   3   4
ENDBRANCH   2   3
TORSDOF 9
ENDMDL
MODEL      200
REMARK 921   NORMALIZED FREE ENERGY PREDICTED BY IDOCK:   -1.55 KCAL/MOL
REMARK 922        TOTAL FREE ENERGY PREDICTED BY IDOCK:   -4.44 KCAL/MOL
REMARK 923 INTER-LIGAND FREE ENERGY PREDICTED BY IDOCK:   -3.10 KCAL/MOL
REMARK 924 INTRA-LIGAND FREE ENERGY PREDICTED BY IDOCK:   -1.34 KCAL/MOL
REMARK 927      BINDING AFFINITY PREDICTED BY RF-SCORE:    0.00 PKD
ROOT
HETATM    1  C   UNL     1     -11.923  16.449  71.919  1.00  0.00    -0.392 C  
HETATM    2  C   UNL     1     -11.948  16.288  70.405  1.00  0.00     0.069 C  
ENDROOT
BRANCH   2   3
HETATM    3  C   UNL     1     -12.789  15.077  70.011  1.00  0.00    -0.118 C  
BRANCH   3   4
HETATM    4  C   UNL     1     -12.242  13.769  70.590  1.00  0.00    -0.434 C  
HETATM    5  C   UNL     1     -11.788  12.787  69.490  1.00  0.00    -0.379 C  
HETATM    6  C   UNL     1     -10.732  13.384  68.527  1.00  0.00    -0.278 C  
HETATM    7  C   UNL     1     -11.335  11.450  70.107  1.00  0.00    -0.119 C  
HETATM    8  C   UNL     1      -9.416  13.788  69.179  1.00  0.00     0.339 C  
BRANCH   7   9
HETATM    9  O   UNL     1     -10.959  10.571  69.035  1.00  0.00    -0.213 OA 
BRANCH   9  10
HETATM   10  C   UNL     1      -9.764   9.941  69.086  1.00  0.00    -0.198 C  
HETATM   11  O   UNL     1      -9.195   9.572  70.101  1.00  0.00    -0.211 OA 
BRANCH  10  12
HETATM   12  C   UNL     1      -9.342   9.549  67.711  1.00  0.00    -0.143 C  
HETATM   13  C   UNL     1      -9.190   8.274  67.252  1.00  0.00    -0.165 C  
BRANCH  12  14
HETATM   14  C   UNL     1      -8.916  10.727  66.849  1.00  0.00    -0.139 C  
HETATM   15  H1  UNL     1      -8.277  12.495  65.557  1.00  0.00     0.000 HD 
HETATM   16  N   UNL     1      -8.563  11.705  66.135  1.00  0.00    -0.354 NA 
HETATM   17  H2  UNL     1      -8.418  12.661  66.461  1.00  0.00     0.000 HD 
ENDBRANCH  12  14
BRANCH  13  18
HETATM   18  C   UNL     1      -9.634   7.106  68.058  1.00  0.00    -0.140 A  
HETATM   19  C   UNL     1     -10.990   6.937  68.367  1.00  0.00    -0.198 A  
HETATM   20  C   UNL     1      -8.705   6.182  68.555  1.00  0.00    -0.111 A  
HETATM   21  C   UNL     1      -9.110   5.166  69.424  1.00  0.00    -0.144 A  
HETATM   22  C   UNL     1     -10.451   5.038  69.768  1.00  0.00    -0.182 A  
HETATM   23  C   UNL     1     -11.394   5.905  69.218  1.00  0.00    -0.073 A  
ENDBRANCH  13  18
BRANCH  13  24
HETATM   24  C   UNL     1      -8.502   8.045  65.950  1.00  0.00    -0.154 A  
HETATM   25  C   UNL     1      -6.477   7.471  64.730  1.00  0.00    -0.041 A  
HETATM   26  C   UNL     1      -7.148   7.673  65.938  1.00  0.00    -0.065 A  
HETATM   27  C   UNL     1      -7.151   7.604  63.521  1.00  0.00    -0.070 A  
HETATM   28  C   UNL     1      -8.495   7.982  63.520  1.00  0.00     0.146 A  
HETATM   29  C   UNL     1      -9.170   8.204  64.732  1.00  0.00     0.755 A  
BRANCH  27  30
HETATM   30  O   UNL     1      -6.385   7.405  62.402  1.00  0.00    -0.060 OA 
HETATM   31  C   UNL     1      -5.162   6.704  62.593  1.00  0.00    -0.030 C  
ENDBRANCH  27  30
ENDBRANCH  13  24
ENDBRANCH  10  12
ENDBRANCH   9  10
ENDBRANCH   7   9
ENDBRANCH   3   4
ENDBRANCH   2   3
TORSDOF 9
ENDMDL
MODEL      201
REMARK 921   NORMALIZED FREE ENERGY PREDICTED BY IDOCK:   -1.54 KCAL/MOL
REMARK 922        TOTAL FREE ENERGY PREDICTED BY IDOCK:   -4.41 KCAL/MOL
REMARK 923 INTER-LIGAND FREE ENERGY PREDICTED BY IDOCK:   -3.39 KCAL/MOL
REMARK 924 INTRA-LIGAND FREE ENERGY PREDICTED BY IDOCK:   -1.02 KCAL/MOL
REMARK 927      BINDING AFFINITY PREDICTED BY RF-SCORE:    0.00 PKD
ROOT
HETATM    1  C   UNL     1      -5.365  10.342  65.580  1.00  0.00    -0.095 C  
HETATM    2  C   UNL     1      -6.356  11.371  66.107  1.00  0.00     0.088 C  
ENDROOT
BRANCH   2   3
HETATM    3  C   UNL     1      -7.563  11.474  65.178  1.00  0.00     1.208 C  
BRANCH   3   4
HETATM    4  C   UNL     1      -8.657  10.458  65.523  1.00  0.00    -0.177 C  
HETATM    5  C   UNL     1      -9.411  10.828  66.817  1.00  0.00    -0.182 C  
HETATM    6  C   UNL     1     -10.041  12.243  66.781  1.00  0.00    -0.224 C  
HETATM    7  C   UNL     1     -10.435   9.737  67.182  1.00  0.00    -0.250 C  
HETATM    8  C   UNL     1     -11.097  12.454  65.704  1.00  0.00    -0.343 C  
BRANCH   7   9
HETATM    9  O   UNL     1     -11.077  10.121  68.407  1.00  0.00    -0.250 OA 
BRANCH   9  10
HETATM   10  C   UNL     1     -10.356  10.148  69.551  1.00  0.00    -0.240 C  
HETATM   11  O   UNL     1     -10.294  11.083  70.333  1.00  0.00     0.578 OA 
BRANCH  10  12
HETATM   12  C   UNL     1      -9.827   8.786  69.845  1.00  0.00    -0.189 C  
HETATM   13  C   UNL     1     -10.433   7.841  70.620  1.00  0.00    -0.213 C  
BRANCH  12  14
HETATM   14  C   UNL     1      -8.417   8.559  69.326  1.00  0.00    -0.128 C  
HETATM   15  H1  UNL     1      -6.300   8.217  68.548  1.00  0.00     0.000 HD 
HETATM   16  N   UNL     1      -7.246   8.370  68.896  1.00  0.00    -0.076 NA 
HETATM   17  H2  UNL     1      -6.447   8.067  69.453  1.00  0.00     0.000 HD 
ENDBRANCH  12  14
BRANCH  13  18
HETATM   18  C   UNL     1     -11.826   8.021  71.108  1.00  0.00    -0.307 A  
HETATM   19  C   UNL     1     -12.117   9.003  72.062  1.00  0.00    -0.440 A  
HETATM   20  C   UNL     1     -12.859   7.188  70.655  1.00  0.00     0.048 A  
HETATM   21  C   UNL     1     -14.135   7.271  71.217  1.00  0.00    -0.360 A  
HETATM   22  C   UNL     1     -14.401   8.215  72.203  1.00  0.00    -0.469 A  
HETATM   23  C   UNL     1     -13.401   9.098  72.605  1.00  0.00    -0.382 A  
ENDBRANCH  13  18
BRANCH  13  24
HETATM   24  C   UNL     1      -9.659   6.640  71.043  1.00  0.00    -0.178 A  
HETATM   25  C   UNL     1      -8.879   4.384  70.570  1.00  0.00    -0.136 A  
HETATM   26  C   UNL     1      -9.584   5.528  70.187  1.00  0.00    -0.223 A  
HETATM   27  C   UNL     1      -8.214   4.344  71.790  1.00  0.00    -0.101 A  
HETATM   28  C   UNL     1      -8.289   5.439  72.653  1.00  0.00    -0.114 A  
HETATM   29  C   UNL     1      -9.012   6.585  72.280  1.00  0.00    -0.138 A  
BRANCH  27  30
HETATM   30  O   UNL     1      -7.577   3.162  72.067  1.00  0.00    -0.051 OA 
HETATM   31  C   UNL     1      -8.092   2.003  71.423  1.00  0.00    -0.047 C  
ENDBRANCH  27  30
ENDBRANCH  13  24
ENDBRANCH  10  12
ENDBRANCH   9  10
ENDBRANCH   7   9
ENDBRANCH   3   4
ENDBRANCH   2   3
TORSDOF 9
ENDMDL
MODEL      202
REMARK 921   NORMALIZED FREE ENERGY PREDICTED BY IDOCK:   -1.25 KCAL/MOL
REMARK 922        TOTAL FREE ENERGY PREDICTED BY IDOCK:   -3.98 KCAL/MOL
REMARK 923 INTER-LIGAND FREE ENERGY PREDICTED BY IDOCK:   -6.77 KCAL/MOL
REMARK 924 INTRA-LIGAND FREE ENERGY PREDICTED BY IDOCK:    2.79 KCAL/MOL
REMARK 927      BINDING AFFINITY PREDICTED BY RF-SCORE:    0.00 PKD
ROOT
HETATM    1  C   UNL     1      -6.128   7.294  70.554  1.00  0.00    -0.031 C  
HETATM    2  C   UNL     1      -5.137   6.173  70.268  1.00  0.00    -0.013 C  
ENDROOT
BRANCH   2   3
HETATM    3  C   UNL     1      -5.737   5.168  69.289  1.00  0.00    -0.015 C  
BRANCH   3   4
HETATM    4  C   UNL     1      -7.263   5.093  69.388  1.00  0.00    -0.057 C  
HETATM    5  C   UNL     1      -7.939   6.436  69.043  1.00  0.00    -0.111 C  
HETATM    6  C   UNL     1      -7.558   6.977  67.642  1.00  0.00    -0.110 C  
HETATM    7  C   UNL     1      -9.463   6.347  69.246  1.00  0.00    -0.135 C  
HETATM    8  C   UNL     1      -7.963   6.088  66.473  1.00  0.00    -0.105 C  
BRANCH   7   9
HETATM    9  O   UNL     1     -10.028   7.632  68.943  1.00  0.00    -0.167 OA 
BRANCH   9  10
HETATM   10  C   UNL     1     -10.633   7.824  67.749  1.00  0.00    -0.185 C  
HETATM   11  O   UNL     1     -11.466   7.087  67.246  1.00  0.00    -0.079 OA 
BRANCH  10  12
HETATM   12  C   UNL     1     -10.310   9.185  67.234  1.00  0.00    -0.338 C  
HETATM   13  C   UNL     1     -10.666  10.366  67.815  1.00  0.00    -0.327 C  
BRANCH  12  14
HETATM   14  C   UNL     1      -9.660   9.174  65.859  1.00  0.00    -0.273 C  
HETATM   15  H1  UNL     1      -8.685   9.158  63.797  1.00  0.00     0.000 HD 
HETATM   16  N   UNL     1      -9.121   9.165  64.719  1.00  0.00    -0.423 NA 
HETATM   17  H2  UNL     1      -8.766   8.341  64.234  1.00  0.00     0.000 HD 
ENDBRANCH  12  14
BRANCH  13  18
HETATM   18  C   UNL     1     -11.267  10.407  69.174  1.00  0.00    -0.301 A  
HETATM   19  C   UNL     1     -11.092   9.333  70.055  1.00  0.00    -0.228 A  
HETATM   20  C   UNL     1     -12.051  11.496  69.580  1.00  0.00    -0.351 A  
HETATM   21  C   UNL     1     -12.725  11.469  70.802  1.00  0.00    -0.318 A  
HETATM   22  C   UNL     1     -12.588  10.373  71.649  1.00  0.00    -0.521 A  
HETATM   23  C   UNL     1     -11.750   9.320  71.288  1.00  0.00    -0.416 A  
ENDBRANCH  13  18
BRANCH  13  24
HETATM   24  C   UNL     1     -10.513  11.633  67.044  1.00  0.00    -0.258 A  
HETATM   25  C   UNL     1     -11.363  13.169  65.359  1.00  0.00    -0.323 A  
HETATM   26  C   UNL     1     -11.494  11.995  66.106  1.00  0.00    -0.401 A  
HETATM   27  C   UNL     1     -10.274  14.010  65.557  1.00  0.00    -0.343 A  
HETATM   28  C   UNL     1      -9.287  13.655  66.480  1.00  0.00    -0.242 A  
HETATM   29  C   UNL     1      -9.406  12.467  67.221  1.00  0.00    -0.184 A  
BRANCH  27  30
HETATM   30  O   UNL     1     -10.240  15.118  64.751  1.00  0.00    -0.288 OA 
HETATM   31  C   UNL     1     -11.352  16.000  64.845  1.00  0.00    -0.229 C  
ENDBRANCH  27  30
ENDBRANCH  13  24
ENDBRANCH  10  12
ENDBRANCH   9  10
ENDBRANCH   7   9
ENDBRANCH   3   4
ENDBRANCH   2   3
TORSDOF 9
ENDMDL
MODEL      203
REMARK 921   NORMALIZED FREE ENERGY PREDICTED BY IDOCK:   -0.94 KCAL/MOL
REMARK 922        TOTAL FREE ENERGY PREDICTED BY IDOCK:   -3.50 KCAL/MOL
REMARK 923 INTER-LIGAND FREE ENERGY PREDICTED BY IDOCK:   -6.32 KCAL/MOL
REMARK 924 INTRA-LIGAND FREE ENERGY PREDICTED BY IDOCK:    2.82 KCAL/MOL
REMARK 927      BINDING AFFINITY PREDICTED BY RF-SCORE:    0.00 PKD
ROOT
HETATM    1  C   UNL     1      -5.607   6.196  72.401  1.00  0.00    -0.036 C  
HETATM    2  C   UNL     1      -5.421   6.915  73.731  1.00  0.00    -0.046 C  
ENDROOT
BRANCH   2   3
HETATM    3  C   UNL     1      -6.390   8.088  73.843  1.00  0.00    -0.113 C  
BRANCH   3   4
HETATM    4  C   UNL     1      -6.961   8.509  72.486  1.00  0.00    -0.071 C  
HETATM    5  C   UNL     1      -7.870   7.424  71.872  1.00  0.00    -0.091 C  
HETATM    6  C   UNL     1      -9.042   7.006  72.795  1.00  0.00    -0.155 C  
HETATM    7  C   UNL     1      -8.347   7.844  70.468  1.00  0.00    -0.124 C  
HETATM    8  C   UNL     1     -10.027   8.117  73.135  1.00  0.00    -0.233 C  
BRANCH   7   9
HETATM    9  O   UNL     1      -9.157   6.783  69.939  1.00  0.00    -0.144 OA 
BRANCH   9  10
HETATM   10  C   UNL     1     -10.202   7.087  69.137  1.00  0.00    -0.187 C  
HETATM   11  O   UNL     1     -11.035   6.298  68.721  1.00  0.00    -0.298 OA 
BRANCH  10  12
HETATM   12  C   UNL     1     -10.332   8.567  69.018  1.00  0.00    -0.229 C  
HETATM   13  C   UNL     1     -11.281   9.340  69.622  1.00  0.00    -0.061 C  
BRANCH  12  14
HETATM   14  C   UNL     1      -9.383   9.179  68.001  1.00  0.00    -0.137 C  
HETATM   15  H1  UNL     1      -7.959  10.097  66.473  1.00  0.00     0.000 HD 
HETATM   16  N   UNL     1      -8.596   9.686  67.156  1.00  0.00    -0.131 NA 
HETATM   17  H2  UNL     1      -8.764   9.760  66.152  1.00  0.00     0.000 HD 
ENDBRANCH  12  14
BRANCH  13  18
HETATM   18  C   UNL     1     -12.196   8.775  70.649  1.00  0.00     0.052 A  
HETATM   19  C   UNL     1     -12.296   7.389  70.818  1.00  0.00    -0.167 A  
HETATM   20  C   UNL     1     -13.001   9.614  71.432  1.00  0.00    -0.474 A  
HETATM   21  C   UNL     1     -13.956   9.076  72.297  1.00  0.00    -0.522 A  
HETATM   22  C   UNL     1     -14.085   7.696  72.420  1.00  0.00     0.007 A  
HETATM   23  C   UNL     1     -13.237   6.854  71.702  1.00  0.00    -0.315 A  
ENDBRANCH  13  18
BRANCH  13  24
HETATM   24  C   UNL     1     -11.449  10.756  69.191  1.00  0.00    -0.368 A  
HETATM   25  C   UNL     1     -11.583  12.392  67.394  1.00  0.00    -0.433 A  
HETATM   26  C   UNL     1     -11.445  11.069  67.821  1.00  0.00    -0.339 A  
HETATM   27  C   UNL     1     -11.758  13.414  68.320  1.00  0.00    -0.356 A  
HETATM   28  C   UNL     1     -11.754  13.117  69.684  1.00  0.00    -0.370 A  
HETATM   29  C   UNL     1     -11.598  11.790  70.119  1.00  0.00    -0.281 A  
BRANCH  27  30
HETATM   30  O   UNL     1     -11.858  14.672  67.785  1.00  0.00    -0.357 OA 
HETATM   31  C   UNL     1     -11.684  15.757  68.689  1.00  0.00    -0.344 C  
ENDBRANCH  27  30
ENDBRANCH  13  24
ENDBRANCH  10  12
ENDBRANCH   9  10
ENDBRANCH   7   9
ENDBRANCH   3   4
ENDBRANCH   2   3
TORSDOF 9
ENDMDL
MODEL      204
REMARK 921   NORMALIZED FREE ENERGY PREDICTED BY IDOCK:   -0.71 KCAL/MOL
REMARK 922        TOTAL FREE ENERGY PREDICTED BY IDOCK:   -3.15 KCAL/MOL
REMARK 923 INTER-LIGAND FREE ENERGY PREDICTED BY IDOCK:   -3.05 KCAL/MOL
REMARK 924 INTRA-LIGAND FREE ENERGY PREDICTED BY IDOCK:   -0.10 KCAL/MOL
REMARK 927      BINDING AFFINITY PREDICTED BY RF-SCORE:    0.00 PKD
ROOT
HETATM    1  C   UNL     1      -6.029  13.872  67.822  1.00  0.00    -0.117 C  
HETATM    2  C   UNL     1      -6.183  12.572  67.044  1.00  0.00     0.096 C  
ENDROOT
BRANCH   2   3
HETATM    3  C   UNL     1      -5.333  11.471  67.670  1.00  0.00    -0.054 C  
BRANCH   3   4
HETATM    4  C   UNL     1      -6.000  10.094  67.580  1.00  0.00    -0.053 C  
HETATM    5  C   UNL     1      -6.472   9.582  68.957  1.00  0.00    -0.046 C  
HETATM    6  C   UNL     1      -7.437  10.555  69.679  1.00  0.00    -0.145 C  
HETATM    7  C   UNL     1      -7.048   8.158  68.840  1.00  0.00    -0.066 C  
HETATM    8  C   UNL     1      -8.749  10.823  68.952  1.00  0.00    -0.154 C  
BRANCH   7   9
HETATM    9  O   UNL     1      -7.436   7.727  70.153  1.00  0.00    -0.079 OA 
BRANCH   9  10
HETATM   10  C   UNL     1      -8.520   6.930  70.293  1.00  0.00    -0.139 C  
HETATM   11  O   UNL     1      -9.216   6.844  71.292  1.00  0.00    -0.156 OA 
BRANCH  10  12
HETATM   12  C   UNL     1      -8.886   6.341  68.974  1.00  0.00    -0.124 C  
HETATM   13  C   UNL     1      -8.609   5.071  68.559  1.00  0.00    -0.097 C  
BRANCH  12  14
HETATM   14  C   UNL     1      -9.481   7.349  68.004  1.00  0.00    -0.141 C  
HETATM   15  H1  UNL     1     -10.374   8.861  66.548  1.00  0.00     0.000 HD 
HETATM   16  N   UNL     1      -9.975   8.185  67.199  1.00  0.00    -0.210 NA 
HETATM   17  H2  UNL     1      -9.599   8.423  66.281  1.00  0.00     0.000 HD 
ENDBRANCH  12  14
BRANCH  13  18
HETATM   18  C   UNL     1      -8.062   4.055  69.497  1.00  0.00    -0.061 A  
HETATM   19  C   UNL     1      -8.851   3.568  70.546  1.00  0.00    -0.142 A  
HETATM   20  C   UNL     1      -6.742   3.601  69.374  1.00  0.00    -0.037 A  
HETATM   21  C   UNL     1      -6.191   2.752  70.337  1.00  0.00    -0.023 A  
HETATM   22  C   UNL     1      -6.967   2.315  71.405  1.00  0.00    -0.031 A  
HETATM   23  C   UNL     1      -8.303   2.700  71.495  1.00  0.00    -0.080 A  
ENDBRANCH  13  18
BRANCH  13  24
HETATM   24  C   UNL     1      -8.791   4.718  67.123  1.00  0.00    -0.107 A  
HETATM   25  C   UNL     1      -7.809   4.185  64.961  1.00  0.00    -0.089 A  
HETATM   26  C   UNL     1      -7.663   4.499  66.315  1.00  0.00    -0.094 A  
HETATM   27  C   UNL     1      -9.076   4.052  64.404  1.00  0.00    -0.142 A  
HETATM   28  C   UNL     1     -10.204   4.276  65.195  1.00  0.00    -0.228 A  
HETATM   29  C   UNL     1     -10.062   4.610  66.553  1.00  0.00    -0.279 A  
BRANCH  27  30
HETATM   30  O   UNL     1      -9.094   3.765  63.064  1.00  0.00    -0.097 OA 
HETATM   31  C   UNL     1     -10.280   4.117  62.361  1.00  0.00    -0.152 C  
ENDBRANCH  27  30
ENDBRANCH  13  24
ENDBRANCH  10  12
ENDBRANCH   9  10
ENDBRANCH   7   9
ENDBRANCH   3   4
ENDBRANCH   2   3
TORSDOF 9
ENDMDL
MODEL      205
REMARK 921   NORMALIZED FREE ENERGY PREDICTED BY IDOCK:   -0.59 KCAL/MOL
REMARK 922        TOTAL FREE ENERGY PREDICTED BY IDOCK:   -2.97 KCAL/MOL
REMARK 923 INTER-LIGAND FREE ENERGY PREDICTED BY IDOCK:   -3.43 KCAL/MOL
REMARK 924 INTRA-LIGAND FREE ENERGY PREDICTED BY IDOCK:    0.46 KCAL/MOL
REMARK 927      BINDING AFFINITY PREDICTED BY RF-SCORE:    0.00 PKD
ROOT
HETATM    1  C   UNL     1      -6.125  12.574  70.597  1.00  0.00     0.175 C  
HETATM    2  C   UNL     1      -5.678  11.831  69.345  1.00  0.00    -0.067 C  
ENDROOT
BRANCH   2   3
HETATM    3  C   UNL     1      -5.150  10.447  69.707  1.00  0.00    -0.038 C  
BRANCH   3   4
HETATM    4  C   UNL     1      -6.270   9.412  69.857  1.00  0.00    -0.040 C  
HETATM    5  C   UNL     1      -7.491   9.741  68.974  1.00  0.00    -0.080 C  
HETATM    6  C   UNL     1      -7.146   9.884  67.471  1.00  0.00    -0.088 C  
HETATM    7  C   UNL     1      -8.630   8.734  69.224  1.00  0.00    -0.130 C  
HETATM    8  C   UNL     1      -6.584   8.630  66.814  1.00  0.00    -0.061 C  
BRANCH   7   9
HETATM    9  O   UNL     1      -9.746   9.112  68.403  1.00  0.00    -0.147 OA 
BRANCH   9  10
HETATM   10  C   UNL     1     -10.699   8.195  68.120  1.00  0.00    -0.029 C  
HETATM   11  O   UNL     1     -11.590   8.324  67.296  1.00  0.00     1.268 OA 
BRANCH  10  12
HETATM   12  C   UNL     1     -10.372   6.906  68.793  1.00  0.00    -0.200 C  
HETATM   13  C   UNL     1     -10.747   6.543  70.053  1.00  0.00    -0.302 C  
BRANCH  12  14
HETATM   14  C   UNL     1      -9.409   6.036  68.001  1.00  0.00    -0.114 C  
HETATM   15  H1  UNL     1      -7.964   4.731  66.813  1.00  0.00     0.000 HD 
HETATM   16  N   UNL     1      -8.610   5.315  67.344  1.00  0.00    -0.106 NA 
HETATM   17  H2  UNL     1      -8.866   4.515  66.765  1.00  0.00     0.000 HD 
ENDBRANCH  12  14
BRANCH  13  18
HETATM   18  C   UNL     1     -11.717   7.355  70.834  1.00  0.00    -0.325 A  
HETATM   19  C   UNL     1     -13.022   6.890  71.037  1.00  0.00    -0.167 A  
HETATM   20  C   UNL     1     -11.358   8.611  71.341  1.00  0.00    -0.350 A  
HETATM   21  C   UNL     1     -12.310   9.428  71.953  1.00  0.00    -0.450 A  
HETATM   22  C   UNL     1     -13.618   8.980  72.104  1.00  0.00    -0.523 A  
HETATM   23  C   UNL     1     -13.967   7.701  71.671  1.00  0.00    -0.510 A  
ENDBRANCH  13  18
BRANCH  13  24
HETATM   24  C   UNL     1     -10.117   5.349  70.684  1.00  0.00    -0.300 A  
HETATM   25  C   UNL     1      -9.045   4.327  72.616  1.00  0.00    -0.127 A  
HETATM   26  C   UNL     1      -9.655   5.428  72.009  1.00  0.00    -0.186 A  
HETATM   27  C   UNL     1      -8.916   3.127  71.926  1.00  0.00    -0.092 A  
HETATM   28  C   UNL     1      -9.363   3.039  70.606  1.00  0.00    -0.221 A  
HETATM   29  C   UNL     1      -9.961   4.149  69.985  1.00  0.00    -0.137 A  
BRANCH  27  30
HETATM   30  O   UNL     1      -8.281   2.126  72.614  1.00  0.00    -0.053 OA 
HETATM   31  C   UNL     1      -7.112   1.589  72.007  1.00  0.00    -0.030 C  
ENDBRANCH  27  30
ENDBRANCH  13  24
ENDBRANCH  10  12
ENDBRANCH   9  10
ENDBRANCH   7   9
ENDBRANCH   3   4
ENDBRANCH   2   3
TORSDOF 9
ENDMDL
MODEL      206
REMARK 921   NORMALIZED FREE ENERGY PREDICTED BY IDOCK:   -0.17 KCAL/MOL
REMARK 922        TOTAL FREE ENERGY PREDICTED BY IDOCK:   -2.33 KCAL/MOL
REMARK 923 INTER-LIGAND FREE ENERGY PREDICTED BY IDOCK:   -1.39 KCAL/MOL
REMARK 924 INTRA-LIGAND FREE ENERGY PREDICTED BY IDOCK:   -0.94 KCAL/MOL
REMARK 927      BINDING AFFINITY PREDICTED BY RF-SCORE:    0.00 PKD
ROOT
HETATM    1  C   UNL     1     -13.143  16.781  74.197  1.00  0.00     0.554 C  
HETATM    2  C   UNL     1     -13.285  15.959  72.923  1.00  0.00    -0.619 C  
ENDROOT
BRANCH   2   3
HETATM    3  C   UNL     1     -11.915  15.688  72.308  1.00  0.00    -0.562 C  
BRANCH   3   4
HETATM    4  C   UNL     1     -11.609  14.191  72.194  1.00  0.00     0.996 C  
HETATM    5  C   UNL     1     -12.539  13.479  71.190  1.00  0.00    -0.438 C  
HETATM    6  C   UNL     1     -12.509  14.101  69.772  1.00  0.00    -0.266 C  
HETATM    7  C   UNL     1     -12.266  11.963  71.175  1.00  0.00    -0.065 C  
HETATM    8  C   UNL     1     -11.157  14.050  69.072  1.00  0.00    -0.296 C  
BRANCH   7   9
HETATM    9  O   UNL     1     -13.181  11.355  70.251  1.00  0.00     0.232 OA 
BRANCH   9  10
HETATM   10  C   UNL     1     -12.802  10.246  69.578  1.00  0.00     0.831 C  
HETATM   11  O   UNL     1     -12.669  10.157  68.368  1.00  0.00     1.718 OA 
BRANCH  10  12
HETATM   12  C   UNL     1     -12.341   9.205  70.540  1.00  0.00     0.125 C  
HETATM   13  C   UNL     1     -11.090   8.665  70.599  1.00  0.00    -0.282 C  
BRANCH  12  14
HETATM   14  C   UNL     1     -13.460   8.637  71.399  1.00  0.00    -0.232 C  
HETATM   15  H1  UNL     1     -15.138   7.784  72.688  1.00  0.00     0.000 HD 
HETATM   16  N   UNL     1     -14.388   8.166  72.112  1.00  0.00    -0.588 NA 
HETATM   17  H2  UNL     1     -15.099   7.503  71.803  1.00  0.00     0.000 HD 
ENDBRANCH  12  14
BRANCH  13  18
HETATM   18  C   UNL     1      -9.970   9.226  69.798  1.00  0.00    -0.213 A  
HETATM   19  C   UNL     1      -9.928   9.034  68.412  1.00  0.00    -0.200 A  
HETATM   20  C   UNL     1      -8.920   9.918  70.419  1.00  0.00    -0.003 A  
HETATM   21  C   UNL     1      -7.805  10.323  69.683  1.00  0.00    -0.168 A  
HETATM   22  C   UNL     1      -7.748  10.080  68.315  1.00  0.00    -0.084 A  
HETATM   23  C   UNL     1      -8.821   9.462  67.675  1.00  0.00    -0.118 A  
ENDBRANCH  13  18
BRANCH  13  24
HETATM   24  C   UNL     1     -10.860   7.447  71.426  1.00  0.00    -0.250 A  
HETATM   25  C   UNL     1     -10.909   5.023  71.634  1.00  0.00    -0.058 A  
HETATM   26  C   UNL     1     -11.100   6.178  70.872  1.00  0.00    -0.371 A  
HETATM   27  C   UNL     1     -10.447   5.113  72.943  1.00  0.00    -0.211 A  
HETATM   28  C   UNL     1     -10.214   6.369  73.507  1.00  0.00    -0.262 A  
HETATM   29  C   UNL     1     -10.422   7.535  72.750  1.00  0.00    -0.348 A  
BRANCH  27  30
HETATM   30  O   UNL     1     -10.321   3.916  73.598  1.00  0.00    -0.139 OA 
HETATM   31  C   UNL     1     -11.430   3.030  73.510  1.00  0.00    -0.071 C  
ENDBRANCH  27  30
ENDBRANCH  13  24
ENDBRANCH  10  12
ENDBRANCH   9  10
ENDBRANCH   7   9
ENDBRANCH   3   4
ENDBRANCH   2   3
TORSDOF 9
ENDMDL
MODEL      207
REMARK 921   NORMALIZED FREE ENERGY PREDICTED BY IDOCK:    1.07 KCAL/MOL
REMARK 922        TOTAL FREE ENERGY PREDICTED BY IDOCK:   -0.44 KCAL/MOL
REMARK 923 INTER-LIGAND FREE ENERGY PREDICTED BY IDOCK:   -3.00 KCAL/MOL
REMARK 924 INTRA-LIGAND FREE ENERGY PREDICTED BY IDOCK:    2.56 KCAL/MOL
REMARK 927      BINDING AFFINITY PREDICTED BY RF-SCORE:    0.00 PKD
ROOT
HETATM    1  C   UNL     1      -7.613   3.876  70.244  1.00  0.00    -0.045 C  
HETATM    2  C   UNL     1      -7.538   3.084  68.946  1.00  0.00    -0.048 C  
ENDROOT
BRANCH   2   3
HETATM    3  C   UNL     1      -8.878   3.128  68.217  1.00  0.00    -0.163 C  
BRANCH   3   4
HETATM    4  C   UNL     1      -9.591   4.474  68.381  1.00  0.00    -0.207 C  
HETATM    5  C   UNL     1      -8.634   5.588  68.853  1.00  0.00    -0.100 C  
HETATM    6  C   UNL     1      -7.410   5.785  67.924  1.00  0.00    -0.077 C  
HETATM    7  C   UNL     1      -9.405   6.900  69.098  1.00  0.00    -0.140 C  
HETATM    8  C   UNL     1      -7.741   6.208  66.498  1.00  0.00    -0.103 C  
BRANCH   7   9
HETATM    9  O   UNL     1      -8.470   7.884  69.566  1.00  0.00    -0.129 OA 
BRANCH   9  10
HETATM   10  C   UNL     1      -8.932   8.987  70.196  1.00  0.00    -0.184 C  
HETATM   11  O   UNL     1      -8.569   9.387  71.291  1.00  0.00    -0.299 OA 
BRANCH  10  12
HETATM   12  C   UNL     1      -9.783   9.781  69.265  1.00  0.00    -0.204 C  
HETATM   13  C   UNL     1      -9.334  10.608  68.278  1.00  0.00    -0.156 C  
BRANCH  12  14
HETATM   14  C   UNL     1     -11.264   9.729  69.604  1.00  0.00    -0.178 C  
HETATM   15  H1  UNL     1     -13.486   9.650  70.113  1.00  0.00     0.000 HD 
HETATM   16  N   UNL     1     -12.493   9.685  69.885  1.00  0.00    -0.150 NA 
HETATM   17  H2  UNL     1     -13.117   8.897  69.714  1.00  0.00     0.000 HD 
ENDBRANCH  12  14
BRANCH  13  18
HETATM   18  C   UNL     1      -7.897  10.649  67.900  1.00  0.00    -0.105 A  
HETATM   19  C   UNL     1      -7.388  11.736  67.179  1.00  0.00    -0.146 A  
HETATM   20  C   UNL     1      -7.039   9.588  68.221  1.00  0.00    -0.075 A  
HETATM   21  C   UNL     1      -5.726   9.568  67.747  1.00  0.00    -0.041 A  
HETATM   22  C   UNL     1      -5.245  10.628  66.985  1.00  0.00    -0.043 A  
HETATM   23  C   UNL     1      -6.066  11.724  66.726  1.00  0.00    -0.102 A  
ENDBRANCH  13  18
BRANCH  13  24
HETATM   24  C   UNL     1     -10.292  11.539  67.616  1.00  0.00    -0.209 A  
HETATM   25  C   UNL     1     -11.465  13.671  67.606  1.00  0.00    -0.357 A  
HETATM   26  C   UNL     1     -10.557  12.789  68.198  1.00  0.00    -0.242 A  
HETATM   27  C   UNL     1     -12.093  13.334  66.412  1.00  0.00    -0.394 A  
HETATM   28  C   UNL     1     -11.844  12.090  65.828  1.00  0.00    -0.236 A  
HETATM   29  C   UNL     1     -10.946  11.193  66.430  1.00  0.00    -0.248 A  
BRANCH  27  30
HETATM   30  O   UNL     1     -12.980  14.266  65.938  1.00  0.00    -0.380 OA 
HETATM   31  C   UNL     1     -12.593  15.628  66.073  1.00  0.00     1.758 C  
ENDBRANCH  27  30
ENDBRANCH  13  24
ENDBRANCH  10  12
ENDBRANCH   9  10
ENDBRANCH   7   9
ENDBRANCH   3   4
ENDBRANCH   2   3
TORSDOF 9
ENDMDL
MODEL      208
REMARK 921   NORMALIZED FREE ENERGY PREDICTED BY IDOCK:    1.20 KCAL/MOL
REMARK 922        TOTAL FREE ENERGY PREDICTED BY IDOCK:   -0.24 KCAL/MOL
REMARK 923 INTER-LIGAND FREE ENERGY PREDICTED BY IDOCK:   -3.34 KCAL/MOL
REMARK 924 INTRA-LIGAND FREE ENERGY PREDICTED BY IDOCK:    3.10 KCAL/MOL
REMARK 927      BINDING AFFINITY PREDICTED BY RF-SCORE:    0.00 PKD
ROOT
HETATM    1  C   UNL     1      -7.025  13.145  68.799  1.00  0.00    -0.103 C  
HETATM    2  C   UNL     1      -7.115  12.414  67.466  1.00  0.00    -0.145 C  
ENDROOT
BRANCH   2   3
HETATM    3  C   UNL     1      -5.846  11.606  67.213  1.00  0.00    -0.111 C  
BRANCH   3   4
HETATM    4  C   UNL     1      -6.144  10.163  66.795  1.00  0.00    -0.060 C  
HETATM    5  C   UNL     1      -6.036   9.177  67.976  1.00  0.00    -0.050 C  
HETATM    6  C   UNL     1      -6.949   9.545  69.173  1.00  0.00    -0.057 C  
HETATM    7  C   UNL     1      -6.247   7.728  67.498  1.00  0.00    -0.050 C  
HETATM    8  C   UNL     1      -8.442   9.546  68.872  1.00  0.00    -0.123 C  
BRANCH   7   9
HETATM    9  O   UNL     1      -6.102   6.859  68.632  1.00  0.00    -0.024 OA 
BRANCH   9  10
HETATM   10  C   UNL     1      -7.064   5.946  68.893  1.00  0.00    -0.073 C  
HETATM   11  O   UNL     1      -6.912   4.735  68.903  1.00  0.00    -0.050 OA 
BRANCH  10  12
HETATM   12  C   UNL     1      -8.287   6.632  69.396  1.00  0.00    -0.128 C  
HETATM   13  C   UNL     1      -8.489   7.080  70.668  1.00  0.00    -0.139 C  
BRANCH  12  14
HETATM   14  C   UNL     1      -9.423   6.664  68.385  1.00  0.00    -0.125 C  
HETATM   15  H1  UNL     1     -11.127   6.712  66.869  1.00  0.00     0.000 HD 
HETATM   16  N   UNL     1     -10.365   6.690  67.547  1.00  0.00    -0.181 NA 
HETATM   17  H2  UNL     1     -10.939   7.503  67.319  1.00  0.00     0.000 HD 
ENDBRANCH  12  14
BRANCH  13  18
HETATM   18  C   UNL     1      -7.386   7.096  71.664  1.00  0.00    -0.085 A  
HETATM   19  C   UNL     1      -7.559   6.498  72.918  1.00  0.00    -0.097 A  
HETATM   20  C   UNL     1      -6.174   7.743  71.383  1.00  0.00    -0.035 A  
HETATM   21  C   UNL     1      -5.194   7.874  72.369  1.00  0.00    -0.036 A  
HETATM   22  C   UNL     1      -5.397   7.322  73.630  1.00  0.00    -0.046 A  
HETATM   23  C   UNL     1      -6.566   6.611  73.895  1.00  0.00    -0.072 A  
ENDBRANCH  13  18
BRANCH  13  24
HETATM   24  C   UNL     1      -9.859   7.494  71.086  1.00  0.00    -0.180 A  
HETATM   25  C   UNL     1     -11.704   7.320  72.663  1.00  0.00    -0.203 A  
HETATM   26  C   UNL     1     -10.415   6.961  72.261  1.00  0.00    -0.233 A  
HETATM   27  C   UNL     1     -12.441   8.237  71.922  1.00  0.00    -0.337 A  
HETATM   28  C   UNL     1     -11.903   8.766  70.747  1.00  0.00    -0.209 A  
HETATM   29  C   UNL     1     -10.613   8.394  70.329  1.00  0.00    -0.234 A  
BRANCH  27  30
HETATM   30  O   UNL     1     -13.700   8.493  72.400  1.00  0.00    -0.343 OA 
HETATM   31  C   UNL     1     -14.217   9.794  72.147  1.00  0.00     0.185 C  
ENDBRANCH  27  30
ENDBRANCH  13  24
ENDBRANCH  10  12
ENDBRANCH   9  10
ENDBRANCH   7   9
ENDBRANCH   3   4
ENDBRANCH   2   3
TORSDOF 9
ENDMDL
MODEL      209
REMARK 921   NORMALIZED FREE ENERGY PREDICTED BY IDOCK:    1.33 KCAL/MOL
REMARK 922        TOTAL FREE ENERGY PREDICTED BY IDOCK:   -0.04 KCAL/MOL
REMARK 923 INTER-LIGAND FREE ENERGY PREDICTED BY IDOCK:   -1.81 KCAL/MOL
REMARK 924 INTRA-LIGAND FREE ENERGY PREDICTED BY IDOCK:    1.77 KCAL/MOL
REMARK 927      BINDING AFFINITY PREDICTED BY RF-SCORE:    0.00 PKD
ROOT
HETATM    1  C   UNL     1     -11.636  11.334  67.976  1.00  0.00    -0.343 C  
HETATM    2  C   UNL     1     -12.370  12.608  68.372  1.00  0.00     0.305 C  
ENDROOT
BRANCH   2   3
HETATM    3  C   UNL     1     -12.362  12.779  69.888  1.00  0.00    -0.138 C  
BRANCH   3   4
HETATM    4  C   UNL     1     -10.983  13.173  70.426  1.00  0.00     1.258 C  
HETATM    5  C   UNL     1     -10.464  14.484  69.801  1.00  0.00     0.049 C  
HETATM    6  C   UNL     1     -11.429  15.681  69.988  1.00  0.00    -0.352 C  
HETATM    7  C   UNL     1      -9.038  14.795  70.294  1.00  0.00     1.087 C  
HETATM    8  C   UNL     1     -11.694  16.080  71.433  1.00  0.00    -0.536 C  
BRANCH   7   9
HETATM    9  O   UNL     1      -8.599  16.003  69.654  1.00  0.00    -0.130 OA 
BRANCH   9  10
HETATM   10  C   UNL     1      -8.065  15.937  68.413  1.00  0.00    -0.149 C  
HETATM   11  O   UNL     1      -6.968  16.361  68.087  1.00  0.00    -0.127 OA 
BRANCH  10  12
HETATM   12  C   UNL     1      -8.909  15.065  67.547  1.00  0.00    -0.193 C  
HETATM   13  C   UNL     1      -8.652  13.764  67.228  1.00  0.00    -0.221 C  
BRANCH  12  14
HETATM   14  C   UNL     1     -10.055  15.805  66.877  1.00  0.00    -0.266 C  
HETATM   15  H1  UNL     1     -11.775  16.915  65.870  1.00  0.00     0.000 HD 
HETATM   16  N   UNL     1     -11.006  16.419  66.320  1.00  0.00    -0.045 NA 
HETATM   17  H2  UNL     1     -10.920  17.072  65.541  1.00  0.00     0.000 HD 
ENDBRANCH  12  14
BRANCH  13  18
HETATM   18  C   UNL     1      -7.561  13.007  67.897  1.00  0.00    -0.144 A  
HETATM   19  C   UNL     1      -7.855  11.856  68.638  1.00  0.00    -0.104 A  
HETATM   20  C   UNL     1      -6.234  13.452  67.832  1.00  0.00    -0.147 A  
HETATM   21  C   UNL     1      -5.235  12.816  68.574  1.00  0.00    -0.060 A  
HETATM   22  C   UNL     1      -5.546  11.705  69.350  1.00  0.00    -0.057 A  
HETATM   23  C   UNL     1      -6.849  11.208  69.360  1.00  0.00    -0.125 A  
ENDBRANCH  13  18
BRANCH  13  24
HETATM   24  C   UNL     1      -9.433  13.114  66.138  1.00  0.00    -0.156 A  
HETATM   25  C   UNL     1     -11.191  13.249  64.461  1.00  0.00    -0.387 A  
HETATM   26  C   UNL     1     -10.433  13.843  65.473  1.00  0.00    -0.333 A  
HETATM   27  C   UNL     1     -10.942  11.937  64.075  1.00  0.00    -0.381 A  
HETATM   28  C   UNL     1      -9.957  11.199  64.735  1.00  0.00    -0.339 A  
HETATM   29  C   UNL     1      -9.205  11.786  65.767  1.00  0.00    -0.148 A  
BRANCH  27  30
HETATM   30  O   UNL     1     -11.764  11.454  63.090  1.00  0.00    -0.122 OA 
HETATM   31  C   UNL     1     -13.086  11.977  63.060  1.00  0.00     0.495 C  
ENDBRANCH  27  30
ENDBRANCH  13  24
ENDBRANCH  10  12
ENDBRANCH   9  10
ENDBRANCH   7   9
ENDBRANCH   3   4
ENDBRANCH   2   3
TORSDOF 9
ENDMDL
MODEL      210
REMARK 921   NORMALIZED FREE ENERGY PREDICTED BY IDOCK:    1.71 KCAL/MOL
REMARK 922        TOTAL FREE ENERGY PREDICTED BY IDOCK:    0.54 KCAL/MOL
REMARK 923 INTER-LIGAND FREE ENERGY PREDICTED BY IDOCK:   -1.81 KCAL/MOL
REMARK 924 INTRA-LIGAND FREE ENERGY PREDICTED BY IDOCK:    2.35 KCAL/MOL
REMARK 927      BINDING AFFINITY PREDICTED BY RF-SCORE:    0.00 PKD
ROOT
HETATM    1  C   UNL     1     -12.312   5.050  73.012  1.00  0.00     0.371 C  
HETATM    2  C   UNL     1     -11.527   5.965  73.943  1.00  0.00     1.111 C  
ENDROOT
BRANCH   2   3
HETATM    3  C   UNL     1     -10.039   5.917  73.609  1.00  0.00    -0.213 C  
BRANCH   3   4
HETATM    4  C   UNL     1      -9.768   5.327  72.222  1.00  0.00    -0.192 C  
HETATM    5  C   UNL     1      -8.299   5.504  71.788  1.00  0.00    -0.120 C  
HETATM    6  C   UNL     1      -7.283   4.901  72.790  1.00  0.00    -0.084 C  
HETATM    7  C   UNL     1      -8.088   4.987  70.352  1.00  0.00    -0.085 C  
HETATM    8  C   UNL     1      -7.393   3.397  72.997  1.00  0.00    -0.051 C  
BRANCH   7   9
HETATM    9  O   UNL     1      -6.715   5.209  69.996  1.00  0.00    -0.040 OA 
BRANCH   9  10
HETATM   10  C   UNL     1      -6.419   5.670  68.760  1.00  0.00    -0.042 C  
HETATM   11  O   UNL     1      -5.959   5.008  67.844  1.00  0.00    -0.021 OA 
BRANCH  10  12
HETATM   12  C   UNL     1      -6.951   7.053  68.597  1.00  0.00    -0.079 C  
HETATM   13  C   UNL     1      -7.953   7.432  67.753  1.00  0.00    -0.118 C  
BRANCH  12  14
HETATM   14  C   UNL     1      -6.156   8.101  69.359  1.00  0.00    -0.034 C  
HETATM   15  H1  UNL     1      -4.964   9.674  70.502  1.00  0.00     0.000 HD 
HETATM   16  N   UNL     1      -5.497   8.971  69.991  1.00  0.00    -0.028 NA 
HETATM   17  H2  UNL     1      -5.794   9.439  70.847  1.00  0.00     0.000 HD 
ENDBRANCH  12  14
BRANCH  13  18
HETATM   18  C   UNL     1      -8.771   6.425  67.026  1.00  0.00    -0.115 A  
HETATM   19  C   UNL     1     -10.146   6.626  66.853  1.00  0.00    -0.258 A  
HETATM   20  C   UNL     1      -8.191   5.245  66.540  1.00  0.00    -0.108 A  
HETATM   21  C   UNL     1      -8.986   4.242  65.980  1.00  0.00    -0.123 A  
HETATM   22  C   UNL     1     -10.360   4.428  65.861  1.00  0.00    -0.234 A  
HETATM   23  C   UNL     1     -10.935   5.630  66.271  1.00  0.00     0.007 A  
ENDBRANCH  13  18
BRANCH  13  24
HETATM   24  C   UNL     1      -8.184   8.882  67.502  1.00  0.00    -0.109 A  
HETATM   25  C   UNL     1      -9.272  10.631  66.204  1.00  0.00    -0.196 A  
HETATM   26  C   UNL     1      -9.053   9.277  66.470  1.00  0.00    -0.191 A  
HETATM   27  C   UNL     1      -8.656  11.607  66.980  1.00  0.00    -0.169 A  
HETATM   28  C   UNL     1      -7.783  11.227  68.002  1.00  0.00    -0.108 A  
HETATM   29  C   UNL     1      -7.546   9.867  68.261  1.00  0.00    -0.080 A  
BRANCH  27  30
HETATM   30  O   UNL     1      -8.926  12.899  66.611  1.00  0.00    -0.209 OA 
HETATM   31  C   UNL     1     -10.293  13.215  66.377  1.00  0.00    -0.287 C  
ENDBRANCH  27  30
ENDBRANCH  13  24
ENDBRANCH  10  12
ENDBRANCH   9  10
ENDBRANCH   7   9
ENDBRANCH   3   4
ENDBRANCH   2   3
TORSDOF 9
ENDMDL
MODEL      211
REMARK 921   NORMALIZED FREE ENERGY PREDICTED BY IDOCK:    2.36 KCAL/MOL
REMARK 922        TOTAL FREE ENERGY PREDICTED BY IDOCK:    1.53 KCAL/MOL
REMARK 923 INTER-LIGAND FREE ENERGY PREDICTED BY IDOCK:   -3.34 KCAL/MOL
REMARK 924 INTRA-LIGAND FREE ENERGY PREDICTED BY IDOCK:    4.87 KCAL/MOL
REMARK 927      BINDING AFFINITY PREDICTED BY RF-SCORE:    0.00 PKD
ROOT
HETATM    1  C   UNL     1     -11.136  15.448  67.396  1.00  0.00    -0.311 C  
HETATM    2  C   UNL     1     -11.499  15.058  68.823  1.00  0.00    -0.337 C  
ENDROOT
BRANCH   2   3
HETATM    3  C   UNL     1     -10.634  13.894  69.294  1.00  0.00    -0.062 C  
BRANCH   3   4
HETATM    4  C   UNL     1     -11.134  12.543  68.774  1.00  0.00    -0.314 C  
HETATM    5  C   UNL     1     -10.094  11.841  67.876  1.00  0.00    -0.195 C  
HETATM    6  C   UNL     1      -8.724  11.630  68.568  1.00  0.00    -0.130 C  
HETATM    7  C   UNL     1     -10.669  10.535  67.296  1.00  0.00    -0.277 C  
HETATM    8  C   UNL     1      -8.753  10.742  69.805  1.00  0.00     0.421 C  
BRANCH   7   9
HETATM    9  O   UNL     1      -9.670   9.948  66.447  1.00  0.00    -0.186 OA 
BRANCH   9  10
HETATM   10  C   UNL     1      -8.459   9.644  66.964  1.00  0.00    -0.124 C  
HETATM   11  O   UNL     1      -7.556  10.437  67.178  1.00  0.00    -0.094 OA 
BRANCH  10  12
HETATM   12  C   UNL     1      -8.460   8.237  67.455  1.00  0.00    -0.130 C  
HETATM   13  C   UNL     1      -7.983   7.152  66.779  1.00  0.00    -0.108 C  
BRANCH  12  14
HETATM   14  C   UNL     1      -9.211   8.052  68.764  1.00  0.00    -0.143 C  
HETATM   15  H1  UNL     1     -10.337   7.775  70.728  1.00  0.00     0.000 HD 
HETATM   16  N   UNL     1      -9.834   7.899  69.850  1.00  0.00    -0.180 NA 
HETATM   17  H2  UNL     1      -9.480   8.131  70.778  1.00  0.00     0.000 HD 
ENDBRANCH  12  14
BRANCH  13  18
HETATM   18  C   UNL     1      -7.212   7.307  65.518  1.00  0.00    -0.066 A  
HETATM   19  C   UNL     1      -7.830   7.825  64.373  1.00  0.00    -0.138 A  
HETATM   20  C   UNL     1      -5.872   6.901  65.440  1.00  0.00    -0.035 A  
HETATM   21  C   UNL     1      -5.194   6.921  64.220  1.00  0.00    -0.028 A  
HETATM   22  C   UNL     1      -5.833   7.388  63.076  1.00  0.00    -0.049 A  
HETATM   23  C   UNL     1      -7.140   7.866  63.158  1.00  0.00    -0.087 A  
ENDBRANCH  13  18
BRANCH  13  24
HETATM   24  C   UNL     1      -8.302   5.784  67.278  1.00  0.00    -0.104 A  
HETATM   25  C   UNL     1      -9.962   4.165  68.017  1.00  0.00    -0.006 A  
HETATM   26  C   UNL     1      -9.639   5.435  67.532  1.00  0.00    -0.138 A  
HETATM   27  C   UNL     1      -8.964   3.218  68.225  1.00  0.00    -0.140 A  
HETATM   28  C   UNL     1      -7.631   3.557  67.985  1.00  0.00    -0.061 A  
HETATM   29  C   UNL     1      -7.300   4.840  67.514  1.00  0.00    -0.074 A  
BRANCH  27  30
HETATM   30  O   UNL     1      -9.397   2.018  68.725  1.00  0.00    -0.147 OA 
HETATM   31  C   UNL     1      -9.395   1.889  70.142  1.00  0.00    -0.097 C  
ENDBRANCH  27  30
ENDBRANCH  13  24
ENDBRANCH  10  12
ENDBRANCH   9  10
ENDBRANCH   7   9
ENDBRANCH   3   4
ENDBRANCH   2   3
TORSDOF 9
ENDMDL
MODEL      212
REMARK 921   NORMALIZED FREE ENERGY PREDICTED BY IDOCK:    2.41 KCAL/MOL
REMARK 922        TOTAL FREE ENERGY PREDICTED BY IDOCK:    1.61 KCAL/MOL
REMARK 923 INTER-LIGAND FREE ENERGY PREDICTED BY IDOCK:   -0.33 KCAL/MOL
REMARK 924 INTRA-LIGAND FREE ENERGY PREDICTED BY IDOCK:    1.94 KCAL/MOL
REMARK 927      BINDING AFFINITY PREDICTED BY RF-SCORE:    0.00 PKD
ROOT
HETATM    1  C   UNL     1      -6.305   4.190  65.710  1.00  0.00    -0.032 C  
HETATM    2  C   UNL     1      -7.733   4.627  65.413  1.00  0.00    -0.089 C  
ENDROOT
BRANCH   2   3
HETATM    3  C   UNL     1      -8.092   5.868  66.224  1.00  0.00    -0.104 C  
BRANCH   3   4
HETATM    4  C   UNL     1      -6.856   6.669  66.647  1.00  0.00    -0.062 C  
HETATM    5  C   UNL     1      -7.202   8.125  67.021  1.00  0.00    -0.083 C  
HETATM    6  C   UNL     1      -8.273   8.237  68.136  1.00  0.00    -0.128 C  
HETATM    7  C   UNL     1      -5.925   8.922  67.348  1.00  0.00    -0.047 C  
HETATM    8  C   UNL     1      -7.878   7.631  69.476  1.00  0.00    -0.115 C  
BRANCH   7   9
HETATM    9  O   UNL     1      -6.310  10.271  67.654  1.00  0.00    -0.057 OA 
BRANCH   9  10
HETATM   10  C   UNL     1      -7.287  10.860  66.929  1.00  0.00    -0.128 C  
HETATM   11  O   UNL     1      -7.927  10.333  66.033  1.00  0.00    -0.126 OA 
BRANCH  10  12
HETATM   12  C   UNL     1      -7.638  12.177  67.534  1.00  0.00    -0.151 C  
HETATM   13  C   UNL     1      -8.894  12.602  67.854  1.00  0.00    -0.182 C  
BRANCH  12  14
HETATM   14  C   UNL     1      -6.460  13.132  67.630  1.00  0.00    -0.163 C  
HETATM   15  H1  UNL     1      -4.691  14.566  67.775  1.00  0.00     0.000 HD 
HETATM   16  N   UNL     1      -5.482  13.925  67.710  1.00  0.00    -0.286 NA 
HETATM   17  H2  UNL     1      -4.869  14.196  66.941  1.00  0.00     0.000 HD 
ENDBRANCH  12  14
BRANCH  13  18
HETATM   18  C   UNL     1     -10.057  11.678  67.805  1.00  0.00    -0.200 A  
HETATM   19  C   UNL     1     -10.807  11.426  68.961  1.00  0.00    -0.265 A  
HETATM   20  C   UNL     1     -10.397  11.014  66.618  1.00  0.00    -0.288 A  
HETATM   21  C   UNL     1     -11.403  10.045  66.610  1.00  0.00     0.763 A  
HETATM   22  C   UNL     1     -12.107   9.763  67.776  1.00  0.00     3.190 A  
HETATM   23  C   UNL     1     -11.828  10.473  68.943  1.00  0.00    -0.136 A  
ENDBRANCH  13  18
BRANCH  13  24
HETATM   24  C   UNL     1      -9.113  14.038  68.191  1.00  0.00    -0.192 A  
HETATM   25  C   UNL     1      -8.426  16.024  69.417  1.00  0.00    -0.146 A  
HETATM   26  C   UNL     1      -8.231  14.684  69.072  1.00  0.00    -0.110 A  
HETATM   27  C   UNL     1      -9.479  16.745  68.865  1.00  0.00    -0.246 A  
HETATM   28  C   UNL     1     -10.368  16.110  67.995  1.00  0.00    -0.271 A  
HETATM   29  C   UNL     1     -10.186  14.758  67.660  1.00  0.00    -0.232 A  
BRANCH  27  30
HETATM   30  O   UNL     1      -9.585  18.042  69.295  1.00  0.00    -0.093 OA 
HETATM   31  C   UNL     1      -9.106  19.042  68.404  1.00  0.00    -0.347 C  
ENDBRANCH  27  30
ENDBRANCH  13  24
ENDBRANCH  10  12
ENDBRANCH   9  10
ENDBRANCH   7   9
ENDBRANCH   3   4
ENDBRANCH   2   3
TORSDOF 9
ENDMDL
MODEL      213
REMARK 921   NORMALIZED FREE ENERGY PREDICTED BY IDOCK:    6.85 KCAL/MOL
REMARK 922        TOTAL FREE ENERGY PREDICTED BY IDOCK:    8.39 KCAL/MOL
REMARK 923 INTER-LIGAND FREE ENERGY PREDICTED BY IDOCK:    3.71 KCAL/MOL
REMARK 924 INTRA-LIGAND FREE ENERGY PREDICTED BY IDOCK:    4.68 KCAL/MOL
REMARK 927      BINDING AFFINITY PREDICTED BY RF-SCORE:    0.00 PKD
ROOT
HETATM    1  C   UNL     1      -9.640  16.048  70.529  1.00  0.00     1.257 C  
HETATM    2  C   UNL     1      -9.194  16.152  69.077  1.00  0.00    -0.252 C  
ENDROOT
BRANCH   2   3
HETATM    3  C   UNL     1      -9.414  14.825  68.355  1.00  0.00    -0.213 C  
BRANCH   3   4
HETATM    4  C   UNL     1      -8.163  14.349  67.610  1.00  0.00    -0.185 C  
HETATM    5  C   UNL     1      -7.952  12.826  67.735  1.00  0.00    -0.157 C  
HETATM    6  C   UNL     1      -9.166  11.993  67.252  1.00  0.00    -0.182 C  
HETATM    7  C   UNL     1      -6.637  12.401  67.055  1.00  0.00     0.005 C  
HETATM    8  C   UNL     1      -9.522  12.163  65.781  1.00  0.00    -0.156 C  
BRANCH   7   9
HETATM    9  O   UNL     1      -6.481  10.985  67.235  1.00  0.00    -0.063 OA 
BRANCH   9  10
HETATM   10  C   UNL     1      -6.263  10.202  66.155  1.00  0.00    -0.082 C  
HETATM   11  O   UNL     1      -5.625  10.517  65.163  1.00  0.00    -0.120 OA 
BRANCH  10  12
HETATM   12  C   UNL     1      -6.718   8.812  66.441  1.00  0.00    -0.070 C  
HETATM   13  C   UNL     1      -7.100   8.328  67.658  1.00  0.00    -0.083 C  
BRANCH  12  14
HETATM   14  C   UNL     1      -6.570   7.870  65.257  1.00  0.00    -0.044 C  
HETATM   15  H1  UNL     1      -6.347   6.457  63.480  1.00  0.00     0.000 HD 
HETATM   16  N   UNL     1      -6.446   7.089  64.274  1.00  0.00    -0.039 NA 
HETATM   17  H2  UNL     1      -6.134   7.350  63.339  1.00  0.00     0.000 HD 
ENDBRANCH  12  14
BRANCH  13  18
HETATM   18  C   UNL     1      -7.290   9.233  68.822  1.00  0.00    -0.075 A  
HETATM   19  C   UNL     1      -6.563   9.027  70.001  1.00  0.00    -0.043 A  
HETATM   20  C   UNL     1      -8.225  10.277  68.775  1.00  0.00    -0.119 A  
HETATM   21  C   UNL     1      -8.498  11.037  69.914  1.00  0.00     0.933 A  
HETATM   22  C   UNL     1      -7.808  10.790  71.097  1.00  0.00     3.785 A  
HETATM   23  C   UNL     1      -6.822   9.806  71.132  1.00  0.00     0.141 A  
ENDBRANCH  13  18
BRANCH  13  24
HETATM   24  C   UNL     1      -7.262   6.858  67.839  1.00  0.00    -0.095 A  
HETATM   25  C   UNL     1      -6.382   4.608  67.551  1.00  0.00    -0.041 A  
HETATM   26  C   UNL     1      -6.245   5.991  67.407  1.00  0.00    -0.033 A  
HETATM   27  C   UNL     1      -7.515   4.073  68.154  1.00  0.00    -0.067 A  
HETATM   28  C   UNL     1      -8.537   4.924  68.579  1.00  0.00    -0.099 A  
HETATM   29  C   UNL     1      -8.411   6.315  68.420  1.00  0.00    -0.115 A  
BRANCH  27  30
HETATM   30  O   UNL     1      -7.549   2.704  68.217  1.00  0.00    -0.055 OA 
HETATM   31  C   UNL     1      -6.290   2.046  68.289  1.00  0.00    -0.028 C  
ENDBRANCH  27  30
ENDBRANCH  13  24
ENDBRANCH  10  12
ENDBRANCH   9  10
ENDBRANCH   7   9
ENDBRANCH   3   4
ENDBRANCH   2   3
TORSDOF 9
ENDMDL
MODEL      214
REMARK 921   NORMALIZED FREE ENERGY PREDICTED BY IDOCK:    6.97 KCAL/MOL
REMARK 922        TOTAL FREE ENERGY PREDICTED BY IDOCK:    8.56 KCAL/MOL
REMARK 923 INTER-LIGAND FREE ENERGY PREDICTED BY IDOCK:    1.55 KCAL/MOL
REMARK 924 INTRA-LIGAND FREE ENERGY PREDICTED BY IDOCK:    7.02 KCAL/MOL
REMARK 927      BINDING AFFINITY PREDICTED BY RF-SCORE:    0.00 PKD
ROOT
HETATM    1  C   UNL     1     -11.485  13.631  62.959  1.00  0.00     1.192 C  
HETATM    2  C   UNL     1     -12.904  13.328  63.419  1.00  0.00     0.342 C  
ENDROOT
BRANCH   2   3
HETATM    3  C   UNL     1     -12.907  12.173  64.415  1.00  0.00    -0.216 C  
BRANCH   3   4
HETATM    4  C   UNL     1     -12.486  12.611  65.821  1.00  0.00    -0.159 C  
HETATM    5  C   UNL     1     -11.158  11.962  66.263  1.00  0.00    -0.364 C  
HETATM    6  C   UNL     1      -9.985  12.231  65.286  1.00  0.00    -0.250 C  
HETATM    7  C   UNL     1     -10.817  12.350  67.714  1.00  0.00    -0.225 C  
HETATM    8  C   UNL     1      -9.604  13.696  65.121  1.00  0.00     0.186 C  
BRANCH   7   9
HETATM    9  O   UNL     1      -9.594  11.690  68.075  1.00  0.00    -0.172 OA 
BRANCH   9  10
HETATM   10  C   UNL     1      -9.529  11.013  69.244  1.00  0.00     0.043 C  
HETATM   11  O   UNL     1     -10.275  11.163  70.198  1.00  0.00     0.504 OA 
BRANCH  10  12
HETATM   12  C   UNL     1      -8.558   9.888  69.120  1.00  0.00    -0.157 C  
HETATM   13  C   UNL     1      -8.357   9.122  68.009  1.00  0.00    -0.120 C  
BRANCH  12  14
HETATM   14  C   UNL     1      -7.881   9.524  70.431  1.00  0.00    -0.172 C  
HETATM   15  H1  UNL     1      -6.866   8.978  72.400  1.00  0.00     0.000 HD 
HETATM   16  N   UNL     1      -7.320   9.222  71.520  1.00  0.00    -0.334 NA 
HETATM   17  H2  UNL     1      -7.642   8.517  72.182  1.00  0.00     0.000 HD 
ENDBRANCH  12  14
BRANCH  13  18
HETATM   18  C   UNL     1      -8.976   9.478  66.705  1.00  0.00    -0.168 A  
HETATM   19  C   UNL     1     -10.344   9.270  66.494  1.00  0.00    -0.270 A  
HETATM   20  C   UNL     1      -8.197   9.986  65.655  1.00  0.00    -0.143 A  
HETATM   21  C   UNL     1      -8.756  10.189  64.391  1.00  0.00    -0.217 A  
HETATM   22  C   UNL     1     -10.105   9.928  64.177  1.00  0.00     0.493 A  
HETATM   23  C   UNL     1     -10.904   9.497  65.234  1.00  0.00     2.156 A  
ENDBRANCH  13  18
BRANCH  13  24
HETATM   24  C   UNL     1      -7.559   7.869  68.123  1.00  0.00    -0.116 A  
HETATM   25  C   UNL     1      -5.424   6.783  68.554  1.00  0.00    -0.016 A  
HETATM   26  C   UNL     1      -6.197   7.944  68.458  1.00  0.00    -0.044 A  
HETATM   27  C   UNL     1      -6.002   5.535  68.350  1.00  0.00    -0.017 A  
HETATM   28  C   UNL     1      -7.353   5.449  68.006  1.00  0.00    -0.073 A  
HETATM   29  C   UNL     1      -8.130   6.615  67.892  1.00  0.00    -0.113 A  
BRANCH  27  30
HETATM   30  O   UNL     1      -5.142   4.473  68.446  1.00  0.00     0.000 OA 
HETATM   31  C   UNL     1      -5.694   3.258  68.939  1.00  0.00    -0.022 C  
ENDBRANCH  27  30
ENDBRANCH  13  24
ENDBRANCH  10  12
ENDBRANCH   9  10
ENDBRANCH   7   9
ENDBRANCH   3   4
ENDBRANCH   2   3
TORSDOF 9
ENDMDL
MODEL      215
REMARK 921   NORMALIZED FREE ENERGY PREDICTED BY IDOCK:    8.21 KCAL/MOL
REMARK 922        TOTAL FREE ENERGY PREDICTED BY IDOCK:   10.45 KCAL/MOL
REMARK 923 INTER-LIGAND FREE ENERGY PREDICTED BY IDOCK:    8.64 KCAL/MOL
REMARK 924 INTRA-LIGAND FREE ENERGY PREDICTED BY IDOCK:    1.81 KCAL/MOL
REMARK 927      BINDING AFFINITY PREDICTED BY RF-SCORE:    0.00 PKD
ROOT
HETATM    1  C   UNL     1      -9.591  16.023  71.437  1.00  0.00     3.667 C  
HETATM    2  C   UNL     1      -8.130  16.363  71.171  1.00  0.00     5.565 C  
ENDROOT
BRANCH   2   3
HETATM    3  C   UNL     1      -7.693  15.814  69.816  1.00  0.00     0.073 C  
BRANCH   3   4
HETATM    4  C   UNL     1      -6.778  14.592  69.946  1.00  0.00    -0.157 C  
HETATM    5  C   UNL     1      -7.047  13.541  68.850  1.00  0.00    -0.093 C  
HETATM    6  C   UNL     1      -6.922  14.104  67.412  1.00  0.00    -0.070 C  
HETATM    7  C   UNL     1      -6.176  12.289  69.070  1.00  0.00    -0.082 C  
HETATM    8  C   UNL     1      -5.542  14.632  67.041  1.00  0.00     1.197 C  
BRANCH   7   9
HETATM    9  O   UNL     1      -6.496  11.339  68.042  1.00  0.00    -0.056 OA 
BRANCH   9  10
HETATM   10  C   UNL     1      -6.233  10.029  68.248  1.00  0.00    -0.049 C  
HETATM   11  O   UNL     1      -5.143   9.493  68.126  1.00  0.00    -0.030 OA 
BRANCH  10  12
HETATM   12  C   UNL     1      -7.415   9.370  68.871  1.00  0.00    -0.074 C  
HETATM   13  C   UNL     1      -8.281   8.520  68.247  1.00  0.00    -0.123 C  
BRANCH  12  14
HETATM   14  C   UNL     1      -7.705   9.855  70.283  1.00  0.00    -0.142 C  
HETATM   15  H1  UNL     1      -8.139  10.583  72.401  1.00  0.00     0.000 HD 
HETATM   16  N   UNL     1      -7.945  10.258  71.454  1.00  0.00     1.200 NA 
HETATM   17  H2  UNL     1      -7.281  10.272  72.228  1.00  0.00     0.000 HD 
ENDBRANCH  12  14
BRANCH  13  18
HETATM   18  C   UNL     1      -8.002   8.000  66.883  1.00  0.00    -0.104 A  
HETATM   19  C   UNL     1      -7.425   8.833  65.916  1.00  0.00    -0.089 A  
HETATM   20  C   UNL     1      -8.347   6.689  66.530  1.00  0.00    -0.117 A  
HETATM   21  C   UNL     1      -8.209   6.249  65.211  1.00  0.00    -0.138 A  
HETATM   22  C   UNL     1      -7.685   7.101  64.245  1.00  0.00    -0.117 A  
HETATM   23  C   UNL     1      -7.267   8.381  64.603  1.00  0.00    -0.082 A  
ENDBRANCH  13  18
BRANCH  13  24
HETATM   24  C   UNL     1      -9.562   8.163  68.919  1.00  0.00    -0.153 A  
HETATM   25  C   UNL     1     -11.339   8.748  70.475  1.00  0.00    -0.255 A  
HETATM   26  C   UNL     1     -10.148   9.068  69.820  1.00  0.00    -0.209 A  
HETATM   27  C   UNL     1     -11.979   7.540  70.218  1.00  0.00     0.127 A  
HETATM   28  C   UNL     1     -11.402   6.629  69.332  1.00  0.00    -0.331 A  
HETATM   29  C   UNL     1     -10.194   6.939  68.685  1.00  0.00    -0.181 A  
BRANCH  27  30
HETATM   30  O   UNL     1     -13.127   7.326  70.937  1.00  0.00    -0.220 OA 
HETATM   31  C   UNL     1     -13.734   8.477  71.513  1.00  0.00    -0.318 C  
ENDBRANCH  27  30
ENDBRANCH  13  24
ENDBRANCH  10  12
ENDBRANCH   9  10
ENDBRANCH   7   9
ENDBRANCH   3   4
ENDBRANCH   2   3
TORSDOF 9
ENDMDL
MODEL      216
REMARK 921   NORMALIZED FREE ENERGY PREDICTED BY IDOCK:    8.66 KCAL/MOL
REMARK 922        TOTAL FREE ENERGY PREDICTED BY IDOCK:   11.14 KCAL/MOL
REMARK 923 INTER-LIGAND FREE ENERGY PREDICTED BY IDOCK:   -1.27 KCAL/MOL
REMARK 924 INTRA-LIGAND FREE ENERGY PREDICTED BY IDOCK:   12.41 KCAL/MOL
REMARK 927      BINDING AFFINITY PREDICTED BY RF-SCORE:    0.00 PKD
ROOT
HETATM    1  C   UNL     1      -7.801   5.065  70.209  1.00  0.00    -0.070 C  
HETATM    2  C   UNL     1      -7.907   3.959  69.168  1.00  0.00    -0.052 C  
ENDROOT
BRANCH   2   3
HETATM    3  C   UNL     1      -9.346   3.821  68.679  1.00  0.00    -0.226 C  
BRANCH   3   4
HETATM    4  C   UNL     1     -10.130   5.132  68.789  1.00  0.00    -0.231 C  
HETATM    5  C   UNL     1      -9.796   5.908  70.080  1.00  0.00    -0.225 C  
HETATM    6  C   UNL     1      -8.286   6.217  70.240  1.00  0.00    -0.126 C  
HETATM    7  C   UNL     1     -10.673   7.169  70.200  1.00  0.00    -0.240 C  
HETATM    8  C   UNL     1      -7.688   7.101  69.154  1.00  0.00    -0.109 C  
BRANCH   7   9
HETATM    9  O   UNL     1     -10.339   7.825  71.433  1.00  0.00    -0.196 OA 
BRANCH   9  10
HETATM   10  C   UNL     1     -10.633   9.136  71.584  1.00  0.00    -0.357 C  
HETATM   11  O   UNL     1     -10.717   9.730  72.647  1.00  0.00     1.982 OA 
BRANCH  10  12
HETATM   12  C   UNL     1     -10.614   9.813  70.256  1.00  0.00    -0.348 C  
HETATM   13  C   UNL     1      -9.519  10.354  69.648  1.00  0.00    -0.118 C  
BRANCH  12  14
HETATM   14  C   UNL     1     -11.997  10.013  69.658  1.00  0.00     0.104 C  
HETATM   15  H1  UNL     1     -14.073  10.314  68.761  1.00  0.00     0.000 HD 
HETATM   16  N   UNL     1     -13.145  10.179  69.162  1.00  0.00     0.830 NA 
HETATM   17  H2  UNL     1     -13.721   9.454  68.735  1.00  0.00     0.000 HD 
ENDBRANCH  12  14
BRANCH  13  18
HETATM   18  C   UNL     1      -8.152  10.140  70.191  1.00  0.00     0.006 A  
HETATM   19  C   UNL     1      -7.057  10.802  69.623  1.00  0.00    -0.136 A  
HETATM   20  C   UNL     1      -7.930   9.245  71.246  1.00  0.00     0.040 A  
HETATM   21  C   UNL     1      -6.631   8.944  71.661  1.00  0.00    -0.070 A  
HETATM   22  C   UNL     1      -5.545   9.568  71.055  1.00  0.00    -0.060 A  
HETATM   23  C   UNL     1      -5.759  10.517  70.057  1.00  0.00    -0.059 A  
ENDBRANCH  13  18
BRANCH  13  24
HETATM   24  C   UNL     1      -9.706  11.232  68.459  1.00  0.00    -0.199 A  
HETATM   25  C   UNL     1     -10.610  13.274  67.492  1.00  0.00    -0.251 A  
HETATM   26  C   UNL     1     -10.407  12.443  68.596  1.00  0.00    -0.198 A  
HETATM   27  C   UNL     1     -10.092  12.930  66.248  1.00  0.00    -0.276 A  
HETATM   28  C   UNL     1      -9.402  11.725  66.098  1.00  0.00    -0.236 A  
HETATM   29  C   UNL     1      -9.211  10.877  67.202  1.00  0.00    -0.159 A  
BRANCH  27  30
HETATM   30  O   UNL     1     -10.375  13.810  65.237  1.00  0.00    -0.329 OA 
HETATM   31  C   UNL     1     -10.484  13.255  63.931  1.00  0.00     0.040 C  
ENDBRANCH  27  30
ENDBRANCH  13  24
ENDBRANCH  10  12
ENDBRANCH   9  10
ENDBRANCH   7   9
ENDBRANCH   3   4
ENDBRANCH   2   3
TORSDOF 9
ENDMDL
MODEL      217
REMARK 921   NORMALIZED FREE ENERGY PREDICTED BY IDOCK:   12.54 KCAL/MOL
REMARK 922        TOTAL FREE ENERGY PREDICTED BY IDOCK:   17.06 KCAL/MOL
REMARK 923 INTER-LIGAND FREE ENERGY PREDICTED BY IDOCK:   10.63 KCAL/MOL
REMARK 924 INTRA-LIGAND FREE ENERGY PREDICTED BY IDOCK:    6.43 KCAL/MOL
REMARK 927      BINDING AFFINITY PREDICTED BY RF-SCORE:    0.00 PKD
ROOT
HETATM    1  C   UNL     1     -13.693  16.846  73.264  1.00  0.00     1.729 C  
HETATM    2  C   UNL     1     -12.218  16.759  73.632  1.00  0.00    -0.284 C  
ENDROOT
BRANCH   2   3
HETATM    3  C   UNL     1     -11.346  17.034  72.411  1.00  0.00     0.887 C  
BRANCH   3   4
HETATM    4  C   UNL     1     -10.865  15.748  71.732  1.00  0.00     0.367 C  
HETATM    5  C   UNL     1     -11.164  15.738  70.219  1.00  0.00    -0.377 C  
HETATM    6  C   UNL     1     -10.566  16.952  69.464  1.00  0.00    -0.239 C  
HETATM    7  C   UNL     1     -10.754  14.392  69.591  1.00  0.00    -0.055 C  
HETATM    8  C   UNL     1      -9.047  17.055  69.505  1.00  0.00     0.420 C  
BRANCH   7   9
HETATM    9  O   UNL     1     -11.087  14.433  68.195  1.00  0.00    -0.249 OA 
BRANCH   9  10
HETATM   10  C   UNL     1     -10.099  14.343  67.277  1.00  0.00    -0.251 C  
HETATM   11  O   UNL     1      -9.333  15.240  66.963  1.00  0.00    -0.208 OA 
BRANCH  10  12
HETATM   12  C   UNL     1      -9.924  12.921  66.864  1.00  0.00    -0.238 C  
HETATM   13  C   UNL     1     -10.387  11.829  67.537  1.00  0.00    -0.217 C  
BRANCH  12  14
HETATM   14  C   UNL     1      -9.011  12.747  65.661  1.00  0.00     0.600 C  
HETATM   15  H1  UNL     1      -7.641  12.486  63.856  1.00  0.00     0.000 HD 
HETATM   16  N   UNL     1      -8.253  12.603  64.663  1.00  0.00     2.863 NA 
HETATM   17  H2  UNL     1      -7.894  11.716  64.311  1.00  0.00     0.000 HD 
ENDBRANCH  12  14
BRANCH  13  18
HETATM   18  C   UNL     1     -11.312  11.969  68.692  1.00  0.00    -0.329 A  
HETATM   19  C   UNL     1     -12.693  11.826  68.511  1.00  0.00     1.580 A  
HETATM   20  C   UNL     1     -10.825  12.287  69.968  1.00  0.00     0.767 A  
HETATM   21  C   UNL     1     -11.706  12.553  71.018  1.00  0.00     0.816 A  
HETATM   22  C   UNL     1     -13.079  12.460  70.815  1.00  0.00     0.187 A  
HETATM   23  C   UNL     1     -13.571  12.070  69.571  1.00  0.00     3.955 A  
ENDBRANCH  13  18
BRANCH  13  24
HETATM   24  C   UNL     1      -9.900  10.474  67.150  1.00  0.00    -0.213 A  
HETATM   25  C   UNL     1     -10.394   8.165  66.564  1.00  0.00    -0.162 A  
HETATM   26  C   UNL     1     -10.827   9.447  66.911  1.00  0.00    -0.055 A  
HETATM   27  C   UNL     1      -9.037   7.897  66.420  1.00  0.00    -0.179 A  
HETATM   28  C   UNL     1      -8.105   8.908  66.664  1.00  0.00    -0.107 A  
HETATM   29  C   UNL     1      -8.536  10.195  67.031  1.00  0.00    -0.129 A  
BRANCH  27  30
HETATM   30  O   UNL     1      -8.730   6.600  66.102  1.00  0.00    -0.140 OA 
HETATM   31  C   UNL     1      -8.736   5.669  67.178  1.00  0.00    -0.108 C  
ENDBRANCH  27  30
ENDBRANCH  13  24
ENDBRANCH  10  12
ENDBRANCH   9  10
ENDBRANCH   7   9
ENDBRANCH   3   4
ENDBRANCH   2   3
TORSDOF 9
ENDMDL
MODEL      218
REMARK 921   NORMALIZED FREE ENERGY PREDICTED BY IDOCK:   22.69 KCAL/MOL
REMARK 922        TOTAL FREE ENERGY PREDICTED BY IDOCK:   32.56 KCAL/MOL
REMARK 923 INTER-LIGAND FREE ENERGY PREDICTED BY IDOCK:   18.37 KCAL/MOL
REMARK 924 INTRA-LIGAND FREE ENERGY PREDICTED BY IDOCK:   14.19 KCAL/MOL
REMARK 927      BINDING AFFINITY PREDICTED BY RF-SCORE:    0.00 PKD
ROOT
HETATM    1  C   UNL     1     -11.479  13.647  62.965  1.00  0.00     1.192 C  
HETATM    2  C   UNL     1     -12.882  13.457  63.525  1.00  0.00     0.350 C  
ENDROOT
BRANCH   2   3
HETATM    3  C   UNL     1     -12.858  12.496  64.710  1.00  0.00    -0.287 C  
BRANCH   3   4
HETATM    4  C   UNL     1     -12.366  13.165  65.997  1.00  0.00    -0.426 C  
HETATM    5  C   UNL     1     -11.034  12.568  66.495  1.00  0.00    -0.303 C  
HETATM    6  C   UNL     1      -9.900  12.626  65.441  1.00  0.00    -0.157 C  
HETATM    7  C   UNL     1     -10.623  13.199  67.839  1.00  0.00    -0.234 C  
HETATM    8  C   UNL     1      -9.496  14.028  65.001  1.00  0.00     0.632 C  
BRANCH   7   9
HETATM    9  O   UNL     1      -9.398  12.580  68.264  1.00  0.00    -0.205 OA 
BRANCH   9  10
HETATM   10  C   UNL     1      -8.835  12.963  69.432  1.00  0.00     1.286 C  
HETATM   11  O   UNL     1      -8.817  14.100  69.876  1.00  0.00     0.891 OA 
BRANCH  10  12
HETATM   12  C   UNL     1      -8.440  11.760  70.219  1.00  0.00     3.744 C  
HETATM   13  C   UNL     1      -9.044  10.538  70.171  1.00  0.00     0.626 C  
BRANCH  12  14
HETATM   14  C   UNL     1      -7.360  12.040  71.251  1.00  0.00     6.250 C  
HETATM   15  H1  UNL     1      -5.740  12.458  72.802  1.00  0.00     0.000 HD 
HETATM   16  N   UNL     1      -6.464  12.271  72.109  1.00  0.00     2.646 NA 
HETATM   17  H2  UNL     1      -6.549  12.128  73.115  1.00  0.00     0.000 HD 
ENDBRANCH  12  14
BRANCH  13  18
HETATM   18  C   UNL     1     -10.075  10.226  69.147  1.00  0.00    -0.232 A  
HETATM   19  C   UNL     1     -10.265   8.908  68.717  1.00  0.00    -0.224 A  
HETATM   20  C   UNL     1     -10.841  11.246  68.566  1.00  0.00    -0.245 A  
HETATM   21  C   UNL     1     -11.710  10.967  67.509  1.00  0.00    -0.023 A  
HETATM   22  C   UNL     1     -11.853   9.661  67.052  1.00  0.00     3.289 A  
HETATM   23  C   UNL     1     -11.153   8.629  67.674  1.00  0.00     0.318 A  
ENDBRANCH  13  18
BRANCH  13  24
HETATM   24  C   UNL     1      -8.713   9.522  71.210  1.00  0.00     0.386 A  
HETATM   25  C   UNL     1      -7.034   8.327  72.505  1.00  0.00    -0.110 A  
HETATM   26  C   UNL     1      -7.370   9.288  71.547  1.00  0.00     0.134 A  
HETATM   27  C   UNL     1      -8.030   7.613  73.162  1.00  0.00    -0.117 A  
HETATM   28  C   UNL     1      -9.369   7.830  72.829  1.00  0.00    -0.263 A  
HETATM   29  C   UNL     1      -9.710   8.782  71.853  1.00  0.00    -0.386 A  
BRANCH  27  30
HETATM   30  O   UNL     1      -7.581   6.682  74.062  1.00  0.00    -0.093 OA 
HETATM   31  C   UNL     1      -6.170   6.540  74.170  1.00  0.00    -0.065 C  
ENDBRANCH  27  30
ENDBRANCH  13  24
ENDBRANCH  10  12
ENDBRANCH   9  10
ENDBRANCH   7   9
ENDBRANCH   3   4
ENDBRANCH   2   3
TORSDOF 9
ENDMDL
MODEL      219
REMARK 921   NORMALIZED FREE ENERGY PREDICTED BY IDOCK:   32.68 KCAL/MOL
REMARK 922        TOTAL FREE ENERGY PREDICTED BY IDOCK:   47.81 KCAL/MOL
REMARK 923 INTER-LIGAND FREE ENERGY PREDICTED BY IDOCK:   -4.03 KCAL/MOL
REMARK 924 INTRA-LIGAND FREE ENERGY PREDICTED BY IDOCK:   51.84 KCAL/MOL
REMARK 927      BINDING AFFINITY PREDICTED BY RF-SCORE:    0.00 PKD
ROOT
HETATM    1  C   UNL     1     -10.064  16.304  66.368  1.00  0.00    -0.318 C  
HETATM    2  C   UNL     1      -9.015  15.223  66.593  1.00  0.00    -0.324 C  
ENDROOT
BRANCH   2   3
HETATM    3  C   UNL     1      -9.591  14.085  67.430  1.00  0.00    -0.227 C  
BRANCH   3   4
HETATM    4  C   UNL     1     -10.406  13.095  66.592  1.00  0.00    -0.265 C  
HETATM    5  C   UNL     1      -9.537  12.353  65.556  1.00  0.00    -0.076 C  
HETATM    6  C   UNL     1      -8.335  11.602  66.183  1.00  0.00     0.036 C  
HETATM    7  C   UNL     1     -10.406  11.439  64.671  1.00  0.00    -0.307 C  
HETATM    8  C   UNL     1      -8.703  10.498  67.165  1.00  0.00    -0.130 C  
BRANCH   7   9
HETATM    9  O   UNL     1      -9.548  10.805  63.709  1.00  0.00    -0.240 OA 
BRANCH   9  10
HETATM   10  C   UNL     1      -8.453  10.138  64.139  1.00  0.00    -0.180 C  
HETATM   11  O   UNL     1      -7.395  10.043  63.539  1.00  0.00    -0.133 OA 
BRANCH  10  12
HETATM   12  C   UNL     1      -8.641   9.725  65.559  1.00  0.00    -0.158 C  
HETATM   13  C   UNL     1      -8.527   8.456  66.047  1.00  0.00    -0.142 C  
BRANCH  12  14
HETATM   14  C   UNL     1      -9.150  10.844  66.453  1.00  0.00    -0.172 C  
HETATM   15  H1  UNL     1      -9.913  12.524  67.795  1.00  0.00     0.000 HD 
HETATM   16  N   UNL     1      -9.572  11.773  67.195  1.00  0.00    -0.179 NA 
HETATM   17  H2  UNL     1      -9.027  12.266  67.902  1.00  0.00     0.000 HD 
ENDBRANCH  12  14
BRANCH  13  18
HETATM   18  C   UNL     1      -7.996   7.352  65.205  1.00  0.00    -0.127 A  
HETATM   19  C   UNL     1      -6.615   7.139  65.111  1.00  0.00    -0.047 A  
HETATM   20  C   UNL     1      -8.860   6.535  64.463  1.00  0.00     0.536 A  
HETATM   21  C   UNL     1      -8.351   5.590  63.570  1.00  0.00    -0.076 A  
HETATM   22  C   UNL     1      -6.976   5.422  63.444  1.00  0.00    -0.042 A  
HETATM   23  C   UNL     1      -6.110   6.176  64.234  1.00  0.00    -0.026 A  
ENDBRANCH  13  18
BRANCH  13  24
HETATM   24  C   UNL     1      -9.012   8.159  67.425  1.00  0.00    -0.145 A  
HETATM   25  C   UNL     1      -9.273   8.853  69.742  1.00  0.00    -0.167 A  
HETATM   26  C   UNL     1      -8.843   9.116  68.439  1.00  0.00    -0.129 A  
HETATM   27  C   UNL     1      -9.903   7.652  70.045  1.00  0.00    -0.180 A  
HETATM   28  C   UNL     1     -10.068   6.689  69.047  1.00  0.00    -0.176 A  
HETATM   29  C   UNL     1      -9.621   6.942  67.739  1.00  0.00    -0.134 A  
BRANCH  27  30
HETATM   30  O   UNL     1     -10.258   7.496  71.359  1.00  0.00    -0.187 OA 
HETATM   31  C   UNL     1      -9.867   8.538  72.245  1.00  0.00    -0.313 C  
ENDBRANCH  27  30
ENDBRANCH  13  24
ENDBRANCH  10  12
ENDBRANCH   9  10
ENDBRANCH   7   9
ENDBRANCH   3   4
ENDBRANCH   2   3
TORSDOF 9
ENDMDL
