MODEL        1
REMARK 921   NORMALIZED FREE ENERGY PREDICTED BY IDOCK:   -7.22 KCAL/MOL
REMARK 922        TOTAL FREE ENERGY PREDICTED BY IDOCK:   -9.17 KCAL/MOL
REMARK 923 INTER-LIGAND FREE ENERGY PREDICTED BY IDOCK:   -9.33 KCAL/MOL
REMARK 924 INTRA-LIGAND FREE ENERGY PREDICTED BY IDOCK:    0.16 KCAL/MOL
REMARK 927      BINDING AFFINITY PREDICTED BY RF-SCORE:    0.00 PKD
ROOT
HETATM    1  C   UNL     1      -9.628  17.151  68.285  1.00  0.00    -0.280 C  
HETATM    2  C   UNL     1      -8.601  16.992  69.246  1.00  0.00     0.112 C  
HETATM    3  C   UNL     1      -8.736  15.903  68.246  1.00  0.00    -0.174 C  
HETATM    4  C   UNL     1      -9.989  16.285  66.648  1.00  0.00    -0.264 C  
HETATM    5  C   UNL     1     -11.053  16.081  68.764  1.00  0.00    -0.338 C  
HETATM    6  C   UNL     1     -12.504  12.871  71.291  1.00  0.00    -0.298 C  
HETATM    7  C   UNL     1      -8.629  16.412  66.770  1.00  0.00    -0.270 C  
HETATM    8  C   UNL     1      -7.516  17.147  66.082  1.00  0.00    -0.295 C  
HETATM    9  C   UNL     1      -8.564  14.541  66.594  1.00  0.00    -0.092 C  
HETATM   10  C   UNL     1     -12.336  11.399  70.970  1.00  0.00    -0.343 C  
HETATM   11  C   UNL     1     -11.517  16.339  70.222  1.00  0.00    -0.244 C  
HETATM   12  C   UNL     1      -9.966  13.833  67.247  1.00  0.00    -0.239 C  
HETATM   13  C   UNL     1     -12.566  15.346  70.786  1.00  0.00    -0.497 C  
HETATM   14  C   UNL     1     -12.402  13.882  70.398  1.00  0.00    -0.433 C  
HETATM   15  C   UNL     1     -10.807  14.453  68.569  1.00  0.00    -0.260 C  
HETATM   16  C   UNL     1     -12.068  13.620  68.934  1.00  0.00    -0.335 C  
HETATM   17  C   UNL     1     -11.701  12.150  68.664  1.00  0.00    -0.382 C  
HETATM   18  C   UNL     1     -12.406  11.104  69.472  1.00  0.00    -0.262 C  
ENDROOT
BRANCH   4  19
HETATM   19  C   UNL     1     -10.461  17.711  66.166  1.00  0.00    -0.295 C  
HETATM   20  C   UNL     1     -10.767  18.831  65.850  1.00  0.00    -0.323 C  
ENDBRANCH   4  19
BRANCH   4  21
HETATM   21  O   UNL     1     -10.071  15.599  65.341  1.00  0.00    -0.355 OA 
BRANCH  21  22
HETATM   22  C   UNL     1     -11.209  15.637  64.611  1.00  0.00    -0.369 C  
HETATM   23  O   UNL     1     -11.480  16.481  63.767  1.00  0.00    -1.065 OA 
HETATM   24  C   UNL     1     -12.171  14.586  65.113  1.00  0.00    -0.346 C  
ENDBRANCH  21  22
ENDBRANCH   4  21
BRANCH  10  25
HETATM   25  O   UNL     1     -13.386  10.644  71.600  1.00  0.00    -0.372 OA 
BRANCH  25  26
HETATM   26  C   UNL     1     -13.035   9.369  71.945  1.00  0.00    -0.417 C  
HETATM   27  C   UNL     1     -14.230   8.469  71.907  1.00  0.00    -0.536 C  
HETATM   28  O   UNL     1     -11.898   8.978  72.179  1.00  0.00    -0.358 OA 
ENDBRANCH  25  26
ENDBRANCH  10  25
TORSDOF 5
ENDMDL
MODEL        2
REMARK 921   NORMALIZED FREE ENERGY PREDICTED BY IDOCK:   -6.95 KCAL/MOL
REMARK 922        TOTAL FREE ENERGY PREDICTED BY IDOCK:   -8.82 KCAL/MOL
REMARK 923 INTER-LIGAND FREE ENERGY PREDICTED BY IDOCK:   -8.32 KCAL/MOL
REMARK 924 INTRA-LIGAND FREE ENERGY PREDICTED BY IDOCK:   -0.50 KCAL/MOL
REMARK 927      BINDING AFFINITY PREDICTED BY RF-SCORE:    0.00 PKD
ROOT
HETATM    1  C   UNL     1     -11.684   7.756  72.063  1.00  0.00    -0.349 C  
HETATM    2  C   UNL     1     -12.943   7.337  71.567  1.00  0.00    -0.434 C  
HETATM    3  C   UNL     1     -11.768   7.027  70.715  1.00  0.00    -0.394 C  
HETATM    4  C   UNL     1      -9.913   7.321  71.577  1.00  0.00    -0.182 C  
HETATM    5  C   UNL     1     -11.181   9.290  71.168  1.00  0.00    -0.413 C  
HETATM    6  C   UNL     1     -11.908  11.961  67.832  1.00  0.00    -0.308 C  
HETATM    7  C   UNL     1     -10.677   6.188  71.458  1.00  0.00    -0.303 C  
HETATM    8  C   UNL     1     -10.778   4.843  72.116  1.00  0.00    -0.193 C  
HETATM    9  C   UNL     1     -10.114   6.147  69.665  1.00  0.00    -0.226 C  
HETATM   10  C   UNL     1     -11.363  11.737  66.434  1.00  0.00    -0.297 C  
HETATM   11  C   UNL     1     -12.273  10.391  71.230  1.00  0.00    -0.491 C  
HETATM   12  C   UNL     1      -9.855   7.726  69.086  1.00  0.00    -0.173 C  
HETATM   13  C   UNL     1     -12.034  11.633  70.334  1.00  0.00    -0.448 C  
HETATM   14  C   UNL     1     -11.432  11.381  68.957  1.00  0.00    -0.366 C  
HETATM   15  C   UNL     1     -10.743   9.070  69.584  1.00  0.00    -0.228 C  
HETATM   16  C   UNL     1     -10.274  10.391  68.915  1.00  0.00    -0.220 C  
HETATM   17  C   UNL     1      -9.865  10.020  67.478  1.00  0.00    -0.211 C  
HETATM   18  C   UNL     1      -9.981  11.085  66.432  1.00  0.00    -0.264 C  
ENDROOT
BRANCH   4  19
HETATM   19  C   UNL     1      -9.621   7.420  73.124  1.00  0.00    -0.259 C  
HETATM   20  C   UNL     1      -9.330   7.452  74.292  1.00  0.00    -0.142 C  
ENDBRANCH   4  19
BRANCH   4  21
HETATM   21  O   UNL     1      -8.597   6.793  71.162  1.00  0.00    -0.131 OA 
BRANCH  21  22
HETATM   22  C   UNL     1      -7.465   7.494  71.401  1.00  0.00    -0.079 C  
HETATM   23  O   UNL     1      -7.332   8.700  71.239  1.00  0.00    -0.078 OA 
HETATM   24  C   UNL     1      -6.338   6.544  71.732  1.00  0.00    -0.042 C  
ENDBRANCH  21  22
ENDBRANCH   4  21
BRANCH  10  25
HETATM   25  O   UNL     1     -11.237  13.001  65.758  1.00  0.00    -0.283 OA 
BRANCH  25  26
HETATM   26  C   UNL     1     -12.253  13.278  64.887  1.00  0.00    -0.420 C  
HETATM   27  C   UNL     1     -12.190  12.364  63.703  1.00  0.00    -0.653 C  
HETATM   28  O   UNL     1     -13.146  14.096  65.064  1.00  0.00    -0.728 OA 
ENDBRANCH  25  26
ENDBRANCH  10  25
TORSDOF 5
ENDMDL
MODEL        3
REMARK 921   NORMALIZED FREE ENERGY PREDICTED BY IDOCK:   -6.56 KCAL/MOL
REMARK 922        TOTAL FREE ENERGY PREDICTED BY IDOCK:   -8.31 KCAL/MOL
REMARK 923 INTER-LIGAND FREE ENERGY PREDICTED BY IDOCK:   -7.89 KCAL/MOL
REMARK 924 INTRA-LIGAND FREE ENERGY PREDICTED BY IDOCK:   -0.42 KCAL/MOL
REMARK 927      BINDING AFFINITY PREDICTED BY RF-SCORE:    0.00 PKD
ROOT
HETATM    1  C   UNL     1     -11.674  13.848  68.209  1.00  0.00    -0.396 C  
HETATM    2  C   UNL     1     -11.258  14.635  69.310  1.00  0.00    -0.306 C  
HETATM    3  C   UNL     1     -10.185  13.925  68.570  1.00  0.00    -0.240 C  
HETATM    4  C   UNL     1     -10.734  13.062  66.775  1.00  0.00    -0.262 C  
HETATM    5  C   UNL     1     -11.676  12.075  68.721  1.00  0.00    -0.377 C  
HETATM    6  C   UNL     1     -10.490   9.141  71.685  1.00  0.00    -0.403 C  
HETATM    7  C   UNL     1     -10.157  14.276  67.046  1.00  0.00    -0.260 C  
HETATM    8  C   UNL     1      -9.992  15.604  66.366  1.00  0.00    -0.298 C  
HETATM    9  C   UNL     1      -8.559  13.320  67.303  1.00  0.00    -0.211 C  
HETATM   10  C   UNL     1      -9.123   8.486  71.726  1.00  0.00    -0.235 C  
HETATM   11  C   UNL     1     -12.509  11.836  70.008  1.00  0.00    -0.135 C  
HETATM   12  C   UNL     1      -8.888  11.762  67.905  1.00  0.00    -0.165 C  
HETATM   13  C   UNL     1     -12.399  10.422  70.635  1.00  0.00    -0.438 C  
HETATM   14  C   UNL     1     -11.024   9.766  70.610  1.00  0.00    -0.398 C  
HETATM   15  C   UNL     1     -10.176  11.400  68.930  1.00  0.00    -0.184 C  
HETATM   16  C   UNL     1     -10.255   9.893  69.300  1.00  0.00    -0.222 C  
HETATM   17  C   UNL     1      -8.800   9.406  69.418  1.00  0.00    -0.159 C  
HETATM   18  C   UNL     1      -8.531   8.255  70.337  1.00  0.00    -0.129 C  
ENDROOT
BRANCH   4  19
HETATM   19  C   UNL     1     -12.012  13.431  65.927  1.00  0.00    -0.452 C  
HETATM   20  C   UNL     1     -13.022  13.739  65.350  1.00  0.00    -0.361 C  
ENDBRANCH   4  19
BRANCH   4  21
HETATM   21  O   UNL     1      -9.880  12.612  65.656  1.00  0.00    -0.260 OA 
BRANCH  21  22
HETATM   22  C   UNL     1     -10.250  11.565  64.882  1.00  0.00    -0.275 C  
HETATM   23  O   UNL     1     -10.490  10.436  65.286  1.00  0.00    -0.249 OA 
HETATM   24  C   UNL     1     -10.155  11.952  63.424  1.00  0.00    -0.464 C  
ENDBRANCH  21  22
ENDBRANCH   4  21
BRANCH  10  25
HETATM   25  O   UNL     1      -9.225   7.200  72.363  1.00  0.00    -0.134 OA 
BRANCH  25  26
HETATM   26  C   UNL     1      -9.223   7.245  73.729  1.00  0.00    -0.238 C  
HETATM   27  C   UNL     1      -8.093   8.094  74.222  1.00  0.00    -0.309 C  
HETATM   28  O   UNL     1     -10.062   6.740  74.464  1.00  0.00    -0.332 OA 
ENDBRANCH  25  26
ENDBRANCH  10  25
TORSDOF 5
ENDMDL
MODEL        4
REMARK 921   NORMALIZED FREE ENERGY PREDICTED BY IDOCK:   -6.55 KCAL/MOL
REMARK 922        TOTAL FREE ENERGY PREDICTED BY IDOCK:   -8.30 KCAL/MOL
REMARK 923 INTER-LIGAND FREE ENERGY PREDICTED BY IDOCK:   -7.87 KCAL/MOL
REMARK 924 INTRA-LIGAND FREE ENERGY PREDICTED BY IDOCK:   -0.43 KCAL/MOL
REMARK 927      BINDING AFFINITY PREDICTED BY RF-SCORE:    0.00 PKD
ROOT
HETATM    1  C   UNL     1      -9.332   9.373  65.397  1.00  0.00    -0.311 C  
HETATM    2  C   UNL     1      -8.290   9.621  64.471  1.00  0.00    -0.172 C  
HETATM    3  C   UNL     1      -8.076  10.132  65.848  1.00  0.00    -0.136 C  
HETATM    4  C   UNL     1      -9.418   9.483  67.279  1.00  0.00    -0.136 C  
HETATM    5  C   UNL     1     -10.309  10.924  65.611  1.00  0.00    -0.305 C  
HETATM    6  C   UNL     1     -10.560  15.194  64.909  1.00  0.00    -0.392 C  
HETATM    7  C   UNL     1      -8.175   9.015  66.937  1.00  0.00    -0.116 C  
HETATM    8  C   UNL     1      -7.384   7.748  67.094  1.00  0.00    -0.091 C  
HETATM    9  C   UNL     1      -7.495  10.489  67.884  1.00  0.00    -0.091 C  
HETATM   10  C   UNL     1      -9.918  16.238  65.803  1.00  0.00    -0.323 C  
HETATM   11  C   UNL     1     -10.804  11.498  64.258  1.00  0.00    -0.421 C  
HETATM   12  C   UNL     1      -8.569  11.805  67.786  1.00  0.00    -0.151 C  
HETATM   13  C   UNL     1     -11.451  12.906  64.314  1.00  0.00    -0.427 C  
HETATM   14  C   UNL     1     -10.818  13.915  65.264  1.00  0.00    -0.337 C  
HETATM   15  C   UNL     1      -9.541  12.131  66.448  1.00  0.00    -0.243 C  
HETATM   16  C   UNL     1     -10.445  13.380  66.642  1.00  0.00    -0.280 C  
HETATM   17  C   UNL     1      -9.616  14.384  67.462  1.00  0.00    -0.215 C  
HETATM   18  C   UNL     1      -9.917  15.839  67.278  1.00  0.00    -0.238 C  
ENDROOT
BRANCH   4  19
HETATM   19  C   UNL     1     -10.347   8.213  67.164  1.00  0.00    -0.391 C  
HETATM   20  C   UNL     1     -10.997   7.202  67.115  1.00  0.00    -0.342 C  
ENDBRANCH   4  19
BRANCH   4  21
HETATM   21  O   UNL     1      -9.294   9.502  68.751  1.00  0.00    -0.143 OA 
BRANCH  21  22
HETATM   22  C   UNL     1     -10.388   9.646  69.535  1.00  0.00    -0.221 C  
HETATM   23  O   UNL     1     -11.287  10.455  69.353  1.00  0.00    -0.239 OA 
HETATM   24  C   UNL     1     -10.249   8.780  70.765  1.00  0.00    -0.262 C  
ENDBRANCH  21  22
ENDBRANCH   4  21
BRANCH  10  25
HETATM   25  O   UNL     1     -10.645  17.475  65.699  1.00  0.00    -0.549 OA 
BRANCH  25  26
HETATM   26  C   UNL     1      -9.961  18.570  66.149  1.00  0.00    -0.322 C  
HETATM   27  C   UNL     1     -10.838  19.411  67.023  1.00  0.00    -0.540 C  
HETATM   28  O   UNL     1      -8.778  18.809  65.946  1.00  0.00    -0.471 OA 
ENDBRANCH  25  26
ENDBRANCH  10  25
TORSDOF 5
ENDMDL
MODEL        5
REMARK 921   NORMALIZED FREE ENERGY PREDICTED BY IDOCK:   -6.37 KCAL/MOL
REMARK 922        TOTAL FREE ENERGY PREDICTED BY IDOCK:   -8.08 KCAL/MOL
REMARK 923 INTER-LIGAND FREE ENERGY PREDICTED BY IDOCK:   -7.59 KCAL/MOL
REMARK 924 INTRA-LIGAND FREE ENERGY PREDICTED BY IDOCK:   -0.49 KCAL/MOL
REMARK 927      BINDING AFFINITY PREDICTED BY RF-SCORE:    0.00 PKD
ROOT
HETATM    1  C   UNL     1      -9.477  13.113  66.123  1.00  0.00    -0.156 C  
HETATM    2  C   UNL     1     -10.107  12.254  65.191  1.00  0.00    -0.284 C  
HETATM    3  C   UNL     1     -11.009  13.034  66.075  1.00  0.00    -0.296 C  
HETATM    4  C   UNL     1     -10.120  14.531  67.189  1.00  0.00    -0.252 C  
HETATM    5  C   UNL     1      -9.517  12.310  67.784  1.00  0.00    -0.197 C  
HETATM    6  C   UNL     1     -11.136   9.134  70.252  1.00  0.00    -0.272 C  
HETATM    7  C   UNL     1     -10.771  14.577  65.982  1.00  0.00    -0.306 C  
HETATM    8  C   UNL     1     -10.848  15.495  64.797  1.00  0.00    -0.385 C  
HETATM    9  C   UNL     1     -12.361  14.439  66.975  1.00  0.00    -0.133 C  
HETATM   10  C   UNL     1     -12.469   9.217  70.971  1.00  0.00    -0.211 C  
HETATM   11  C   UNL     1      -8.924  10.876  67.758  1.00  0.00    -0.139 C  
HETATM   12  C   UNL     1     -12.102  13.530  68.390  1.00  0.00    -0.293 C  
HETATM   13  C   UNL     1      -9.106  10.044  69.053  1.00  0.00    -0.172 C  
HETATM   14  C   UNL     1     -10.435  10.193  69.784  1.00  0.00    -0.301 C  
HETATM   15  C   UNL     1     -11.011  12.250  68.501  1.00  0.00    -0.275 C  
HETATM   16  C   UNL     1     -10.957  11.617  69.919  1.00  0.00     0.104 C  
HETATM   17  C   UNL     1     -12.395  11.671  70.465  1.00  0.00    -0.410 C  
HETATM   18  C   UNL     1     -12.793  10.627  71.462  1.00  0.00    -0.567 C  
ENDROOT
BRANCH   4  19
HETATM   19  C   UNL     1      -8.721  15.195  66.891  1.00  0.00    -0.289 C  
HETATM   20  C   UNL     1      -7.672  15.761  66.717  1.00  0.00    -0.216 C  
ENDBRANCH   4  19
BRANCH   4  21
HETATM   21  O   UNL     1     -10.745  15.686  67.867  1.00  0.00    -0.277 OA 
BRANCH  21  22
HETATM   22  C   UNL     1     -10.149  16.266  68.935  1.00  0.00    -0.251 C  
HETATM   23  O   UNL     1      -9.780  15.680  69.943  1.00  0.00    -0.283 OA 
HETATM   24  C   UNL     1     -10.165  17.767  68.772  1.00  0.00    -0.373 C  
ENDBRANCH  21  22
ENDBRANCH   4  21
BRANCH  10  25
HETATM   25  O   UNL     1     -12.448   8.360  72.126  1.00  0.00    -0.335 OA 
BRANCH  25  26
HETATM   26  C   UNL     1     -12.986   7.121  71.918  1.00  0.00    -0.244 C  
HETATM   27  C   UNL     1     -14.409   7.237  71.471  1.00  0.00    -0.558 C  
HETATM   28  O   UNL     1     -12.386   6.056  72.001  1.00  0.00    -0.219 OA 
ENDBRANCH  25  26
ENDBRANCH  10  25
TORSDOF 5
ENDMDL
MODEL        6
REMARK 921   NORMALIZED FREE ENERGY PREDICTED BY IDOCK:   -6.28 KCAL/MOL
REMARK 922        TOTAL FREE ENERGY PREDICTED BY IDOCK:   -7.96 KCAL/MOL
REMARK 923 INTER-LIGAND FREE ENERGY PREDICTED BY IDOCK:   -7.57 KCAL/MOL
REMARK 924 INTRA-LIGAND FREE ENERGY PREDICTED BY IDOCK:   -0.38 KCAL/MOL
REMARK 927      BINDING AFFINITY PREDICTED BY RF-SCORE:    0.00 PKD
ROOT
HETATM    1  C   UNL     1      -9.815   9.818  65.613  1.00  0.00    -0.371 C  
HETATM    2  C   UNL     1      -9.120  10.268  64.464  1.00  0.00    -0.270 C  
HETATM    3  C   UNL     1      -8.467  10.535  65.770  1.00  0.00    -0.177 C  
HETATM    4  C   UNL     1      -9.292   9.590  67.412  1.00  0.00    -0.130 C  
HETATM    5  C   UNL     1     -10.642  11.266  66.403  1.00  0.00    -0.316 C  
HETATM    6  C   UNL     1     -11.022  15.580  66.600  1.00  0.00    -0.248 C  
HETATM    7  C   UNL     1      -8.233   9.239  66.614  1.00  0.00    -0.115 C  
HETATM    8  C   UNL     1      -7.458   7.997  66.279  1.00  0.00    -0.082 C  
HETATM    9  C   UNL     1      -7.257  10.548  67.545  1.00  0.00    -0.090 C  
HETATM   10  C   UNL     1     -10.107  16.474  67.416  1.00  0.00    -0.279 C  
HETATM   11  C   UNL     1     -11.533  12.051  65.404  1.00  0.00    -0.361 C  
HETATM   12  C   UNL     1      -8.280  11.818  68.032  1.00  0.00    -0.152 C  
HETATM   13  C   UNL     1     -12.100  13.400  65.917  1.00  0.00    -0.486 C  
HETATM   14  C   UNL     1     -11.177  14.249  66.782  1.00  0.00    -0.337 C  
HETATM   15  C   UNL     1      -9.623  12.336  67.155  1.00  0.00    -0.200 C  
HETATM   16  C   UNL     1     -10.393  13.494  67.849  1.00  0.00    -0.249 C  
HETATM   17  C   UNL     1      -9.326  14.369  68.530  1.00  0.00    -0.204 C  
HETATM   18  C   UNL     1      -9.642  15.821  68.717  1.00  0.00    -0.216 C  
ENDROOT
BRANCH   4  19
HETATM   19  C   UNL     1     -10.233   8.325  67.371  1.00  0.00    -0.326 C  
HETATM   20  C   UNL     1     -10.898   7.325  67.288  1.00  0.00    -0.354 C  
ENDBRANCH   4  19
BRANCH   4  21
HETATM   21  O   UNL     1      -8.702   9.353  68.746  1.00  0.00    -0.128 OA 
BRANCH  21  22
HETATM   22  C   UNL     1      -9.482   9.333  69.852  1.00  0.00    -0.197 C  
HETATM   23  O   UNL     1     -10.461  10.041  70.040  1.00  0.00    -0.256 OA 
HETATM   24  C   UNL     1      -8.863   8.431  70.894  1.00  0.00    -0.185 C  
ENDBRANCH  21  22
ENDBRANCH   4  21
BRANCH  10  25
HETATM   25  O   UNL     1     -10.805  17.680  67.773  1.00  0.00    -0.367 OA 
BRANCH  25  26
HETATM   26  C   UNL     1     -10.356  18.801  67.133  1.00  0.00    -0.404 C  
HETATM   27  C   UNL     1     -10.195  19.929  68.104  1.00  0.00    -0.564 C  
HETATM   28  O   UNL     1     -10.047  18.876  65.951  1.00  0.00    -0.506 OA 
ENDBRANCH  25  26
ENDBRANCH  10  25
TORSDOF 5
ENDMDL
MODEL        7
REMARK 921   NORMALIZED FREE ENERGY PREDICTED BY IDOCK:   -6.23 KCAL/MOL
REMARK 922        TOTAL FREE ENERGY PREDICTED BY IDOCK:   -7.89 KCAL/MOL
REMARK 923 INTER-LIGAND FREE ENERGY PREDICTED BY IDOCK:   -7.85 KCAL/MOL
REMARK 924 INTRA-LIGAND FREE ENERGY PREDICTED BY IDOCK:   -0.04 KCAL/MOL
REMARK 927      BINDING AFFINITY PREDICTED BY RF-SCORE:    0.00 PKD
ROOT
HETATM    1  C   UNL     1      -9.321  12.993  66.346  1.00  0.00    -0.189 C  
HETATM    2  C   UNL     1      -9.812  12.049  65.412  1.00  0.00    -0.243 C  
HETATM    3  C   UNL     1     -10.835  12.811  66.173  1.00  0.00    -0.303 C  
HETATM    4  C   UNL     1     -10.142  14.416  67.274  1.00  0.00    -0.251 C  
HETATM    5  C   UNL     1      -9.459  12.272  68.039  1.00  0.00    -0.206 C  
HETATM    6  C   UNL     1     -11.090   9.122  70.531  1.00  0.00    -0.308 C  
HETATM    7  C   UNL     1     -10.685  14.360  66.016  1.00  0.00    -0.302 C  
HETATM    8  C   UNL     1     -10.713  15.211  64.780  1.00  0.00    -0.344 C  
HETATM    9  C   UNL     1     -12.345  14.166  66.876  1.00  0.00    -0.293 C  
HETATM   10  C   UNL     1     -12.483   9.151  71.128  1.00  0.00    -0.254 C  
HETATM   11  C   UNL     1      -8.778  10.881  68.142  1.00  0.00    -0.133 C  
HETATM   12  C   UNL     1     -12.157  13.347  68.355  1.00  0.00    -0.270 C  
HETATM   13  C   UNL     1      -9.022  10.103  69.461  1.00  0.00    -0.205 C  
HETATM   14  C   UNL     1     -10.417  10.199  70.067  1.00  0.00    -0.325 C  
HETATM   15  C   UNL     1     -11.003  12.149  68.629  1.00  0.00    -0.284 C  
HETATM   16  C   UNL     1     -11.036  11.592  70.079  1.00  0.00     0.021 C  
HETATM   17  C   UNL     1     -12.517  11.577  70.497  1.00  0.00    -0.367 C  
HETATM   18  C   UNL     1     -12.937  10.559  71.513  1.00  0.00    -0.565 C  
ENDROOT
BRANCH   4  19
HETATM   19  C   UNL     1      -8.765  15.156  67.060  1.00  0.00    -0.264 C  
HETATM   20  C   UNL     1      -7.729  15.761  66.966  1.00  0.00    -0.267 C  
ENDBRANCH   4  19
BRANCH   4  21
HETATM   21  O   UNL     1     -10.894  15.559  67.832  1.00  0.00    -0.288 OA 
BRANCH  21  22
HETATM   22  C   UNL     1     -10.388  16.286  68.855  1.00  0.00    -0.263 C  
HETATM   23  O   UNL     1     -10.081  15.844  69.954  1.00  0.00    -0.268 OA 
HETATM   24  C   UNL     1     -10.421  17.754  68.501  1.00  0.00    -0.332 C  
ENDBRANCH  21  22
ENDBRANCH   4  21
BRANCH  10  25
HETATM   25  O   UNL     1     -12.512   8.355  72.326  1.00  0.00    -0.346 OA 
BRANCH  25  26
HETATM   26  C   UNL     1     -11.684   7.268  72.300  1.00  0.00    -0.265 C  
HETATM   27  C   UNL     1     -10.657   7.367  73.386  1.00  0.00    -0.427 C  
HETATM   28  O   UNL     1     -11.794   6.301  71.558  1.00  0.00    -0.306 OA 
ENDBRANCH  25  26
ENDBRANCH  10  25
TORSDOF 5
ENDMDL
MODEL        8
REMARK 921   NORMALIZED FREE ENERGY PREDICTED BY IDOCK:   -6.19 KCAL/MOL
REMARK 922        TOTAL FREE ENERGY PREDICTED BY IDOCK:   -7.84 KCAL/MOL
REMARK 923 INTER-LIGAND FREE ENERGY PREDICTED BY IDOCK:   -7.73 KCAL/MOL
REMARK 924 INTRA-LIGAND FREE ENERGY PREDICTED BY IDOCK:   -0.11 KCAL/MOL
REMARK 927      BINDING AFFINITY PREDICTED BY RF-SCORE:    0.00 PKD
ROOT
HETATM    1  C   UNL     1      -9.179  11.960  67.483  1.00  0.00    -0.177 C  
HETATM    2  C   UNL     1      -8.749  11.804  68.824  1.00  0.00     0.019 C  
HETATM    3  C   UNL     1     -10.057  12.479  68.630  1.00  0.00    -0.139 C  
HETATM    4  C   UNL     1     -10.847  12.403  66.723  1.00  0.00    -0.248 C  
HETATM    5  C   UNL     1      -8.874  13.706  66.969  1.00  0.00    -0.233 C  
HETATM    6  C   UNL     1      -7.865  17.740  68.196  1.00  0.00    -0.264 C  
HETATM    7  C   UNL     1     -11.077  11.613  67.820  1.00  0.00    -0.309 C  
HETATM    8  C   UNL     1     -11.624  10.246  68.108  1.00  0.00     0.040 C  
HETATM    9  C   UNL     1     -12.126  13.033  68.468  1.00  0.00    -0.185 C  
HETATM   10  C   UNL     1      -8.877  18.745  68.712  1.00  0.00    -0.273 C  
HETATM   11  C   UNL     1      -7.404  14.141  67.206  1.00  0.00    -0.035 C  
HETATM   12  C   UNL     1     -11.512  14.523  67.922  1.00  0.00    -0.348 C  
HETATM   13  C   UNL     1      -7.101  15.648  67.003  1.00  0.00    -0.127 C  
HETATM   14  C   UNL     1      -8.162  16.631  67.480  1.00  0.00    -0.180 C  
HETATM   15  C   UNL     1      -9.875  14.830  67.663  1.00  0.00    -0.218 C  
HETATM   16  C   UNL     1      -9.601  16.266  67.136  1.00  0.00    -0.238 C  
HETATM   17  C   UNL     1     -10.626  17.179  67.834  1.00  0.00    -0.376 C  
HETATM   18  C   UNL     1     -10.243  18.612  68.041  1.00  0.00    -0.426 C  
ENDROOT
BRANCH   4  19
HETATM   19  C   UNL     1     -10.440  11.378  65.596  1.00  0.00    -0.316 C  
HETATM   20  C   UNL     1     -10.051  10.616  64.749  1.00  0.00    -0.412 C  
ENDBRANCH   4  19
BRANCH   4  21
HETATM   21  O   UNL     1     -12.236  12.643  66.278  1.00  0.00    -0.562 OA 
BRANCH  21  22
HETATM   22  C   UNL     1     -12.508  12.921  64.982  1.00  0.00    -0.492 C  
HETATM   23  O   UNL     1     -13.189  12.228  64.237  1.00  0.00    -0.785 OA 
HETATM   24  C   UNL     1     -11.707  14.122  64.540  1.00  0.00    -0.426 C  
ENDBRANCH  21  22
ENDBRANCH   4  21
BRANCH  10  25
HETATM   25  O   UNL     1      -8.405  20.080  68.452  1.00  0.00    -0.231 OA 
BRANCH  25  26
HETATM   26  C   UNL     1      -7.122  20.313  68.861  1.00  0.00    -0.069 C  
HETATM   27  C   UNL     1      -6.340  20.980  67.773  1.00  0.00    -0.410 C  
HETATM   28  O   UNL     1      -6.675  20.092  69.979  1.00  0.00    -0.307 OA 
ENDBRANCH  25  26
ENDBRANCH  10  25
TORSDOF 5
ENDMDL
MODEL        9
REMARK 921   NORMALIZED FREE ENERGY PREDICTED BY IDOCK:   -6.09 KCAL/MOL
REMARK 922        TOTAL FREE ENERGY PREDICTED BY IDOCK:   -7.71 KCAL/MOL
REMARK 923 INTER-LIGAND FREE ENERGY PREDICTED BY IDOCK:   -7.58 KCAL/MOL
REMARK 924 INTRA-LIGAND FREE ENERGY PREDICTED BY IDOCK:   -0.13 KCAL/MOL
REMARK 927      BINDING AFFINITY PREDICTED BY RF-SCORE:    0.00 PKD
ROOT
HETATM    1  C   UNL     1      -8.926  12.273  66.556  1.00  0.00    -0.161 C  
HETATM    2  C   UNL     1      -9.165  11.214  65.647  1.00  0.00    -0.238 C  
HETATM    3  C   UNL     1     -10.367  11.846  66.245  1.00  0.00    -0.259 C  
HETATM    4  C   UNL     1     -10.047  13.597  67.295  1.00  0.00    -0.239 C  
HETATM    5  C   UNL     1      -9.138  11.631  68.273  1.00  0.00    -0.187 C  
HETATM    6  C   UNL     1     -10.541   8.405  70.806  1.00  0.00    -0.240 C  
HETATM    7  C   UNL     1     -10.435  13.389  65.996  1.00  0.00    -0.294 C  
HETATM    8  C   UNL     1     -10.455  14.156  64.706  1.00  0.00    -0.432 C  
HETATM    9  C   UNL     1     -12.131  12.984  66.697  1.00  0.00    -0.386 C  
HETATM   10  C   UNL     1     -11.980   8.248  71.258  1.00  0.00    -0.287 C  
HETATM   11  C   UNL     1      -8.272  10.372  68.542  1.00  0.00    -0.119 C  
HETATM   12  C   UNL     1     -11.985  12.286  68.242  1.00  0.00    -0.259 C  
HETATM   13  C   UNL     1      -8.539   9.638  69.881  1.00  0.00    -0.218 C  
HETATM   14  C   UNL     1      -9.990   9.548  70.336  1.00  0.00    -0.325 C  
HETATM   15  C   UNL     1     -10.701  11.300  68.713  1.00  0.00    -0.240 C  
HETATM   16  C   UNL     1     -10.809  10.824  70.188  1.00  0.00    -0.148 C  
HETATM   17  C   UNL     1     -12.308  10.600  70.456  1.00  0.00    -0.448 C  
HETATM   18  C   UNL     1     -12.679   9.586  71.494  1.00  0.00    -0.461 C  
ENDROOT
BRANCH   4  19
HETATM   19  C   UNL     1      -8.783  14.531  67.167  1.00  0.00    -0.237 C  
HETATM   20  C   UNL     1      -7.863  15.295  67.026  1.00  0.00    -0.224 C  
ENDBRANCH   4  19
BRANCH   4  21
HETATM   21  O   UNL     1     -11.020  14.637  67.692  1.00  0.00    -0.277 OA 
BRANCH  21  22
HETATM   22  C   UNL     1     -10.806  15.398  68.791  1.00  0.00    -0.252 C  
HETATM   23  O   UNL     1     -10.645  14.972  69.927  1.00  0.00    -0.239 OA 
HETATM   24  C   UNL     1     -10.969  16.858  68.438  1.00  0.00    -0.296 C  
ENDBRANCH  21  22
ENDBRANCH   4  21
BRANCH  10  25
HETATM   25  O   UNL     1     -12.019   7.523  72.500  1.00  0.00    -0.260 OA 
BRANCH  25  26
HETATM   26  C   UNL     1     -11.131   6.488  72.577  1.00  0.00    -0.260 C  
HETATM   27  C   UNL     1     -10.350   6.562  73.851  1.00  0.00    -0.356 C  
HETATM   28  O   UNL     1     -11.027   5.573  71.770  1.00  0.00    -0.240 OA 
ENDBRANCH  25  26
ENDBRANCH  10  25
TORSDOF 5
ENDMDL
MODEL       10
REMARK 921   NORMALIZED FREE ENERGY PREDICTED BY IDOCK:   -6.03 KCAL/MOL
REMARK 922        TOTAL FREE ENERGY PREDICTED BY IDOCK:   -7.63 KCAL/MOL
REMARK 923 INTER-LIGAND FREE ENERGY PREDICTED BY IDOCK:   -7.18 KCAL/MOL
REMARK 924 INTRA-LIGAND FREE ENERGY PREDICTED BY IDOCK:   -0.45 KCAL/MOL
REMARK 927      BINDING AFFINITY PREDICTED BY RF-SCORE:    0.00 PKD
ROOT
HETATM    1  C   UNL     1      -8.165   6.982  68.853  1.00  0.00    -0.122 C  
HETATM    2  C   UNL     1      -6.948   7.679  68.658  1.00  0.00    -0.075 C  
HETATM    3  C   UNL     1      -7.798   8.146  69.782  1.00  0.00    -0.105 C  
HETATM    4  C   UNL     1      -9.391   6.931  70.286  1.00  0.00    -0.162 C  
HETATM    5  C   UNL     1      -9.542   8.002  68.169  1.00  0.00    -0.165 C  
HETATM    6  C   UNL     1     -10.806  11.859  66.645  1.00  0.00    -0.315 C  
HETATM    7  C   UNL     1      -8.127   7.015  70.811  1.00  0.00    -0.113 C  
HETATM    8  C   UNL     1      -7.206   6.159  71.630  1.00  0.00    -0.087 C  
HETATM    9  C   UNL     1      -8.723   8.576  71.672  1.00  0.00    -0.262 C  
HETATM   10  C   UNL     1     -11.245  13.013  67.524  1.00  0.00    -0.284 C  
HETATM   11  C   UNL     1      -9.290   8.417  66.695  1.00  0.00    -0.245 C  
HETATM   12  C   UNL     1      -9.901   9.363  70.729  1.00  0.00    -0.348 C  
HETATM   13  C   UNL     1     -10.286   9.447  66.101  1.00  0.00    -0.264 C  
HETATM   14  C   UNL     1     -10.753  10.562  67.028  1.00  0.00    -0.310 C  
HETATM   15  C   UNL     1      -9.915   9.360  69.043  1.00  0.00    -0.182 C  
HETATM   16  C   UNL     1     -11.121  10.134  68.443  1.00  0.00    -0.273 C  
HETATM   17  C   UNL     1     -11.368  11.331  69.378  1.00  0.00    -0.360 C  
HETATM   18  C   UNL     1     -11.987  12.556  68.780  1.00  0.00    -0.283 C  
ENDROOT
BRANCH   4  19
HETATM   19  C   UNL     1      -9.544   5.407  69.908  1.00  0.00    -0.226 C  
HETATM   20  C   UNL     1      -9.741   4.256  69.618  1.00  0.00    -0.284 C  
ENDBRANCH   4  19
BRANCH   4  21
HETATM   21  O   UNL     1     -10.189   6.906  71.529  1.00  0.00    -0.196 OA 
BRANCH  21  22
HETATM   22  C   UNL     1     -11.456   6.429  71.528  1.00  0.00    -0.306 C  
HETATM   23  O   UNL     1     -12.343   6.779  70.762  1.00  0.00    -0.377 OA 
HETATM   24  C   UNL     1     -11.660   5.527  72.722  1.00  0.00    -0.298 C  
ENDBRANCH  21  22
ENDBRANCH   4  21
BRANCH  10  25
HETATM   25  O   UNL     1     -12.142  13.866  66.789  1.00  0.00    -0.423 OA 
BRANCH  25  26
HETATM   26  C   UNL     1     -11.527  14.673  65.874  1.00  0.00    -0.338 C  
HETATM   27  C   UNL     1     -12.162  14.516  64.528  1.00  0.00    -0.483 C  
HETATM   28  O   UNL     1     -10.636  15.478  66.113  1.00  0.00    -0.298 OA 
ENDBRANCH  25  26
ENDBRANCH  10  25
TORSDOF 5
ENDMDL
MODEL       11
REMARK 921   NORMALIZED FREE ENERGY PREDICTED BY IDOCK:   -6.02 KCAL/MOL
REMARK 922        TOTAL FREE ENERGY PREDICTED BY IDOCK:   -7.62 KCAL/MOL
REMARK 923 INTER-LIGAND FREE ENERGY PREDICTED BY IDOCK:   -7.32 KCAL/MOL
REMARK 924 INTRA-LIGAND FREE ENERGY PREDICTED BY IDOCK:   -0.29 KCAL/MOL
REMARK 927      BINDING AFFINITY PREDICTED BY RF-SCORE:    0.00 PKD
ROOT
HETATM    1  C   UNL     1     -10.647  14.743  68.362  1.00  0.00    -0.242 C  
HETATM    2  C   UNL     1      -9.760  15.102  69.406  1.00  0.00    -0.206 C  
HETATM    3  C   UNL     1      -9.337  13.965  68.551  1.00  0.00    -0.164 C  
HETATM    4  C   UNL     1     -10.443  13.658  66.832  1.00  0.00    -0.272 C  
HETATM    5  C   UNL     1     -11.580  13.237  68.876  1.00  0.00    -0.357 C  
HETATM    6  C   UNL     1     -11.938   9.961  71.693  1.00  0.00    -0.427 C  
HETATM    7  C   UNL     1      -9.267  14.335  67.033  1.00  0.00    -0.249 C  
HETATM    8  C   UNL     1      -8.460  15.391  66.334  1.00  0.00    -0.169 C  
HETATM    9  C   UNL     1      -8.450  12.644  67.109  1.00  0.00    -0.186 C  
HETATM   10  C   UNL     1     -11.167   8.660  71.580  1.00  0.00    -0.309 C  
HETATM   11  C   UNL     1     -12.277  13.417  70.250  1.00  0.00    -0.405 C  
HETATM   12  C   UNL     1      -9.527  11.491  67.748  1.00  0.00    -0.168 C  
HETATM   13  C   UNL     1     -12.909  12.141  70.864  1.00  0.00    -0.190 C  
HETATM   14  C   UNL     1     -12.138  10.840  70.684  1.00  0.00    -0.467 C  
HETATM   15  C   UNL     1     -10.693  11.837  68.914  1.00  0.00    -0.241 C  
HETATM   16  C   UNL     1     -11.558  10.603  69.295  1.00  0.00    -0.346 C  
HETATM   17  C   UNL     1     -10.613   9.389  69.247  1.00  0.00    -0.239 C  
HETATM   18  C   UNL     1     -10.939   8.226  70.133  1.00  0.00    -0.222 C  
ENDROOT
BRANCH   4  19
HETATM   19  C   UNL     1     -11.377  14.721  66.135  1.00  0.00    -0.330 C  
HETATM   20  C   UNL     1     -12.051  15.516  65.533  1.00  0.00     0.602 C  
ENDBRANCH   4  19
BRANCH   4  21
HETATM   21  O   UNL     1     -10.093  12.882  65.624  1.00  0.00    -0.279 OA 
BRANCH  21  22
HETATM   22  C   UNL     1     -11.056  12.277  64.889  1.00  0.00    -0.311 C  
HETATM   23  O   UNL     1     -12.168  11.971  65.295  1.00  0.00    -0.437 OA 
HETATM   24  C   UNL     1     -10.494  11.879  63.545  1.00  0.00    -0.505 C  
ENDBRANCH  21  22
ENDBRANCH   4  21
BRANCH  10  25
HETATM   25  O   UNL     1     -11.902   7.606  72.228  1.00  0.00    -0.303 OA 
BRANCH  25  26
HETATM   26  C   UNL     1     -11.120   6.678  72.857  1.00  0.00    -0.229 C  
HETATM   27  C   UNL     1      -9.960   7.342  73.531  1.00  0.00    -0.377 C  
HETATM   28  O   UNL     1     -11.357   5.480  72.940  1.00  0.00    -0.291 OA 
ENDBRANCH  25  26
ENDBRANCH  10  25
TORSDOF 5
ENDMDL
MODEL       12
REMARK 921   NORMALIZED FREE ENERGY PREDICTED BY IDOCK:   -6.00 KCAL/MOL
REMARK 922        TOTAL FREE ENERGY PREDICTED BY IDOCK:   -7.59 KCAL/MOL
REMARK 923 INTER-LIGAND FREE ENERGY PREDICTED BY IDOCK:   -7.23 KCAL/MOL
REMARK 924 INTRA-LIGAND FREE ENERGY PREDICTED BY IDOCK:   -0.36 KCAL/MOL
REMARK 927      BINDING AFFINITY PREDICTED BY RF-SCORE:    0.00 PKD
ROOT
HETATM    1  C   UNL     1      -7.995  10.439  67.036  1.00  0.00    -0.116 C  
HETATM    2  C   UNL     1      -7.098  11.323  67.683  1.00  0.00    -0.090 C  
HETATM    3  C   UNL     1      -7.673  10.243  68.524  1.00  0.00    -0.091 C  
HETATM    4  C   UNL     1      -8.701   8.758  67.521  1.00  0.00    -0.134 C  
HETATM    5  C   UNL     1      -9.718  10.906  67.502  1.00  0.00    -0.187 C  
HETATM    6  C   UNL     1     -12.278  13.230  70.118  1.00  0.00    -0.376 C  
HETATM    7  C   UNL     1      -7.401   8.813  67.952  1.00  0.00    -0.088 C  
HETATM    8  C   UNL     1      -6.100   8.127  67.649  1.00  0.00    -0.051 C  
HETATM    9  C   UNL     1      -8.087   8.475  69.670  1.00  0.00    -0.113 C  
HETATM   10  C   UNL     1     -12.714  12.775  71.498  1.00  0.00    -0.229 C  
HETATM   11  C   UNL     1     -10.015  12.405  67.230  1.00  0.00    -0.209 C  
HETATM   12  C   UNL     1      -9.643   9.144  69.831  1.00  0.00    -0.206 C  
HETATM   13  C   UNL     1     -11.361  12.941  67.782  1.00  0.00    -0.343 C  
HETATM   14  C   UNL     1     -11.799  12.421  69.145  1.00  0.00    -0.352 C  
HETATM   15  C   UNL     1     -10.144  10.560  69.067  1.00  0.00    -0.230 C  
HETATM   16  C   UNL     1     -11.624  10.924  69.368  1.00  0.00    -0.387 C  
HETATM   17  C   UNL     1     -11.876  10.510  70.829  1.00  0.00    -0.465 C  
HETATM   18  C   UNL     1     -12.923  11.264  71.588  1.00  0.00    -0.537 C  
ENDROOT
BRANCH   4  19
HETATM   19  C   UNL     1      -8.577   8.427  65.984  1.00  0.00    -0.164 C  
HETATM   20  C   UNL     1      -8.490   8.254  64.796  1.00  0.00    -0.089 C  
ENDBRANCH   4  19
BRANCH   4  21
HETATM   21  O   UNL     1      -9.073   7.405  67.984  1.00  0.00    -0.131 OA 
BRANCH  21  22
HETATM   22  C   UNL     1     -10.128   6.754  67.441  1.00  0.00    -0.175 C  
HETATM   23  O   UNL     1     -11.158   7.283  67.045  1.00  0.00    -0.308 OA 
HETATM   24  C   UNL     1      -9.919   5.262  67.554  1.00  0.00    -0.206 C  
ENDBRANCH  21  22
ENDBRANCH   4  21
BRANCH  10  25
HETATM   25  O   UNL     1     -13.966  13.398  71.838  1.00  0.00    -0.354 OA 
BRANCH  25  26
HETATM   26  C   UNL     1     -13.861  14.710  72.206  1.00  0.00    -0.479 C  
HETATM   27  C   UNL     1     -12.906  14.858  73.349  1.00  0.00    -0.638 C  
HETATM   28  O   UNL     1     -14.398  15.657  71.645  1.00  0.00    -0.478 OA 
ENDBRANCH  25  26
ENDBRANCH  10  25
TORSDOF 5
ENDMDL
MODEL       13
REMARK 921   NORMALIZED FREE ENERGY PREDICTED BY IDOCK:   -5.98 KCAL/MOL
REMARK 922        TOTAL FREE ENERGY PREDICTED BY IDOCK:   -7.57 KCAL/MOL
REMARK 923 INTER-LIGAND FREE ENERGY PREDICTED BY IDOCK:   -7.69 KCAL/MOL
REMARK 924 INTRA-LIGAND FREE ENERGY PREDICTED BY IDOCK:    0.12 KCAL/MOL
REMARK 927      BINDING AFFINITY PREDICTED BY RF-SCORE:    0.00 PKD
ROOT
HETATM    1  C   UNL     1      -8.686  11.819  67.354  1.00  0.00    -0.162 C  
HETATM    2  C   UNL     1      -8.470  11.698  68.748  1.00  0.00    -0.027 C  
HETATM    3  C   UNL     1      -9.799  12.214  68.334  1.00  0.00    -0.200 C  
HETATM    4  C   UNL     1     -10.245  12.071  66.322  1.00  0.00    -0.222 C  
HETATM    5  C   UNL     1      -8.511  13.596  66.886  1.00  0.00    -0.073 C  
HETATM    6  C   UNL     1      -8.212  17.704  68.238  1.00  0.00    -0.276 C  
HETATM    7  C   UNL     1     -10.559  11.244  67.370  1.00  0.00    -0.262 C  
HETATM    8  C   UNL     1     -10.978   9.817  67.572  1.00  0.00    -0.205 C  
HETATM    9  C   UNL     1     -11.863  12.519  67.824  1.00  0.00    -0.375 C  
HETATM   10  C   UNL     1      -9.408  18.575  68.570  1.00  0.00    -0.338 C  
HETATM   11  C   UNL     1      -7.164  14.199  67.363  1.00  0.00    -0.124 C  
HETATM   12  C   UNL     1     -11.350  14.079  67.379  1.00  0.00    -0.350 C  
HETATM   13  C   UNL     1      -7.014  15.734  67.203  1.00  0.00    -0.204 C  
HETATM   14  C   UNL     1      -8.250  16.578  67.489  1.00  0.00    -0.170 C  
HETATM   15  C   UNL     1      -9.742  14.583  67.395  1.00  0.00    -0.222 C  
HETATM   16  C   UNL     1      -9.558  16.049  66.912  1.00  0.00    -0.239 C  
HETATM   17  C   UNL     1     -10.786  16.823  67.423  1.00  0.00    -0.244 C  
HETATM   18  C   UNL     1     -10.618  18.289  67.681  1.00  0.00    -0.427 C  
ENDROOT
BRANCH   4  19
HETATM   19  C   UNL     1      -9.536  11.116  65.286  1.00  0.00    -0.257 C  
HETATM   20  C   UNL     1      -8.924  10.427  64.512  1.00  0.00    -0.241 C  
ENDBRANCH   4  19
BRANCH   4  21
HETATM   21  O   UNL     1     -11.559  12.149  65.650  1.00  0.00    -0.364 OA 
BRANCH  21  22
HETATM   22  C   UNL     1     -11.673  12.698  64.418  1.00  0.00    -0.369 C  
HETATM   23  O   UNL     1     -11.222  13.785  64.084  1.00  0.00    -0.345 OA 
HETATM   24  C   UNL     1     -12.589  11.851  63.566  1.00  0.00    -0.579 C  
ENDBRANCH  21  22
ENDBRANCH   4  21
BRANCH  10  25
HETATM   25  O   UNL     1      -9.063  19.959  68.384  1.00  0.00    -0.304 OA 
BRANCH  25  26
HETATM   26  C   UNL     1      -8.425  20.228  67.206  1.00  0.00    -0.347 C  
HETATM   27  C   UNL     1      -7.070  20.809  67.466  1.00  0.00    -0.397 C  
HETATM   28  O   UNL     1      -8.847  19.966  66.087  1.00  0.00    -0.365 OA 
ENDBRANCH  25  26
ENDBRANCH  10  25
TORSDOF 5
ENDMDL
MODEL       14
REMARK 921   NORMALIZED FREE ENERGY PREDICTED BY IDOCK:   -5.95 KCAL/MOL
REMARK 922        TOTAL FREE ENERGY PREDICTED BY IDOCK:   -7.53 KCAL/MOL
REMARK 923 INTER-LIGAND FREE ENERGY PREDICTED BY IDOCK:   -7.35 KCAL/MOL
REMARK 924 INTRA-LIGAND FREE ENERGY PREDICTED BY IDOCK:   -0.18 KCAL/MOL
REMARK 927      BINDING AFFINITY PREDICTED BY RF-SCORE:    0.00 PKD
ROOT
HETATM    1  C   UNL     1      -7.361   7.635  65.597  1.00  0.00    -0.073 C  
HETATM    2  C   UNL     1      -6.191   8.431  65.545  1.00  0.00    -0.045 C  
HETATM    3  C   UNL     1      -7.051   8.608  66.742  1.00  0.00    -0.078 C  
HETATM    4  C   UNL     1      -8.561   7.221  66.992  1.00  0.00    -0.122 C  
HETATM    5  C   UNL     1      -8.806   8.685  65.136  1.00  0.00    -0.147 C  
HETATM    6  C   UNL     1     -10.320  12.685  64.425  1.00  0.00    -0.386 C  
HETATM    7  C   UNL     1      -7.298   7.275  67.522  1.00  0.00    -0.092 C  
HETATM    8  C   UNL     1      -6.315   6.329  68.149  1.00  0.00    -0.040 C  
HETATM    9  C   UNL     1      -7.974   8.591  68.681  1.00  0.00    -0.116 C  
HETATM   10  C   UNL     1     -10.816  13.609  65.520  1.00  0.00    -0.294 C  
HETATM   11  C   UNL     1      -8.601   9.403  63.776  1.00  0.00    -0.224 C  
HETATM   12  C   UNL     1      -9.209   9.478  67.919  1.00  0.00    -0.134 C  
HETATM   13  C   UNL     1      -9.664  10.469  63.404  1.00  0.00    -0.368 C  
HETATM   14  C   UNL     1     -10.184  11.343  64.537  1.00  0.00    -0.352 C  
HETATM   15  C   UNL     1      -9.247   9.814  66.267  1.00  0.00    -0.207 C  
HETATM   16  C   UNL     1     -10.506  10.617  65.838  1.00  0.00    -0.243 C  
HETATM   17  C   UNL     1     -10.811  11.583  66.996  1.00  0.00    -0.320 C  
HETATM   18  C   UNL     1     -11.511  12.863  66.659  1.00  0.00    -0.393 C  
ENDROOT
BRANCH   4  19
HETATM   19  C   UNL     1      -8.628   5.798  66.315  1.00  0.00    -0.130 C  
HETATM   20  C   UNL     1      -8.734   4.742  65.746  1.00  0.00    -0.127 C  
ENDBRANCH   4  19
BRANCH   4  21
HETATM   21  O   UNL     1      -9.339   6.897  68.206  1.00  0.00    -0.127 OA 
BRANCH  21  22
HETATM   22  C   UNL     1     -10.649   6.569  68.121  1.00  0.00    -0.251 C  
HETATM   23  O   UNL     1     -11.346   6.694  67.123  1.00  0.00    -0.343 OA 
HETATM   24  C   UNL     1     -11.168   6.188  69.487  1.00  0.00    -0.482 C  
ENDBRANCH  21  22
ENDBRANCH   4  21
BRANCH  10  25
HETATM   25  O   UNL     1     -11.772  14.535  64.974  1.00  0.00    -0.362 OA 
BRANCH  25  26
HETATM   26  C   UNL     1     -11.270  15.782  64.727  1.00  0.00    -0.366 C  
HETATM   27  C   UNL     1     -10.080  16.048  65.595  1.00  0.00    -0.384 C  
HETATM   28  O   UNL     1     -11.670  16.558  63.869  1.00  0.00    -1.148 OA 
ENDBRANCH  25  26
ENDBRANCH  10  25
TORSDOF 5
ENDMDL
MODEL       15
REMARK 921   NORMALIZED FREE ENERGY PREDICTED BY IDOCK:   -5.77 KCAL/MOL
REMARK 922        TOTAL FREE ENERGY PREDICTED BY IDOCK:   -7.30 KCAL/MOL
REMARK 923 INTER-LIGAND FREE ENERGY PREDICTED BY IDOCK:   -7.15 KCAL/MOL
REMARK 924 INTRA-LIGAND FREE ENERGY PREDICTED BY IDOCK:   -0.14 KCAL/MOL
REMARK 927      BINDING AFFINITY PREDICTED BY RF-SCORE:    0.00 PKD
ROOT
HETATM    1  C   UNL     1     -10.557   6.816  70.986  1.00  0.00    -0.252 C  
HETATM    2  C   UNL     1     -11.905   6.470  70.723  1.00  0.00    -0.394 C  
HETATM    3  C   UNL     1     -10.960   6.331  69.587  1.00  0.00    -0.440 C  
HETATM    4  C   UNL     1      -8.952   6.500  70.046  1.00  0.00    -0.144 C  
HETATM    5  C   UNL     1     -10.232   8.489  70.281  1.00  0.00    -0.206 C  
HETATM    6  C   UNL     1     -11.627  11.689  67.710  1.00  0.00    -0.359 C  
HETATM    7  C   UNL     1      -9.750   5.393  69.908  1.00  0.00    -0.249 C  
HETATM    8  C   UNL     1      -9.733   3.952  70.328  1.00  0.00    -0.245 C  
HETATM    9  C   UNL     1      -9.606   5.674  68.054  1.00  0.00    -0.137 C  
HETATM   10  C   UNL     1     -11.416  11.721  66.208  1.00  0.00    -0.227 C  
HETATM   11  C   UNL     1     -11.255   9.545  70.777  1.00  0.00    -0.383 C  
HETATM   12  C   UNL     1      -9.446   7.334  67.715  1.00  0.00    -0.143 C  
HETATM   13  C   UNL     1     -11.194  10.929  70.080  1.00  0.00    -0.340 C  
HETATM   14  C   UNL     1     -10.923  10.930  68.581  1.00  0.00    -0.274 C  
HETATM   15  C   UNL     1     -10.167   8.556  68.626  1.00  0.00    -0.217 C  
HETATM   16  C   UNL     1      -9.829   9.981  68.107  1.00  0.00    -0.162 C  
HETATM   17  C   UNL     1      -9.763   9.872  66.573  1.00  0.00    -0.260 C  
HETATM   18  C   UNL     1     -10.086  11.101  65.781  1.00  0.00    -0.299 C  
ENDROOT
BRANCH   4  19
HETATM   19  C   UNL     1      -8.317   6.333  71.480  1.00  0.00    -0.126 C  
HETATM   20  C   UNL     1      -7.908   6.201  72.604  1.00  0.00    -0.103 C  
ENDBRANCH   4  19
BRANCH   4  21
HETATM   21  O   UNL     1      -7.776   6.073  69.259  1.00  0.00    -0.091 OA 
BRANCH  21  22
HETATM   22  C   UNL     1      -6.548   6.578  69.523  1.00  0.00    -0.048 C  
HETATM   23  O   UNL     1      -5.589   5.932  69.920  1.00  0.00    -0.011 OA 
HETATM   24  C   UNL     1      -6.585   8.085  69.421  1.00  0.00    -0.035 C  
ENDBRANCH  21  22
ENDBRANCH   4  21
BRANCH  10  25
HETATM   25  O   UNL     1     -11.415  13.085  65.750  1.00  0.00    -0.310 OA 
BRANCH  25  26
HETATM   26  C   UNL     1     -12.428  13.390  64.885  1.00  0.00    -0.396 C  
HETATM   27  C   UNL     1     -12.331  12.550  63.650  1.00  0.00    -0.618 C  
HETATM   28  O   UNL     1     -13.342  14.175  65.101  1.00  0.00    -0.684 OA 
ENDBRANCH  25  26
ENDBRANCH  10  25
TORSDOF 5
ENDMDL
MODEL       16
REMARK 921   NORMALIZED FREE ENERGY PREDICTED BY IDOCK:   -5.72 KCAL/MOL
REMARK 922        TOTAL FREE ENERGY PREDICTED BY IDOCK:   -7.23 KCAL/MOL
REMARK 923 INTER-LIGAND FREE ENERGY PREDICTED BY IDOCK:   -7.21 KCAL/MOL
REMARK 924 INTRA-LIGAND FREE ENERGY PREDICTED BY IDOCK:   -0.02 KCAL/MOL
REMARK 927      BINDING AFFINITY PREDICTED BY RF-SCORE:    0.00 PKD
ROOT
HETATM    1  C   UNL     1      -9.714   6.611  68.249  1.00  0.00    -0.132 C  
HETATM    2  C   UNL     1     -10.984   6.124  67.854  1.00  0.00    -0.399 C  
HETATM    3  C   UNL     1     -10.609   7.466  67.342  1.00  0.00    -0.371 C  
HETATM    4  C   UNL     1      -8.642   8.032  67.625  1.00  0.00    -0.130 C  
HETATM    5  C   UNL     1      -9.954   7.846  69.599  1.00  0.00    -0.191 C  
HETATM    6  C   UNL     1     -12.736  10.330  71.808  1.00  0.00    -0.535 C  
HETATM    7  C   UNL     1      -9.264   7.463  66.544  1.00  0.00    -0.206 C  
HETATM    8  C   UNL     1      -8.873   6.691  65.317  1.00  0.00     0.132 C  
HETATM    9  C   UNL     1      -9.970   9.172  66.206  1.00  0.00    -0.352 C  
HETATM   10  C   UNL     1     -13.197  11.700  71.348  1.00  0.00    -0.110 C  
HETATM   11  C   UNL     1     -10.797   7.279  70.772  1.00  0.00    -0.260 C  
HETATM   12  C   UNL     1     -10.197  10.020  67.663  1.00  0.00    -0.249 C  
HETATM   13  C   UNL     1     -11.229   8.302  71.853  1.00  0.00    -0.365 C  
HETATM   14  C   UNL     1     -11.631   9.688  71.364  1.00  0.00    -0.472 C  
HETATM   15  C   UNL     1     -10.615   9.290  69.124  1.00  0.00    -0.228 C  
HETATM   16  C   UNL     1     -10.729  10.300  70.299  1.00  0.00    -0.310 C  
HETATM   17  C   UNL     1     -11.314  11.590  69.697  1.00  0.00    -0.329 C  
HETATM   18  C   UNL     1     -12.109  12.475  70.607  1.00  0.00    -0.312 C  
ENDROOT
BRANCH   4  19
HETATM   19  C   UNL     1      -7.437   7.060  67.924  1.00  0.00    -0.099 C  
HETATM   20  C   UNL     1      -6.542   6.272  68.089  1.00  0.00    -0.066 C  
ENDBRANCH   4  19
BRANCH   4  21
HETATM   21  O   UNL     1      -7.872   9.098  66.951  1.00  0.00    -0.097 OA 
BRANCH  21  22
HETATM   22  C   UNL     1      -6.861   9.731  67.592  1.00  0.00    -0.085 C  
HETATM   23  O   UNL     1      -6.911  10.167  68.734  1.00  0.00    -0.059 OA 
HETATM   24  C   UNL     1      -5.722   9.973  66.630  1.00  0.00    -0.050 C  
ENDBRANCH  21  22
ENDBRANCH   4  21
BRANCH  10  25
HETATM   25  O   UNL     1     -13.577  12.489  72.490  1.00  0.00    -0.453 OA 
BRANCH  25  26
HETATM   26  C   UNL     1     -13.697  13.826  72.235  1.00  0.00    -0.575 C  
HETATM   27  C   UNL     1     -12.819  14.615  73.156  1.00  0.00    -0.586 C  
HETATM   28  O   UNL     1     -14.360  14.328  71.336  1.00  0.00    -0.324 OA 
ENDBRANCH  25  26
ENDBRANCH  10  25
TORSDOF 5
ENDMDL
MODEL       17
REMARK 921   NORMALIZED FREE ENERGY PREDICTED BY IDOCK:   -5.54 KCAL/MOL
REMARK 922        TOTAL FREE ENERGY PREDICTED BY IDOCK:   -7.00 KCAL/MOL
REMARK 923 INTER-LIGAND FREE ENERGY PREDICTED BY IDOCK:   -7.06 KCAL/MOL
REMARK 924 INTRA-LIGAND FREE ENERGY PREDICTED BY IDOCK:    0.07 KCAL/MOL
REMARK 927      BINDING AFFINITY PREDICTED BY RF-SCORE:    0.00 PKD
ROOT
HETATM    1  C   UNL     1      -9.917  18.991  65.903  1.00  0.00    -0.204 C  
HETATM    2  C   UNL     1     -11.286  19.354  65.932  1.00  0.00     0.239 C  
HETATM    3  C   UNL     1     -10.682  18.972  67.233  1.00  0.00    -0.556 C  
HETATM    4  C   UNL     1      -8.625  18.777  67.260  1.00  0.00    -0.274 C  
HETATM    5  C   UNL     1      -9.796  17.151  65.982  1.00  0.00    -0.239 C  
HETATM    6  C   UNL     1     -11.834  13.397  66.721  1.00  0.00    -0.452 C  
HETATM    7  C   UNL     1      -9.430  19.834  67.602  1.00  0.00    -0.461 C  
HETATM    8  C   UNL     1      -9.298  21.319  67.775  1.00  0.00     0.186 C  
HETATM    9  C   UNL     1      -9.790  18.887  69.185  1.00  0.00    -0.292 C  
HETATM   10  C   UNL     1     -12.035  12.801  68.101  1.00  0.00    -0.246 C  
HETATM   11  C   UNL     1     -10.648  16.458  64.886  1.00  0.00    -0.116 C  
HETATM   12  C   UNL     1      -9.729  17.210  68.902  1.00  0.00    -0.256 C  
HETATM   13  C   UNL     1     -10.778  14.917  65.001  1.00  0.00    -0.451 C  
HETATM   14  C   UNL     1     -10.921  14.345  66.406  1.00  0.00    -0.319 C  
HETATM   15  C   UNL     1     -10.178  16.482  67.449  1.00  0.00    -0.287 C  
HETATM   16  C   UNL     1      -9.994  14.939  67.459  1.00  0.00    -0.219 C  
HETATM   17  C   UNL     1     -10.344  14.477  68.884  1.00  0.00    -0.237 C  
HETATM   18  C   UNL     1     -10.869  13.084  69.047  1.00  0.00    -0.197 C  
ENDROOT
BRANCH   4  19
HETATM   19  C   UNL     1      -7.627  19.388  66.203  1.00  0.00    -0.308 C  
HETATM   20  C   UNL     1      -6.808  19.801  65.422  1.00  0.00    -0.321 C  
ENDBRANCH   4  19
BRANCH   4  21
HETATM   21  O   UNL     1      -7.704  18.767  68.416  1.00  0.00    -0.293 OA 
BRANCH  21  22
HETATM   22  C   UNL     1      -6.654  17.913  68.455  1.00  0.00    -0.205 C  
HETATM   23  O   UNL     1      -6.645  16.781  67.991  1.00  0.00    -0.133 OA 
HETATM   24  C   UNL     1      -5.553  18.500  69.307  1.00  0.00    -0.213 C  
ENDBRANCH  21  22
ENDBRANCH   4  21
BRANCH  10  25
HETATM   25  O   UNL     1     -12.159  11.371  67.995  1.00  0.00    -0.629 OA 
BRANCH  25  26
HETATM   26  C   UNL     1     -12.075  10.709  69.188  1.00  0.00    -0.080 C  
HETATM   27  C   UNL     1     -10.850   9.851  69.224  1.00  0.00    -0.255 C  
HETATM   28  O   UNL     1     -12.838  10.843  70.137  1.00  0.00    -0.244 OA 
ENDBRANCH  25  26
ENDBRANCH  10  25
TORSDOF 5
ENDMDL
MODEL       18
REMARK 921   NORMALIZED FREE ENERGY PREDICTED BY IDOCK:   -5.43 KCAL/MOL
REMARK 922        TOTAL FREE ENERGY PREDICTED BY IDOCK:   -6.85 KCAL/MOL
REMARK 923 INTER-LIGAND FREE ENERGY PREDICTED BY IDOCK:   -6.46 KCAL/MOL
REMARK 924 INTRA-LIGAND FREE ENERGY PREDICTED BY IDOCK:   -0.39 KCAL/MOL
REMARK 927      BINDING AFFINITY PREDICTED BY RF-SCORE:    0.00 PKD
ROOT
HETATM    1  C   UNL     1      -9.257   7.942  70.138  1.00  0.00    -0.153 C  
HETATM    2  C   UNL     1     -10.424   8.400  70.798  1.00  0.00    -0.230 C  
HETATM    3  C   UNL     1     -10.628   7.776  69.466  1.00  0.00    -0.221 C  
HETATM    4  C   UNL     1      -8.993   6.804  68.657  1.00  0.00    -0.125 C  
HETATM    5  C   UNL     1      -8.801   9.167  68.835  1.00  0.00    -0.139 C  
HETATM    6  C   UNL     1      -9.993  12.633  66.520  1.00  0.00    -0.256 C  
HETATM    7  C   UNL     1     -10.056   6.323  69.378  1.00  0.00    -0.215 C  
HETATM    8  C   UNL     1     -10.383   5.107  70.195  1.00  0.00    -0.340 C  
HETATM    9  C   UNL     1     -11.052   6.497  67.794  1.00  0.00    -0.366 C  
HETATM   10  C   UNL     1     -10.824  12.559  65.253  1.00  0.00    -0.286 C  
HETATM   11  C   UNL     1      -8.674  10.606  69.400  1.00  0.00    -0.040 C  
HETATM   12  C   UNL     1     -10.467   7.797  66.864  1.00  0.00    -0.388 C  
HETATM   13  C   UNL     1      -8.502  11.734  68.350  1.00  0.00    -0.155 C  
HETATM   14  C   UNL     1      -9.306  11.602  67.063  1.00  0.00    -0.186 C  
HETATM   15  C   UNL     1      -9.809   9.204  67.519  1.00  0.00    -0.227 C  
HETATM   16  C   UNL     1      -9.329  10.212  66.439  1.00  0.00    -0.209 C  
HETATM   17  C   UNL     1     -10.331  10.102  65.277  1.00  0.00    -0.154 C  
HETATM   18  C   UNL     1     -10.528  11.313  64.419  1.00  0.00    -0.407 C  
ENDROOT
BRANCH   4  19
HETATM   19  C   UNL     1      -7.732   6.298  69.457  1.00  0.00    -0.099 C  
HETATM   20  C   UNL     1      -6.793   5.836  70.052  1.00  0.00    -0.060 C  
ENDBRANCH   4  19
BRANCH   4  21
HETATM   21  O   UNL     1      -8.946   5.808  67.566  1.00  0.00    -0.110 OA 
BRANCH  21  22
HETATM   22  C   UNL     1      -7.910   5.784  66.696  1.00  0.00    -0.101 C  
HETATM   23  O   UNL     1      -7.444   6.760  66.125  1.00  0.00    -0.077 OA 
HETATM   24  C   UNL     1      -7.525   4.354  66.402  1.00  0.00    -0.082 C  
ENDBRANCH  21  22
ENDBRANCH   4  21
BRANCH  10  25
HETATM   25  O   UNL     1     -10.542  13.701  64.425  1.00  0.00    -0.423 OA 
BRANCH  25  26
HETATM   26  C   UNL     1     -11.349  14.779  64.657  1.00  0.00    -0.366 C  
HETATM   27  C   UNL     1     -10.544  15.938  65.155  1.00  0.00    -0.421 C  
HETATM   28  O   UNL     1     -12.550  14.838  64.422  1.00  0.00    -0.626 OA 
ENDBRANCH  25  26
ENDBRANCH  10  25
TORSDOF 5
ENDMDL
MODEL       19
REMARK 921   NORMALIZED FREE ENERGY PREDICTED BY IDOCK:   -5.41 KCAL/MOL
REMARK 922        TOTAL FREE ENERGY PREDICTED BY IDOCK:   -6.83 KCAL/MOL
REMARK 923 INTER-LIGAND FREE ENERGY PREDICTED BY IDOCK:   -6.72 KCAL/MOL
REMARK 924 INTRA-LIGAND FREE ENERGY PREDICTED BY IDOCK:   -0.11 KCAL/MOL
REMARK 927      BINDING AFFINITY PREDICTED BY RF-SCORE:    0.00 PKD
ROOT
HETATM    1  C   UNL     1      -7.385   7.626  68.139  1.00  0.00    -0.099 C  
HETATM    2  C   UNL     1      -6.298   8.495  67.877  1.00  0.00    -0.057 C  
HETATM    3  C   UNL     1      -7.180   8.873  69.009  1.00  0.00    -0.072 C  
HETATM    4  C   UNL     1      -8.549   7.448  69.613  1.00  0.00    -0.137 C  
HETATM    5  C   UNL     1      -8.923   8.388  67.462  1.00  0.00    -0.142 C  
HETATM    6  C   UNL     1     -10.815  11.931  65.830  1.00  0.00    -0.342 C  
HETATM    7  C   UNL     1      -7.300   7.751  70.092  1.00  0.00    -0.071 C  
HETATM    8  C   UNL     1      -6.235   7.085  70.913  1.00  0.00    -0.036 C  
HETATM    9  C   UNL     1      -8.110   9.237  70.910  1.00  0.00    -0.168 C  
HETATM   10  C   UNL     1     -11.407  13.041  66.678  1.00  0.00    -0.325 C  
HETATM   11  C   UNL     1      -8.779   8.772  65.965  1.00  0.00    -0.193 C  
HETATM   12  C   UNL     1      -9.421   9.789  69.977  1.00  0.00    -0.278 C  
HETATM   13  C   UNL     1      -9.939   9.607  65.365  1.00  0.00    -0.230 C  
HETATM   14  C   UNL     1     -10.550  10.676  66.262  1.00  0.00    -0.229 C  
HETATM   15  C   UNL     1      -9.480   9.709  68.294  1.00  0.00    -0.145 C  
HETATM   16  C   UNL     1     -10.808  10.259  67.704  1.00  0.00    -0.363 C  
HETATM   17  C   UNL     1     -11.215  11.443  68.599  1.00  0.00    -0.303 C  
HETATM   18  C   UNL     1     -12.034  12.530  67.974  1.00  0.00    -0.281 C  
ENDROOT
BRANCH   4  19
HETATM   19  C   UNL     1      -8.471   5.904  69.301  1.00  0.00    -0.113 C  
HETATM   20  C   UNL     1      -8.398   4.713  69.143  1.00  0.00    -0.085 C  
ENDBRANCH   4  19
BRANCH   4  21
HETATM   21  O   UNL     1      -9.300   7.355  70.883  1.00  0.00    -0.155 OA 
BRANCH  21  22
HETATM   22  C   UNL     1     -10.395   6.565  70.981  1.00  0.00    -0.206 C  
HETATM   23  O   UNL     1     -10.536   5.648  71.778  1.00  0.00    -0.214 OA 
HETATM   24  C   UNL     1     -11.347   6.872  69.849  1.00  0.00    -0.321 C  
ENDBRANCH  21  22
ENDBRANCH   4  21
BRANCH  10  25
HETATM   25  O   UNL     1     -12.445  13.710  65.940  1.00  0.00    -0.453 OA 
BRANCH  25  26
HETATM   26  C   UNL     1     -12.016  14.329  64.799  1.00  0.00    -0.440 C  
HETATM   27  C   UNL     1     -10.904  15.283  65.109  1.00  0.00    -0.441 C  
HETATM   28  O   UNL     1     -12.413  14.096  63.665  1.00  0.00    -0.819 OA 
ENDBRANCH  25  26
ENDBRANCH  10  25
TORSDOF 5
ENDMDL
MODEL       20
REMARK 921   NORMALIZED FREE ENERGY PREDICTED BY IDOCK:   -5.39 KCAL/MOL
REMARK 922        TOTAL FREE ENERGY PREDICTED BY IDOCK:   -6.80 KCAL/MOL
REMARK 923 INTER-LIGAND FREE ENERGY PREDICTED BY IDOCK:   -6.53 KCAL/MOL
REMARK 924 INTRA-LIGAND FREE ENERGY PREDICTED BY IDOCK:   -0.28 KCAL/MOL
REMARK 927      BINDING AFFINITY PREDICTED BY RF-SCORE:    0.00 PKD
ROOT
HETATM    1  C   UNL     1      -7.683   5.985  70.828  1.00  0.00    -0.098 C  
HETATM    2  C   UNL     1      -6.516   6.749  70.580  1.00  0.00    -0.051 C  
HETATM    3  C   UNL     1      -7.438   7.280  71.616  1.00  0.00    -0.085 C  
HETATM    4  C   UNL     1      -8.952   6.012  72.224  1.00  0.00    -0.141 C  
HETATM    5  C   UNL     1      -9.109   6.802  69.988  1.00  0.00    -0.148 C  
HETATM    6  C   UNL     1     -10.605  10.334  67.967  1.00  0.00    -0.272 C  
HETATM    7  C   UNL     1      -7.717   6.259  72.767  1.00  0.00    -0.104 C  
HETATM    8  C   UNL     1      -6.763   5.584  73.710  1.00  0.00    -0.079 C  
HETATM    9  C   UNL     1      -8.459   7.861  73.413  1.00  0.00    -0.273 C  
HETATM   10  C   UNL     1     -11.162  11.548  68.685  1.00  0.00    -0.248 C  
HETATM   11  C   UNL     1      -8.837   7.055  68.481  1.00  0.00    -0.124 C  
HETATM   12  C   UNL     1      -9.659   8.432  72.350  1.00  0.00    -0.373 C  
HETATM   13  C   UNL     1      -9.886   7.923  67.739  1.00  0.00    -0.204 C  
HETATM   14  C   UNL     1     -10.468   9.101  68.508  1.00  0.00    -0.238 C  
HETATM   15  C   UNL     1      -9.613   8.223  70.678  1.00  0.00    -0.190 C  
HETATM   16  C   UNL     1     -10.852   8.820  69.956  1.00  0.00    -0.231 C  
HETATM   17  C   UNL     1     -11.222  10.098  70.729  1.00  0.00    -0.414 C  
HETATM   18  C   UNL     1     -11.910  11.189  69.968  1.00  0.00    -0.441 C  
ENDROOT
BRANCH   4  19
HETATM   19  C   UNL     1      -8.975   4.446  72.034  1.00  0.00    -0.147 C  
HETATM   20  C   UNL     1      -8.988   3.264  71.808  1.00  0.00    -0.148 C  
ENDBRANCH   4  19
BRANCH   4  21
HETATM   21  O   UNL     1      -9.789   6.075  73.440  1.00  0.00    -0.155 OA 
BRANCH  21  22
HETATM   22  C   UNL     1     -10.970   5.416  73.501  1.00  0.00    -0.268 C  
HETATM   23  O   UNL     1     -11.234   4.506  74.274  1.00  0.00    -0.218 OA 
HETATM   24  C   UNL     1     -11.855   5.855  72.358  1.00  0.00    -0.263 C  
ENDBRANCH  21  22
ENDBRANCH   4  21
BRANCH  10  25
HETATM   25  O   UNL     1     -12.093  12.231  67.828  1.00  0.00    -0.478 OA 
BRANCH  25  26
HETATM   26  C   UNL     1     -11.510  12.962  66.831  1.00  0.00    -0.341 C  
HETATM   27  C   UNL     1     -12.123  12.625  65.508  1.00  0.00    -0.515 C  
HETATM   28  O   UNL     1     -10.662  13.832  66.984  1.00  0.00    -0.279 OA 
ENDBRANCH  25  26
ENDBRANCH  10  25
TORSDOF 5
ENDMDL
MODEL       21
REMARK 921   NORMALIZED FREE ENERGY PREDICTED BY IDOCK:   -5.38 KCAL/MOL
REMARK 922        TOTAL FREE ENERGY PREDICTED BY IDOCK:   -6.79 KCAL/MOL
REMARK 923 INTER-LIGAND FREE ENERGY PREDICTED BY IDOCK:   -6.72 KCAL/MOL
REMARK 924 INTRA-LIGAND FREE ENERGY PREDICTED BY IDOCK:   -0.08 KCAL/MOL
REMARK 927      BINDING AFFINITY PREDICTED BY RF-SCORE:    0.00 PKD
ROOT
HETATM    1  C   UNL     1      -6.101  18.195  67.425  1.00  0.00    -0.167 C  
HETATM    2  C   UNL     1      -5.459  17.999  66.178  1.00  0.00    -0.224 C  
HETATM    3  C   UNL     1      -6.837  18.551  66.126  1.00  0.00    -0.285 C  
HETATM    4  C   UNL     1      -7.643  19.158  67.929  1.00  0.00    -0.269 C  
HETATM    5  C   UNL     1      -7.300  16.818  67.691  1.00  0.00    -0.164 C  
HETATM    6  C   UNL     1      -9.425  13.457  65.963  1.00  0.00    -0.105 C  
HETATM    7  C   UNL     1      -6.998  19.870  66.950  1.00  0.00    -0.238 C  
HETATM    8  C   UNL     1      -6.278  21.181  66.823  1.00  0.00    -0.381 C  
HETATM    9  C   UNL     1      -8.606  19.759  65.983  1.00  0.00    -0.292 C  
HETATM   10  C   UNL     1     -10.726  13.584  65.194  1.00  0.00    -0.341 C  
HETATM   11  C   UNL     1      -6.636  15.423  67.544  1.00  0.00    -0.191 C  
HETATM   12  C   UNL     1      -9.423  18.313  66.351  1.00  0.00    -0.290 C  
HETATM   13  C   UNL     1      -7.601  14.210  67.540  1.00  0.00    -0.200 C  
HETATM   14  C   UNL     1      -8.925  14.388  66.808  1.00  0.00    -0.256 C  
HETATM   15  C   UNL     1      -8.650  16.863  66.729  1.00  0.00    -0.256 C  
HETATM   16  C   UNL     1      -9.641  15.710  67.051  1.00  0.00    -0.233 C  
HETATM   17  C   UNL     1     -10.847  15.911  66.117  1.00  0.00    -0.208 C  
HETATM   18  C   UNL     1     -11.629  14.694  65.730  1.00  0.00    -0.328 C  
ENDROOT
BRANCH   4  19
HETATM   19  C   UNL     1      -6.829  19.490  69.238  1.00  0.00    -0.381 C  
HETATM   20  C   UNL     1      -6.250  19.685  70.275  1.00  0.00    -0.274 C  
ENDBRANCH   4  19
BRANCH   4  21
HETATM   21  O   UNL     1      -8.795  20.048  68.183  1.00  0.00    -0.278 OA 
BRANCH  21  22
HETATM   22  C   UNL     1      -9.758  19.697  69.067  1.00  0.00    -0.354 C  
HETATM   23  O   UNL     1     -10.062  18.550  69.364  1.00  0.00    -0.191 OA 
HETATM   24  C   UNL     1     -10.519  20.926  69.505  1.00  0.00     0.759 C  
ENDBRANCH  21  22
ENDBRANCH   4  21
BRANCH  10  25
HETATM   25  O   UNL     1     -11.465  12.353  65.290  1.00  0.00    -0.320 OA 
BRANCH  25  26
HETATM   26  C   UNL     1     -11.960  11.899  64.100  1.00  0.00    -0.307 C  
HETATM   27  C   UNL     1     -10.905  11.153  63.345  1.00  0.00    -0.211 C  
HETATM   28  O   UNL     1     -13.119  12.004  63.720  1.00  0.00    -0.730 OA 
ENDBRANCH  25  26
ENDBRANCH  10  25
TORSDOF 5
ENDMDL
MODEL       22
REMARK 921   NORMALIZED FREE ENERGY PREDICTED BY IDOCK:   -5.30 KCAL/MOL
REMARK 922        TOTAL FREE ENERGY PREDICTED BY IDOCK:   -6.69 KCAL/MOL
REMARK 923 INTER-LIGAND FREE ENERGY PREDICTED BY IDOCK:   -6.27 KCAL/MOL
REMARK 924 INTRA-LIGAND FREE ENERGY PREDICTED BY IDOCK:   -0.42 KCAL/MOL
REMARK 927      BINDING AFFINITY PREDICTED BY RF-SCORE:    0.00 PKD
ROOT
HETATM    1  C   UNL     1     -11.172  11.696  67.726  1.00  0.00    -0.333 C  
HETATM    2  C   UNL     1     -11.781  12.238  66.568  1.00  0.00    -0.420 C  
HETATM    3  C   UNL     1     -10.303  12.103  66.528  1.00  0.00    -0.239 C  
HETATM    4  C   UNL     1      -9.447  11.007  68.055  1.00  0.00    -0.166 C  
HETATM    5  C   UNL     1     -10.425  13.076  68.697  1.00  0.00    -0.236 C  
HETATM    6  C   UNL     1      -9.256  17.250  68.783  1.00  0.00    -0.238 C  
HETATM    7  C   UNL     1      -9.815  10.640  66.786  1.00  0.00    -0.240 C  
HETATM    8  C   UNL     1     -10.128   9.374  66.044  1.00  0.00    -0.302 C  
HETATM    9  C   UNL     1      -8.259  11.525  66.212  1.00  0.00    -0.044 C  
HETATM   10  C   UNL     1      -7.937  17.770  68.247  1.00  0.00    -0.282 C  
HETATM   11  C   UNL     1     -11.449  14.202  69.001  1.00  0.00    -0.322 C  
HETATM   12  C   UNL     1      -7.904  12.832  67.242  1.00  0.00    -0.148 C  
HETATM   13  C   UNL     1     -10.868  15.496  69.626  1.00  0.00    -0.285 C  
HETATM   14  C   UNL     1      -9.514  15.961  69.106  1.00  0.00    -0.260 C  
HETATM   15  C   UNL     1      -9.073  13.760  68.025  1.00  0.00    -0.191 C  
HETATM   16  C   UNL     1      -8.465  14.870  68.926  1.00  0.00    -0.174 C  
HETATM   17  C   UNL     1      -7.208  15.373  68.195  1.00  0.00    -0.124 C  
HETATM   18  C   UNL     1      -6.784  16.787  68.445  1.00  0.00    -0.154 C  
ENDROOT
BRANCH   4  19
HETATM   19  C   UNL     1     -10.196   9.974  68.982  1.00  0.00    -0.216 C  
HETATM   20  C   UNL     1     -10.707   9.194  69.743  1.00  0.00    -0.239 C  
ENDBRANCH   4  19
BRANCH   4  21
HETATM   21  O   UNL     1      -8.104  10.394  68.124  1.00  0.00    -0.107 OA 
BRANCH  21  22
HETATM   22  C   UNL     1      -7.499  10.186  69.317  1.00  0.00    -0.111 C  
HETATM   23  O   UNL     1      -7.266  11.048  70.152  1.00  0.00    -0.070 OA 
HETATM   24  C   UNL     1      -7.000   8.762  69.392  1.00  0.00    -0.053 C  
ENDBRANCH  21  22
ENDBRANCH   4  21
BRANCH  10  25
HETATM   25  O   UNL     1      -7.582  18.984  68.933  1.00  0.00    -0.333 OA 
BRANCH  25  26
HETATM   26  C   UNL     1      -7.485  20.081  68.124  1.00  0.00    -0.266 C  
HETATM   27  C   UNL     1      -6.141  20.723  68.271  1.00  0.00    -0.380 C  
HETATM   28  O   UNL     1      -8.333  20.459  67.325  1.00  0.00    -0.338 OA 
ENDBRANCH  25  26
ENDBRANCH  10  25
TORSDOF 5
ENDMDL
MODEL       23
REMARK 921   NORMALIZED FREE ENERGY PREDICTED BY IDOCK:   -5.26 KCAL/MOL
REMARK 922        TOTAL FREE ENERGY PREDICTED BY IDOCK:   -6.64 KCAL/MOL
REMARK 923 INTER-LIGAND FREE ENERGY PREDICTED BY IDOCK:   -6.21 KCAL/MOL
REMARK 924 INTRA-LIGAND FREE ENERGY PREDICTED BY IDOCK:   -0.43 KCAL/MOL
REMARK 927      BINDING AFFINITY PREDICTED BY RF-SCORE:    0.00 PKD
ROOT
HETATM    1  C   UNL     1     -11.097  14.041  65.957  1.00  0.00    -0.303 C  
HETATM    2  C   UNL     1     -12.449  13.634  65.846  1.00  0.00    -0.502 C  
HETATM    3  C   UNL     1     -11.791  13.371  67.151  1.00  0.00    -0.429 C  
HETATM    4  C   UNL     1      -9.949  14.262  67.437  1.00  0.00    -0.242 C  
HETATM    5  C   UNL     1     -10.020  12.553  65.787  1.00  0.00    -0.272 C  
HETATM    6  C   UNL     1      -9.781   8.225  65.686  1.00  0.00     0.319 C  
HETATM    7  C   UNL     1     -11.206  14.662  67.812  1.00  0.00    -0.320 C  
HETATM    8  C   UNL     1     -11.892  15.936  68.213  1.00  0.00    -0.065 C  
HETATM    9  C   UNL     1     -11.075  13.376  69.176  1.00  0.00    -0.261 C  
HETATM   10  C   UNL     1      -9.693   7.353  66.923  1.00  0.00    -0.205 C  
HETATM   11  C   UNL     1     -10.326  11.751  64.494  1.00  0.00    -0.340 C  
HETATM   12  C   UNL     1     -10.120  12.063  68.665  1.00  0.00    -0.170 C  
HETATM   13  C   UNL     1      -9.622  10.375  64.367  1.00  0.00    -0.375 C  
HETATM   14  C   UNL     1      -9.498   9.548  65.641  1.00  0.00    -0.326 C  
HETATM   15  C   UNL     1     -10.051  11.509  67.075  1.00  0.00    -0.237 C  
HETATM   16  C   UNL     1      -9.076  10.314  66.888  1.00  0.00    -0.159 C  
HETATM   17  C   UNL     1      -9.186   9.469  68.169  1.00  0.00    -0.134 C  
HETATM   18  C   UNL     1      -8.897   8.004  68.054  1.00  0.00    -0.128 C  
ENDROOT
BRANCH   4  19
HETATM   19  C   UNL     1      -9.384  15.493  66.629  1.00  0.00    -0.291 C  
HETATM   20  C   UNL     1      -8.908  16.379  65.968  1.00  0.00    -0.296 C  
ENDBRANCH   4  19
BRANCH   4  21
HETATM   21  O   UNL     1      -9.213  14.500  68.697  1.00  0.00    -0.194 OA 
BRANCH  21  22
HETATM   22  C   UNL     1      -7.863  14.587  68.702  1.00  0.00    -0.140 C  
HETATM   23  O   UNL     1      -7.097  13.727  68.290  1.00  0.00    -0.087 OA 
HETATM   24  C   UNL     1      -7.436  15.828  69.451  1.00  0.00    -0.216 C  
ENDBRANCH  21  22
ENDBRANCH   4  21
BRANCH  10  25
HETATM   25  O   UNL     1      -9.033   6.117  66.597  1.00  0.00    -0.122 OA 
BRANCH  25  26
HETATM   26  C   UNL     1      -9.839   5.016  66.653  1.00  0.00    -0.196 C  
HETATM   27  C   UNL     1      -9.616   4.269  67.931  1.00  0.00    -0.207 C  
HETATM   28  O   UNL     1     -10.689   4.706  65.828  1.00  0.00    -0.310 OA 
ENDBRANCH  25  26
ENDBRANCH  10  25
TORSDOF 5
ENDMDL
MODEL       24
REMARK 921   NORMALIZED FREE ENERGY PREDICTED BY IDOCK:   -5.23 KCAL/MOL
REMARK 922        TOTAL FREE ENERGY PREDICTED BY IDOCK:   -6.60 KCAL/MOL
REMARK 923 INTER-LIGAND FREE ENERGY PREDICTED BY IDOCK:   -6.39 KCAL/MOL
REMARK 924 INTRA-LIGAND FREE ENERGY PREDICTED BY IDOCK:   -0.21 KCAL/MOL
REMARK 927      BINDING AFFINITY PREDICTED BY RF-SCORE:    0.00 PKD
ROOT
HETATM    1  C   UNL     1     -11.084  14.069  66.015  1.00  0.00    -0.303 C  
HETATM    2  C   UNL     1     -12.466  13.791  65.877  1.00  0.00    -0.512 C  
HETATM    3  C   UNL     1     -11.911  13.688  67.250  1.00  0.00    -0.429 C  
HETATM    4  C   UNL     1      -9.996  14.418  67.516  1.00  0.00    -0.224 C  
HETATM    5  C   UNL     1     -10.176  12.470  66.166  1.00  0.00    -0.269 C  
HETATM    6  C   UNL     1     -10.426   8.187  66.791  1.00  0.00    -0.316 C  
HETATM    7  C   UNL     1     -11.217  15.005  67.730  1.00  0.00    -0.327 C  
HETATM    8  C   UNL     1     -11.774  16.392  67.869  1.00  0.00     0.289 C  
HETATM    9  C   UNL     1     -11.305  13.962  69.292  1.00  0.00    -0.321 C  
HETATM   10  C   UNL     1     -10.502   7.534  68.158  1.00  0.00    -0.183 C  
HETATM   11  C   UNL     1     -10.503  11.495  65.004  1.00  0.00    -0.344 C  
HETATM   12  C   UNL     1     -10.480  12.490  69.072  1.00  0.00    -0.024 C  
HETATM   13  C   UNL     1      -9.955  10.053  65.153  1.00  0.00    -0.350 C  
HETATM   14  C   UNL     1      -9.993   9.446  66.550  1.00  0.00    -0.339 C  
HETATM   15  C   UNL     1     -10.392  11.670  67.602  1.00  0.00    -0.210 C  
HETATM   16  C   UNL     1      -9.551  10.366  67.682  1.00  0.00    -0.168 C  
HETATM   17  C   UNL     1      -9.823   9.767  69.073  1.00  0.00    -0.183 C  
HETATM   18  C   UNL     1      -9.697   8.282  69.220  1.00  0.00    -0.177 C  
ENDROOT
BRANCH   4  19
HETATM   19  C   UNL     1      -9.253  15.428  66.559  1.00  0.00    -0.323 C  
HETATM   20  C   UNL     1      -8.695  16.256  65.887  1.00  0.00    -0.134 C  
ENDBRANCH   4  19
BRANCH   4  21
HETATM   21  O   UNL     1      -9.305  14.790  68.768  1.00  0.00    -0.194 OA 
BRANCH  21  22
HETATM   22  C   UNL     1      -7.962  14.667  68.879  1.00  0.00    -0.149 C  
HETATM   23  O   UNL     1      -7.333  13.626  68.740  1.00  0.00    -0.105 OA 
HETATM   24  C   UNL     1      -7.370  15.967  69.369  1.00  0.00    -0.212 C  
ENDBRANCH  21  22
ENDBRANCH   4  21
BRANCH  10  25
HETATM   25  O   UNL     1      -9.971   6.199  68.085  1.00  0.00    -0.129 OA 
BRANCH  25  26
HETATM   26  C   UNL     1     -10.351   5.384  69.114  1.00  0.00    -0.230 C  
HETATM   27  C   UNL     1      -9.449   4.193  69.199  1.00  0.00    -0.248 C  
HETATM   28  O   UNL     1     -11.248   5.613  69.915  1.00  0.00    -0.278 OA 
ENDBRANCH  25  26
ENDBRANCH  10  25
TORSDOF 5
ENDMDL
MODEL       25
REMARK 921   NORMALIZED FREE ENERGY PREDICTED BY IDOCK:   -5.21 KCAL/MOL
REMARK 922        TOTAL FREE ENERGY PREDICTED BY IDOCK:   -6.57 KCAL/MOL
REMARK 923 INTER-LIGAND FREE ENERGY PREDICTED BY IDOCK:   -6.13 KCAL/MOL
REMARK 924 INTRA-LIGAND FREE ENERGY PREDICTED BY IDOCK:   -0.44 KCAL/MOL
REMARK 927      BINDING AFFINITY PREDICTED BY RF-SCORE:    0.00 PKD
ROOT
HETATM    1  C   UNL     1     -11.473  14.422  65.932  1.00  0.00    -0.341 C  
HETATM    2  C   UNL     1     -12.717  13.745  65.951  1.00  0.00    -0.452 C  
HETATM    3  C   UNL     1     -11.774  13.414  67.049  1.00  0.00    -0.426 C  
HETATM    4  C   UNL     1     -10.116  14.635  67.225  1.00  0.00    -0.236 C  
HETATM    5  C   UNL     1     -10.188  13.271  65.280  1.00  0.00    -0.303 C  
HETATM    6  C   UNL     1      -9.151   9.197  64.218  1.00  0.00     0.017 C  
HETATM    7  C   UNL     1     -11.326  14.667  67.870  1.00  0.00    -0.332 C  
HETATM    8  C   UNL     1     -12.149  15.661  68.638  1.00  0.00    -0.067 C  
HETATM    9  C   UNL     1     -10.683  13.225  68.889  1.00  0.00    -0.215 C  
HETATM   10  C   UNL     1      -8.653   8.165  65.211  1.00  0.00    -0.106 C  
HETATM   11  C   UNL     1     -10.586  12.660  63.910  1.00  0.00    -0.460 C  
HETATM   12  C   UNL     1      -9.616  12.274  67.965  1.00  0.00    -0.206 C  
HETATM   13  C   UNL     1      -9.672  11.524  63.382  1.00  0.00    -0.379 C  
HETATM   14  C   UNL     1      -9.142  10.536  64.413  1.00  0.00    -0.254 C  
HETATM   15  C   UNL     1      -9.761  12.038  66.303  1.00  0.00    -0.251 C  
HETATM   16  C   UNL     1      -8.633  11.148  65.713  1.00  0.00    -0.113 C  
HETATM   17  C   UNL     1      -8.322  10.087  66.784  1.00  0.00    -0.125 C  
HETATM   18  C   UNL     1      -7.787   8.770  66.315  1.00  0.00    -0.102 C  
ENDROOT
BRANCH   4  19
HETATM   19  C   UNL     1      -9.970  16.084  66.620  1.00  0.00    -0.277 C  
HETATM   20  C   UNL     1      -9.811  17.209  66.223  1.00  0.00    -0.306 C  
ENDBRANCH   4  19
BRANCH   4  21
HETATM   21  O   UNL     1      -9.204  14.808  68.375  1.00  0.00    -0.177 OA 
BRANCH  21  22
HETATM   22  C   UNL     1      -7.894  15.088  68.181  1.00  0.00    -0.120 C  
HETATM   23  O   UNL     1      -7.161  14.525  67.379  1.00  0.00    -0.188 OA 
HETATM   24  C   UNL     1      -7.426  16.079  69.220  1.00  0.00    -0.228 C  
ENDBRANCH  21  22
ENDBRANCH   4  21
BRANCH  10  25
HETATM   25  O   UNL     1      -7.848   7.188  64.527  1.00  0.00    -0.114 OA 
BRANCH  25  26
HETATM   26  C   UNL     1      -8.233   5.893  64.738  1.00  0.00    -0.129 C  
HETATM   27  C   UNL     1      -8.354   5.165  63.436  1.00  0.00    -0.125 C  
HETATM   28  O   UNL     1      -8.385   5.360  65.829  1.00  0.00    -0.117 OA 
ENDBRANCH  25  26
ENDBRANCH  10  25
TORSDOF 5
ENDMDL
MODEL       26
REMARK 921   NORMALIZED FREE ENERGY PREDICTED BY IDOCK:   -5.18 KCAL/MOL
REMARK 922        TOTAL FREE ENERGY PREDICTED BY IDOCK:   -6.54 KCAL/MOL
REMARK 923 INTER-LIGAND FREE ENERGY PREDICTED BY IDOCK:   -6.38 KCAL/MOL
REMARK 924 INTRA-LIGAND FREE ENERGY PREDICTED BY IDOCK:   -0.16 KCAL/MOL
REMARK 927      BINDING AFFINITY PREDICTED BY RF-SCORE:    0.00 PKD
ROOT
HETATM    1  C   UNL     1      -8.774   8.511  64.954  1.00  0.00    -0.090 C  
HETATM    2  C   UNL     1      -7.756   8.883  64.041  1.00  0.00    -0.128 C  
HETATM    3  C   UNL     1      -7.553   9.297  65.452  1.00  0.00    -0.098 C  
HETATM    4  C   UNL     1      -8.844   8.472  66.838  1.00  0.00    -0.137 C  
HETATM    5  C   UNL     1      -9.826   9.988  65.293  1.00  0.00    -0.388 C  
HETATM    6  C   UNL     1     -10.301  14.282  64.924  1.00  0.00    -0.429 C  
HETATM    7  C   UNL     1      -7.583   8.096  66.453  1.00  0.00    -0.091 C  
HETATM    8  C   UNL     1      -6.727   6.864  66.506  1.00  0.00    -0.052 C  
HETATM    9  C   UNL     1      -6.968   9.527  67.505  1.00  0.00    -0.084 C  
HETATM   10  C   UNL     1      -9.703  15.285  65.890  1.00  0.00    -0.355 C  
HETATM   11  C   UNL     1     -10.364  10.638  63.991  1.00  0.00    -0.262 C  
HETATM   12  C   UNL     1      -8.108  10.790  67.516  1.00  0.00    -0.111 C  
HETATM   13  C   UNL     1     -11.081  12.003  64.161  1.00  0.00    -0.431 C  
HETATM   14  C   UNL     1     -10.489  12.967  65.181  1.00  0.00    -0.326 C  
HETATM   15  C   UNL     1      -9.111  11.166  66.215  1.00  0.00    -0.207 C  
HETATM   16  C   UNL     1     -10.075  12.348  66.511  1.00  0.00    -0.246 C  
HETATM   17  C   UNL     1      -9.288  13.328  67.400  1.00  0.00    -0.217 C  
HETATM   18  C   UNL     1      -9.665  14.776  67.330  1.00  0.00    -0.214 C  
ENDROOT
BRANCH   4  19
HETATM   19  C   UNL     1      -9.708   7.169  66.633  1.00  0.00    -0.233 C  
HETATM   20  C   UNL     1     -10.434   6.221  66.484  1.00  0.00    -0.174 C  
ENDBRANCH   4  19
BRANCH   4  21
HETATM   21  O   UNL     1      -8.704   8.385  68.307  1.00  0.00    -0.141 OA 
BRANCH  21  22
HETATM   22  C   UNL     1      -9.796   8.287  69.101  1.00  0.00    -0.179 C  
HETATM   23  O   UNL     1     -10.021   7.375  69.884  1.00  0.00    -0.185 OA 
HETATM   24  C   UNL     1     -10.778   9.380  68.752  1.00  0.00    -0.200 C  
ENDBRANCH  21  22
ENDBRANCH   4  21
BRANCH  10  25
HETATM   25  O   UNL     1     -10.492  16.488  65.887  1.00  0.00    -0.337 OA 
BRANCH  25  26
HETATM   26  C   UNL     1      -9.777  17.633  66.098  1.00  0.00    -0.213 C  
HETATM   27  C   UNL     1     -10.672  18.726  66.593  1.00  0.00    -0.353 C  
HETATM   28  O   UNL     1      -8.563  17.751  65.984  1.00  0.00    -0.497 OA 
ENDBRANCH  25  26
ENDBRANCH  10  25
TORSDOF 5
ENDMDL
MODEL       27
REMARK 921   NORMALIZED FREE ENERGY PREDICTED BY IDOCK:   -5.12 KCAL/MOL
REMARK 922        TOTAL FREE ENERGY PREDICTED BY IDOCK:   -6.46 KCAL/MOL
REMARK 923 INTER-LIGAND FREE ENERGY PREDICTED BY IDOCK:   -6.04 KCAL/MOL
REMARK 924 INTRA-LIGAND FREE ENERGY PREDICTED BY IDOCK:   -0.42 KCAL/MOL
REMARK 927      BINDING AFFINITY PREDICTED BY RF-SCORE:    0.00 PKD
ROOT
HETATM    1  C   UNL     1     -10.926  11.119  68.370  1.00  0.00    -0.277 C  
HETATM    2  C   UNL     1     -11.752  11.277  67.231  1.00  0.00    -0.047 C  
HETATM    3  C   UNL     1     -10.288  11.314  66.988  1.00  0.00    -0.263 C  
HETATM    4  C   UNL     1      -9.088  10.746  68.571  1.00  0.00    -0.170 C  
HETATM    5  C   UNL     1     -10.286  12.777  68.867  1.00  0.00    -0.055 C  
HETATM    6  C   UNL     1      -9.775  16.949  67.804  1.00  0.00    -0.250 C  
HETATM    7  C   UNL     1      -9.551  10.032  67.495  1.00  0.00    -0.178 C  
HETATM    8  C   UNL     1      -9.755   8.592  67.123  1.00  0.00    -0.251 C  
HETATM    9  C   UNL     1      -8.235  10.924  66.493  1.00  0.00    -0.157 C  
HETATM   10  C   UNL     1      -8.630  17.472  66.959  1.00  0.00    -0.235 C  
HETATM   11  C   UNL     1     -11.425  13.812  69.062  1.00  0.00    -0.349 C  
HETATM   12  C   UNL     1      -7.960  12.480  67.124  1.00  0.00    -0.140 C  
HETATM   13  C   UNL     1     -10.978  15.281  69.273  1.00  0.00    -0.261 C  
HETATM   14  C   UNL     1      -9.788  15.761  68.451  1.00  0.00    -0.206 C  
HETATM   15  C   UNL     1      -9.151  13.428  67.849  1.00  0.00    -0.208 C  
HETATM   16  C   UNL     1      -8.614  14.793  68.362  1.00  0.00    -0.166 C  
HETATM   17  C   UNL     1      -7.551  15.243  67.345  1.00  0.00    -0.229 C  
HETATM   18  C   UNL     1      -7.323  16.715  67.192  1.00  0.00    -0.220 C  
ENDROOT
BRANCH   4  19
HETATM   19  C   UNL     1      -9.547   9.895  69.817  1.00  0.00    -0.261 C  
HETATM   20  C   UNL     1      -9.973   9.250  70.740  1.00  0.00    -0.357 C  
ENDBRANCH   4  19
BRANCH   4  21
HETATM   21  O   UNL     1      -7.668  10.334  68.564  1.00  0.00    -0.086 OA 
BRANCH  21  22
HETATM   22  C   UNL     1      -6.901  10.481  69.670  1.00  0.00    -0.117 C  
HETATM   23  O   UNL     1      -6.738  11.526  70.284  1.00  0.00    -0.126 OA 
HETATM   24  C   UNL     1      -6.140   9.203  69.933  1.00  0.00    -0.038 C  
ENDBRANCH  21  22
ENDBRANCH   4  21
BRANCH  10  25
HETATM   25  O   UNL     1      -8.384  18.853  67.282  1.00  0.00    -0.267 OA 
BRANCH  25  26
HETATM   26  C   UNL     1      -8.540  19.714  66.233  1.00  0.00    -0.366 C  
HETATM   27  C   UNL     1      -9.851  20.429  66.334  1.00  0.00    -0.410 C  
HETATM   28  O   UNL     1      -7.707  19.944  65.365  1.00  0.00    -0.356 OA 
ENDBRANCH  25  26
ENDBRANCH  10  25
TORSDOF 5
ENDMDL
MODEL       28
REMARK 921   NORMALIZED FREE ENERGY PREDICTED BY IDOCK:   -5.06 KCAL/MOL
REMARK 922        TOTAL FREE ENERGY PREDICTED BY IDOCK:   -6.37 KCAL/MOL
REMARK 923 INTER-LIGAND FREE ENERGY PREDICTED BY IDOCK:   -5.99 KCAL/MOL
REMARK 924 INTRA-LIGAND FREE ENERGY PREDICTED BY IDOCK:   -0.38 KCAL/MOL
REMARK 927      BINDING AFFINITY PREDICTED BY RF-SCORE:    0.00 PKD
ROOT
HETATM    1  C   UNL     1      -8.979   7.412  71.776  1.00  0.00    -0.135 C  
HETATM    2  C   UNL     1      -9.788   8.307  72.518  1.00  0.00    -0.368 C  
HETATM    3  C   UNL     1     -10.448   7.618  71.381  1.00  0.00    -0.230 C  
HETATM    4  C   UNL     1      -9.388   6.070  70.515  1.00  0.00    -0.160 C  
HETATM    5  C   UNL     1      -8.473   8.242  70.207  1.00  0.00    -0.125 C  
HETATM    6  C   UNL     1      -9.057  11.578  67.502  1.00  0.00    -0.166 C  
HETATM    7  C   UNL     1     -10.364   6.059  71.479  1.00  0.00    -0.261 C  
HETATM    8  C   UNL     1     -10.852   5.133  72.554  1.00  0.00    -0.282 C  
HETATM    9  C   UNL     1     -11.581   6.344  70.074  1.00  0.00    -0.446 C  
HETATM   10  C   UNL     1     -10.125  11.618  66.425  1.00  0.00    -0.214 C  
HETATM   11  C   UNL     1      -7.807   9.620  70.459  1.00  0.00    -0.150 C  
HETATM   12  C   UNL     1     -10.852   7.250  68.832  1.00  0.00    -0.119 C  
HETATM   13  C   UNL     1      -7.540  10.485  69.200  1.00  0.00    -0.123 C  
HETATM   14  C   UNL     1      -8.605  10.459  68.111  1.00  0.00    -0.125 C  
HETATM   15  C   UNL     1      -9.683   8.437  69.091  1.00  0.00    -0.171 C  
HETATM   16  C   UNL     1      -9.171   9.084  67.775  1.00  0.00    -0.152 C  
HETATM   17  C   UNL     1     -10.387   9.159  66.834  1.00  0.00    -0.321 C  
HETATM   18  C   UNL     1     -10.397  10.248  65.806  1.00  0.00    -0.236 C  
ENDROOT
BRANCH   4  19
HETATM   19  C   UNL     1      -8.191   5.287  71.179  1.00  0.00    -0.118 C  
HETATM   20  C   UNL     1      -7.276   4.640  71.621  1.00  0.00    -0.067 C  
ENDBRANCH   4  19
BRANCH   4  21
HETATM   21  O   UNL     1      -9.873   4.981  69.641  1.00  0.00    -0.179 OA 
BRANCH  21  22
HETATM   22  C   UNL     1      -9.063   4.432  68.707  1.00  0.00    -0.124 C  
HETATM   23  O   UNL     1      -8.347   5.056  67.935  1.00  0.00    -0.101 OA 
HETATM   24  C   UNL     1      -9.300   2.941  68.641  1.00  0.00    -0.239 C  
ENDBRANCH  21  22
ENDBRANCH   4  21
BRANCH  10  25
HETATM   25  O   UNL     1      -9.703  12.488  65.360  1.00  0.00    -0.202 OA 
BRANCH  25  26
HETATM   26  C   UNL     1     -10.619  12.636  64.357  1.00  0.00    -0.364 C  
HETATM   27  C   UNL     1     -11.768  13.478  64.818  1.00  0.00    -0.397 C  
HETATM   28  O   UNL     1     -10.503  12.217  63.212  1.00  0.00    -0.417 OA 
ENDBRANCH  25  26
ENDBRANCH  10  25
TORSDOF 5
ENDMDL
MODEL       29
REMARK 921   NORMALIZED FREE ENERGY PREDICTED BY IDOCK:   -5.06 KCAL/MOL
REMARK 922        TOTAL FREE ENERGY PREDICTED BY IDOCK:   -6.37 KCAL/MOL
REMARK 923 INTER-LIGAND FREE ENERGY PREDICTED BY IDOCK:   -6.31 KCAL/MOL
REMARK 924 INTRA-LIGAND FREE ENERGY PREDICTED BY IDOCK:   -0.07 KCAL/MOL
REMARK 927      BINDING AFFINITY PREDICTED BY RF-SCORE:    0.00 PKD
ROOT
HETATM    1  C   UNL     1      -6.127  17.694  67.451  1.00  0.00    -0.165 C  
HETATM    2  C   UNL     1      -5.457  17.409  66.236  1.00  0.00    -0.213 C  
HETATM    3  C   UNL     1      -6.873  17.838  66.117  1.00  0.00    -0.329 C  
HETATM    4  C   UNL     1      -7.747  18.581  67.836  1.00  0.00    -0.251 C  
HETATM    5  C   UNL     1      -7.215  16.264  67.871  1.00  0.00    -0.145 C  
HETATM    6  C   UNL     1      -9.044  12.567  66.536  1.00  0.00    -0.177 C  
HETATM    7  C   UNL     1      -7.150  19.226  66.784  1.00  0.00    -0.218 C  
HETATM    8  C   UNL     1      -6.535  20.568  66.508  1.00  0.00    -0.283 C  
HETATM    9  C   UNL     1      -8.732  18.875  65.831  1.00  0.00     0.145 C  
HETATM   10  C   UNL     1     -10.341  12.499  65.754  1.00  0.00    -0.265 C  
HETATM   11  C   UNL     1      -6.440  14.921  67.887  1.00  0.00    -0.177 C  
HETATM   12  C   UNL     1      -9.435  17.419  66.362  1.00  0.00    -0.279 C  
HETATM   13  C   UNL     1      -7.304  13.640  68.021  1.00  0.00    -0.131 C  
HETATM   14  C   UNL     1      -8.629  13.626  67.269  1.00  0.00    -0.220 C  
HETATM   15  C   UNL     1      -8.553  16.090  66.907  1.00  0.00    -0.263 C  
HETATM   16  C   UNL     1      -9.452  14.905  67.356  1.00  0.00    -0.206 C  
HETATM   17  C   UNL     1     -10.659  14.899  66.402  1.00  0.00    -0.307 C  
HETATM   18  C   UNL     1     -11.337  13.587  66.156  1.00  0.00    -0.325 C  
ENDROOT
BRANCH   4  19
HETATM   19  C   UNL     1      -6.978  19.126  69.101  1.00  0.00    -0.361 C  
HETATM   20  C   UNL     1      -6.379  19.612  70.025  1.00  0.00    -0.322 C  
ENDBRANCH   4  19
BRANCH   4  21
HETATM   21  O   UNL     1      -8.970  19.398  67.983  1.00  0.00    -0.305 OA 
BRANCH  21  22
HETATM   22  C   UNL     1      -9.860  19.139  68.968  1.00  0.00    -0.375 C  
HETATM   23  O   UNL     1     -10.281  18.030  69.268  1.00  0.00    -0.297 OA 
HETATM   24  C   UNL     1     -10.390  20.437  69.530  1.00  0.00     0.228 C  
ENDBRANCH  21  22
ENDBRANCH   4  21
BRANCH  10  25
HETATM   25  O   UNL     1     -10.980  11.231  65.989  1.00  0.00    -0.257 OA 
BRANCH  25  26
HETATM   26  C   UNL     1     -10.176  10.147  65.778  1.00  0.00    -0.213 C  
HETATM   27  C   UNL     1     -10.059   9.332  67.028  1.00  0.00    -0.313 C  
HETATM   28  O   UNL     1      -9.675   9.823  64.709  1.00  0.00    -0.283 OA 
ENDBRANCH  25  26
ENDBRANCH  10  25
TORSDOF 5
ENDMDL
MODEL       30
REMARK 921   NORMALIZED FREE ENERGY PREDICTED BY IDOCK:   -5.05 KCAL/MOL
REMARK 922        TOTAL FREE ENERGY PREDICTED BY IDOCK:   -6.37 KCAL/MOL
REMARK 923 INTER-LIGAND FREE ENERGY PREDICTED BY IDOCK:   -6.69 KCAL/MOL
REMARK 924 INTRA-LIGAND FREE ENERGY PREDICTED BY IDOCK:    0.32 KCAL/MOL
REMARK 927      BINDING AFFINITY PREDICTED BY RF-SCORE:    0.00 PKD
ROOT
HETATM    1  C   UNL     1     -10.836  11.633  66.591  1.00  0.00    -0.327 C  
HETATM    2  C   UNL     1     -12.110  11.788  65.994  1.00  0.00     0.449 C  
HETATM    3  C   UNL     1     -11.333  13.034  66.209  1.00  0.00    -0.354 C  
HETATM    4  C   UNL     1      -9.355  12.791  66.755  1.00  0.00    -0.241 C  
HETATM    5  C   UNL     1     -10.959  12.107  68.370  1.00  0.00    -0.271 C  
HETATM    6  C   UNL     1     -13.328  13.977  71.482  1.00  0.00    -0.422 C  
HETATM    7  C   UNL     1      -9.926  13.004  65.526  1.00  0.00    -0.226 C  
HETATM    8  C   UNL     1      -9.559  12.814  64.083  1.00  0.00     0.380 C  
HETATM    9  C   UNL     1     -10.114  14.796  66.062  1.00  0.00    -0.327 C  
HETATM   10  C   UNL     1     -13.349  15.470  71.748  1.00  0.00    -0.486 C  
HETATM   11  C   UNL     1     -12.090  11.339  69.105  1.00  0.00    -0.348 C  
HETATM   12  C   UNL     1     -10.341  14.893  67.745  1.00  0.00    -0.244 C  
HETATM   13  C   UNL     1     -12.410  11.818  70.545  1.00  0.00    -0.387 C  
HETATM   14  C   UNL     1     -12.367  13.320  70.793  1.00  0.00    -0.425 C  
HETATM   15  C   UNL     1     -11.151  13.728  68.656  1.00  0.00    -0.293 C  
HETATM   16  C   UNL     1     -11.186  14.058  70.174  1.00  0.00    -0.008 C  
HETATM   17  C   UNL     1     -11.324  15.587  70.275  1.00  0.00    -0.348 C  
HETATM   18  C   UNL     1     -11.999  16.139  71.493  1.00  0.00    -0.490 C  
ENDROOT
BRANCH   4  19
HETATM   19  C   UNL     1      -8.497  11.483  66.552  1.00  0.00    -0.160 C  
HETATM   20  C   UNL     1      -7.776  10.533  66.387  1.00  0.00    -0.135 C  
ENDBRANCH   4  19
BRANCH   4  21
HETATM   21  O   UNL     1      -8.245  13.765  66.699  1.00  0.00     0.085 OA 
BRANCH  21  22
HETATM   22  C   UNL     1      -7.163  13.626  67.499  1.00  0.00    -0.156 C  
HETATM   23  O   UNL     1      -6.038  13.327  67.123  1.00  0.00    -0.288 OA 
HETATM   24  C   UNL     1      -7.585  13.725  68.946  1.00  0.00    -0.040 C  
ENDBRANCH  21  22
ENDBRANCH   4  21
BRANCH  10  25
HETATM   25  O   UNL     1     -13.688  15.710  73.125  1.00  0.00    -0.520 OA 
BRANCH  25  26
HETATM   26  C   UNL     1     -12.627  15.655  73.985  1.00  0.00    -0.628 C  
HETATM   27  C   UNL     1     -12.273  17.027  74.467  1.00  0.00    -0.064 C  
HETATM   28  O   UNL     1     -12.080  14.634  74.382  1.00  0.00    -0.415 OA 
ENDBRANCH  25  26
ENDBRANCH  10  25
TORSDOF 5
ENDMDL
MODEL       31
REMARK 921   NORMALIZED FREE ENERGY PREDICTED BY IDOCK:   -5.02 KCAL/MOL
REMARK 922        TOTAL FREE ENERGY PREDICTED BY IDOCK:   -6.33 KCAL/MOL
REMARK 923 INTER-LIGAND FREE ENERGY PREDICTED BY IDOCK:   -5.83 KCAL/MOL
REMARK 924 INTRA-LIGAND FREE ENERGY PREDICTED BY IDOCK:   -0.50 KCAL/MOL
REMARK 927      BINDING AFFINITY PREDICTED BY RF-SCORE:    0.00 PKD
ROOT
HETATM    1  C   UNL     1     -11.190  13.220  65.307  1.00  0.00    -0.315 C  
HETATM    2  C   UNL     1     -12.408  12.519  65.140  1.00  0.00    -0.496 C  
HETATM    3  C   UNL     1     -11.623  12.185  66.354  1.00  0.00    -0.429 C  
HETATM    4  C   UNL     1     -10.034  13.435  66.783  1.00  0.00    -0.264 C  
HETATM    5  C   UNL     1      -9.800  12.107  64.825  1.00  0.00    -0.157 C  
HETATM    6  C   UNL     1      -8.534   8.076  63.855  1.00  0.00     0.140 C  
HETATM    7  C   UNL     1     -11.323  13.431  67.251  1.00  0.00    -0.348 C  
HETATM    8  C   UNL     1     -12.267  14.394  67.910  1.00  0.00    -0.178 C  
HETATM    9  C   UNL     1     -10.798  11.982  68.327  1.00  0.00    -0.263 C  
HETATM   10  C   UNL     1      -8.158   7.035  64.892  1.00  0.00    -0.107 C  
HETATM   11  C   UNL     1      -9.987  11.515  63.403  1.00  0.00    -0.445 C  
HETATM   12  C   UNL     1      -9.590  11.070  67.548  1.00  0.00    -0.178 C  
HETATM   13  C   UNL     1      -8.983  10.407  62.992  1.00  0.00    -0.247 C  
HETATM   14  C   UNL     1      -8.581   9.410  64.071  1.00  0.00    -0.222 C  
HETATM   15  C   UNL     1      -9.495  10.864  65.878  1.00  0.00    -0.241 C  
HETATM   16  C   UNL     1      -8.275  10.007  65.440  1.00  0.00    -0.149 C  
HETATM   17  C   UNL     1      -8.095   8.933  66.527  1.00  0.00    -0.107 C  
HETATM   18  C   UNL     1      -7.470   7.635  66.117  1.00  0.00    -0.083 C  
ENDROOT
BRANCH   4  19
HETATM   19  C   UNL     1      -9.836  14.898  66.228  1.00  0.00    -0.315 C  
HETATM   20  C   UNL     1      -9.718  16.042  65.874  1.00  0.00    -0.378 C  
ENDBRANCH   4  19
BRANCH   4  21
HETATM   21  O   UNL     1      -9.297  13.604  68.052  1.00  0.00    -0.194 OA 
BRANCH  21  22
HETATM   22  C   UNL     1      -8.004  14.007  68.052  1.00  0.00    -0.152 C  
HETATM   23  O   UNL     1      -7.110  13.515  67.379  1.00  0.00    -0.163 OA 
HETATM   24  C   UNL     1      -7.794  15.041  69.134  1.00  0.00    -0.188 C  
ENDBRANCH  21  22
ENDBRANCH   4  21
BRANCH  10  25
HETATM   25  O   UNL     1      -7.243   6.087  64.313  1.00  0.00    -0.051 OA 
BRANCH  25  26
HETATM   26  C   UNL     1      -7.843   4.997  63.748  1.00  0.00    -0.088 C  
HETATM   27  C   UNL     1      -8.963   4.509  64.613  1.00  0.00    -0.152 C  
HETATM   28  O   UNL     1      -7.574   4.518  62.654  1.00  0.00    -0.056 OA 
ENDBRANCH  25  26
ENDBRANCH  10  25
TORSDOF 5
ENDMDL
MODEL       32
REMARK 921   NORMALIZED FREE ENERGY PREDICTED BY IDOCK:   -4.94 KCAL/MOL
REMARK 922        TOTAL FREE ENERGY PREDICTED BY IDOCK:   -6.22 KCAL/MOL
REMARK 923 INTER-LIGAND FREE ENERGY PREDICTED BY IDOCK:   -5.83 KCAL/MOL
REMARK 924 INTRA-LIGAND FREE ENERGY PREDICTED BY IDOCK:   -0.39 KCAL/MOL
REMARK 927      BINDING AFFINITY PREDICTED BY RF-SCORE:    0.00 PKD
ROOT
HETATM    1  C   UNL     1     -10.042  12.612  65.446  1.00  0.00    -0.277 C  
HETATM    2  C   UNL     1     -10.721  11.586  64.744  1.00  0.00    -0.366 C  
HETATM    3  C   UNL     1     -11.215  11.881  66.112  1.00  0.00    -0.387 C  
HETATM    4  C   UNL     1     -10.465  13.588  67.003  1.00  0.00    -0.265 C  
HETATM    5  C   UNL     1      -8.900  11.831  66.667  1.00  0.00    -0.189 C  
HETATM    6  C   UNL     1      -7.700   8.211  68.729  1.00  0.00    -0.107 C  
HETATM    7  C   UNL     1     -11.627  13.378  66.305  1.00  0.00    -0.378 C  
HETATM    8  C   UNL     1     -12.644  14.200  65.569  1.00  0.00    -0.501 C  
HETATM    9  C   UNL     1     -12.267  12.544  67.863  1.00  0.00     0.105 C  
HETATM   10  C   UNL     1      -8.367   7.694  69.989  1.00  0.00    -0.134 C  
HETATM   11  C   UNL     1      -7.953  10.794  66.007  1.00  0.00    -0.154 C  
HETATM   12  C   UNL     1     -10.990  11.802  68.709  1.00  0.00    -0.281 C  
HETATM   13  C   UNL     1      -7.105   9.934  66.980  1.00  0.00    -0.089 C  
HETATM   14  C   UNL     1      -7.786   9.478  68.264  1.00  0.00    -0.086 C  
HETATM   15  C   UNL     1      -9.641  11.116  67.967  1.00  0.00    -0.181 C  
HETATM   16  C   UNL     1      -8.618  10.535  68.981  1.00  0.00    -0.160 C  
HETATM   17  C   UNL     1      -9.448   9.950  70.137  1.00  0.00    -0.214 C  
HETATM   18  C   UNL     1      -8.851   8.814  70.909  1.00  0.00    -0.243 C  
ENDROOT
BRANCH   4  19
HETATM   19  C   UNL     1      -9.786  14.797  66.253  1.00  0.00    -0.326 C  
HETATM   20  C   UNL     1      -9.341  15.740  65.651  1.00  0.00    -0.202 C  
ENDBRANCH   4  19
BRANCH   4  21
HETATM   21  O   UNL     1     -10.990  14.344  68.160  1.00  0.00    -0.243 OA 
BRANCH  21  22
HETATM   22  C   UNL     1     -10.170  15.118  68.909  1.00  0.00    -0.236 C  
HETATM   23  O   UNL     1      -9.033  14.822  69.247  1.00  0.00    -0.134 OA 
HETATM   24  C   UNL     1     -10.928  16.325  69.409  1.00  0.00    -0.337 C  
ENDBRANCH  21  22
ENDBRANCH   4  21
BRANCH  10  25
HETATM   25  O   UNL     1      -7.430   6.902  70.741  1.00  0.00    -0.080 OA 
BRANCH  25  26
HETATM   26  C   UNL     1      -7.954   5.753  71.262  1.00  0.00    -0.113 C  
HETATM   27  C   UNL     1      -9.005   5.197  70.352  1.00  0.00    -0.157 C  
HETATM   28  O   UNL     1      -7.580   5.194  72.285  1.00  0.00    -0.091 OA 
ENDBRANCH  25  26
ENDBRANCH  10  25
TORSDOF 5
ENDMDL
MODEL       33
REMARK 921   NORMALIZED FREE ENERGY PREDICTED BY IDOCK:   -4.82 KCAL/MOL
REMARK 922        TOTAL FREE ENERGY PREDICTED BY IDOCK:   -6.07 KCAL/MOL
REMARK 923 INTER-LIGAND FREE ENERGY PREDICTED BY IDOCK:   -6.70 KCAL/MOL
REMARK 924 INTRA-LIGAND FREE ENERGY PREDICTED BY IDOCK:    0.63 KCAL/MOL
REMARK 927      BINDING AFFINITY PREDICTED BY RF-SCORE:    0.00 PKD
ROOT
HETATM    1  C   UNL     1      -7.178   8.413  70.060  1.00  0.00    -0.054 C  
HETATM    2  C   UNL     1      -6.609   9.497  70.772  1.00  0.00    -0.104 C  
HETATM    3  C   UNL     1      -8.080   9.337  70.890  1.00  0.00    -0.168 C  
HETATM    4  C   UNL     1      -8.867   7.577  70.146  1.00  0.00    -0.147 C  
HETATM    5  C   UNL     1      -7.969   9.069  68.527  1.00  0.00    -0.103 C  
HETATM    6  C   UNL     1      -9.315  12.557  66.332  1.00  0.00    -0.209 C  
HETATM    7  C   UNL     1      -8.501   7.927  71.420  1.00  0.00    -0.133 C  
HETATM    8  C   UNL     1      -8.144   7.233  72.703  1.00  0.00    -0.117 C  
HETATM    9  C   UNL     1     -10.101   8.911  71.477  1.00  0.00    -0.394 C  
HETATM   10  C   UNL     1     -10.663  13.219  66.540  1.00  0.00    -0.285 C  
HETATM   11  C   UNL     1      -6.991   9.926  67.681  1.00  0.00    -0.086 C  
HETATM   12  C   UNL     1     -10.498   9.492  69.928  1.00  0.00    -0.269 C  
HETATM   13  C   UNL     1      -7.618  10.692  66.488  1.00  0.00    -0.134 C  
HETATM   14  C   UNL     1      -8.998  11.297  66.710  1.00  0.00    -0.173 C  
HETATM   15  C   UNL     1      -9.359   9.940  68.769  1.00  0.00    -0.157 C  
HETATM   16  C   UNL     1     -10.001  10.406  67.433  1.00  0.00    -0.226 C  
HETATM   17  C   UNL     1     -11.289  11.155  67.817  1.00  0.00    -0.364 C  
HETATM   18  C   UNL     1     -11.770  12.223  66.883  1.00  0.00    -0.404 C  
ENDROOT
BRANCH   4  19
HETATM   19  C   UNL     1      -8.061   6.250  69.870  1.00  0.00    -0.120 C  
HETATM   20  C   UNL     1      -7.402   5.279  69.604  1.00  0.00    -0.064 C  
ENDBRANCH   4  19
BRANCH   4  21
HETATM   21  O   UNL     1     -10.181   6.957  70.413  1.00  0.00    -0.190 OA 
BRANCH  21  22
HETATM   22  C   UNL     1     -10.625   5.925  69.657  1.00  0.00    -0.313 C  
HETATM   23  O   UNL     1     -10.650   4.753  70.005  1.00  0.00    -0.093 OA 
HETATM   24  C   UNL     1     -10.922   6.411  68.258  1.00  0.00    -0.396 C  
ENDBRANCH  21  22
ENDBRANCH   4  21
BRANCH  10  25
HETATM   25  O   UNL     1     -11.060  13.895  65.334  1.00  0.00    -0.298 OA 
BRANCH  25  26
HETATM   26  C   UNL     1     -12.205  13.411  64.767  1.00  0.00    -0.409 C  
HETATM   27  C   UNL     1     -11.877  12.447  63.669  1.00  0.00    -0.610 C  
HETATM   28  O   UNL     1     -13.346  13.652  65.138  1.00  0.00    -0.677 OA 
ENDBRANCH  25  26
ENDBRANCH  10  25
TORSDOF 5
ENDMDL
MODEL       34
REMARK 921   NORMALIZED FREE ENERGY PREDICTED BY IDOCK:   -4.81 KCAL/MOL
REMARK 922        TOTAL FREE ENERGY PREDICTED BY IDOCK:   -6.05 KCAL/MOL
REMARK 923 INTER-LIGAND FREE ENERGY PREDICTED BY IDOCK:   -5.66 KCAL/MOL
REMARK 924 INTRA-LIGAND FREE ENERGY PREDICTED BY IDOCK:   -0.39 KCAL/MOL
REMARK 927      BINDING AFFINITY PREDICTED BY RF-SCORE:    0.00 PKD
ROOT
HETATM    1  C   UNL     1      -9.843   8.609  66.778  1.00  0.00    -0.322 C  
HETATM    2  C   UNL     1      -9.285   8.698  65.479  1.00  0.00    -0.158 C  
HETATM    3  C   UNL     1      -8.371   9.008  66.607  1.00  0.00    -0.118 C  
HETATM    4  C   UNL     1      -9.068   8.551  68.497  1.00  0.00    -0.135 C  
HETATM    5  C   UNL     1     -10.204  10.315  67.381  1.00  0.00    -0.265 C  
HETATM    6  C   UNL     1      -9.653  14.575  66.793  1.00  0.00    -0.274 C  
HETATM    7  C   UNL     1      -8.262   7.842  67.644  1.00  0.00    -0.124 C  
HETATM    8  C   UNL     1      -7.828   6.418  67.452  1.00  0.00    -0.105 C  
HETATM    9  C   UNL     1      -6.890   9.019  68.163  1.00  0.00    -0.069 C  
HETATM   10  C   UNL     1      -8.446  15.348  67.288  1.00  0.00    -0.192 C  
HETATM   11  C   UNL     1     -11.077  11.119  66.381  1.00  0.00    -0.204 C  
HETATM   12  C   UNL     1      -7.530  10.552  68.533  1.00  0.00    -0.091 C  
HETATM   13  C   UNL     1     -11.258  12.626  66.697  1.00  0.00    -0.346 C  
HETATM   14  C   UNL     1     -10.042  13.362  67.247  1.00  0.00    -0.238 C  
HETATM   15  C   UNL     1      -8.872  11.223  67.765  1.00  0.00    -0.141 C  
HETATM   16  C   UNL     1      -9.254  12.623  68.322  1.00  0.00    -0.184 C  
HETATM   17  C   UNL     1      -7.927  13.321  68.668  1.00  0.00    -0.042 C  
HETATM   18  C   UNL     1      -7.902  14.818  68.614  1.00  0.00    -0.140 C  
ENDROOT
BRANCH   4  19
HETATM   19  C   UNL     1     -10.240   7.549  68.831  1.00  0.00    -0.214 C  
HETATM   20  C   UNL     1     -11.078   6.726  69.095  1.00  0.00    -0.270 C  
ENDBRANCH   4  19
BRANCH   4  21
HETATM   21  O   UNL     1      -8.313   8.396  69.758  1.00  0.00    -0.120 OA 
BRANCH  21  22
HETATM   22  C   UNL     1      -8.936   8.510  70.955  1.00  0.00    -0.172 C  
HETATM   23  O   UNL     1      -9.689   9.418  71.277  1.00  0.00    -0.262 OA 
HETATM   24  C   UNL     1      -8.428   7.442  71.895  1.00  0.00    -0.117 C  
ENDBRANCH  21  22
ENDBRANCH   4  21
BRANCH  10  25
HETATM   25  O   UNL     1      -8.808  16.725  67.499  1.00  0.00    -0.198 OA 
BRANCH  25  26
HETATM   26  C   UNL     1      -8.771  17.496  66.372  1.00  0.00    -0.242 C  
HETATM   27  C   UNL     1     -10.044  18.269  66.225  1.00  0.00    -0.389 C  
HETATM   28  O   UNL     1      -7.814  17.617  65.617  1.00  0.00    -0.533 OA 
ENDBRANCH  25  26
ENDBRANCH  10  25
TORSDOF 5
ENDMDL
MODEL       35
REMARK 921   NORMALIZED FREE ENERGY PREDICTED BY IDOCK:   -4.78 KCAL/MOL
REMARK 922        TOTAL FREE ENERGY PREDICTED BY IDOCK:   -6.01 KCAL/MOL
REMARK 923 INTER-LIGAND FREE ENERGY PREDICTED BY IDOCK:   -5.61 KCAL/MOL
REMARK 924 INTRA-LIGAND FREE ENERGY PREDICTED BY IDOCK:   -0.40 KCAL/MOL
REMARK 927      BINDING AFFINITY PREDICTED BY RF-SCORE:    0.00 PKD
ROOT
HETATM    1  C   UNL     1     -10.232  16.567  66.559  1.00  0.00    -0.305 C  
HETATM    2  C   UNL     1     -11.586  16.459  66.960  1.00  0.00     0.691 C  
HETATM    3  C   UNL     1     -10.577  15.934  67.914  1.00  0.00    -0.300 C  
HETATM    4  C   UNL     1      -8.605  16.394  67.498  1.00  0.00    -0.173 C  
HETATM    5  C   UNL     1      -9.661  14.916  65.966  1.00  0.00    -0.358 C  
HETATM    6  C   UNL     1     -10.471  10.665  65.699  1.00  0.00    -0.235 C  
HETATM    7  C   UNL     1      -9.512  17.002  68.328  1.00  0.00    -0.265 C  
HETATM    8  C   UNL     1      -9.695  18.341  68.983  1.00  0.00    -0.225 C  
HETATM    9  C   UNL     1      -9.191  15.582  69.517  1.00  0.00    -0.265 C  
HETATM   10  C   UNL     1     -10.139   9.670  66.795  1.00  0.00    -0.236 C  
HETATM   11  C   UNL     1     -10.591  14.331  64.870  1.00  0.00    -0.452 C  
HETATM   12  C   UNL     1      -8.815  14.162  68.658  1.00  0.00    -0.132 C  
HETATM   13  C   UNL     1     -10.317  12.861  64.460  1.00  0.00    -0.380 C  
HETATM   14  C   UNL     1      -9.930  11.899  65.576  1.00  0.00    -0.266 C  
HETATM   15  C   UNL     1      -9.458  13.773  67.149  1.00  0.00    -0.244 C  
HETATM   16  C   UNL     1      -8.919  12.430  66.585  1.00  0.00    -0.184 C  
HETATM   17  C   UNL     1      -8.745  11.497  67.796  1.00  0.00    -0.142 C  
HETATM   18  C   UNL     1      -8.860  10.024  67.553  1.00  0.00    -0.130 C  
ENDROOT
BRANCH   4  19
HETATM   19  C   UNL     1      -8.109  17.560  66.560  1.00  0.00    -0.305 C  
HETATM   20  C   UNL     1      -7.656  18.415  65.843  1.00  0.00    -0.167 C  
ENDBRANCH   4  19
BRANCH   4  21
HETATM   21  O   UNL     1      -7.428  16.345  68.390  1.00  0.00    -0.158 OA 
BRANCH  21  22
HETATM   22  C   UNL     1      -6.201  16.056  67.899  1.00  0.00    -0.131 C  
HETATM   23  O   UNL     1      -5.944  15.138  67.132  1.00  0.00    -0.272 OA 
HETATM   24  C   UNL     1      -5.165  16.925  68.573  1.00  0.00    -0.123 C  
ENDBRANCH  21  22
ENDBRANCH   4  21
BRANCH  10  25
HETATM   25  O   UNL     1      -9.945   8.366  66.220  1.00  0.00    -0.245 OA 
BRANCH  25  26
HETATM   26  C   UNL     1     -10.266   7.330  67.051  1.00  0.00    -0.278 C  
HETATM   27  C   UNL     1      -9.641   6.058  66.567  1.00  0.00    -0.182 C  
HETATM   28  O   UNL     1     -10.906   7.418  68.091  1.00  0.00    -0.146 OA 
ENDBRANCH  25  26
ENDBRANCH  10  25
TORSDOF 5
ENDMDL
MODEL       36
REMARK 921   NORMALIZED FREE ENERGY PREDICTED BY IDOCK:   -4.77 KCAL/MOL
REMARK 922        TOTAL FREE ENERGY PREDICTED BY IDOCK:   -6.00 KCAL/MOL
REMARK 923 INTER-LIGAND FREE ENERGY PREDICTED BY IDOCK:   -5.52 KCAL/MOL
REMARK 924 INTRA-LIGAND FREE ENERGY PREDICTED BY IDOCK:   -0.48 KCAL/MOL
REMARK 927      BINDING AFFINITY PREDICTED BY RF-SCORE:    0.00 PKD
ROOT
HETATM    1  C   UNL     1      -8.308   7.084  69.558  1.00  0.00    -0.133 C  
HETATM    2  C   UNL     1      -9.084   7.331  70.717  1.00  0.00    -0.152 C  
HETATM    3  C   UNL     1      -9.839   7.136  69.454  1.00  0.00    -0.161 C  
HETATM    4  C   UNL     1      -8.750   6.441  67.841  1.00  0.00    -0.115 C  
HETATM    5  C   UNL     1      -8.218   8.640  68.570  1.00  0.00    -0.122 C  
HETATM    6  C   UNL     1      -9.746  12.648  67.943  1.00  0.00    -0.216 C  
HETATM    7  C   UNL     1      -9.522   5.772  68.757  1.00  0.00    -0.147 C  
HETATM    8  C   UNL     1      -9.672   4.370  69.270  1.00  0.00    -0.252 C  
HETATM    9  C   UNL     1     -11.002   6.421  67.797  1.00  0.00    -0.425 C  
HETATM   10  C   UNL     1     -10.987  12.963  67.131  1.00  0.00    -0.262 C  
HETATM   11  C   UNL     1      -7.716   9.843  69.411  1.00  0.00    -0.119 C  
HETATM   12  C   UNL     1     -10.647   7.935  67.107  1.00  0.00    -0.383 C  
HETATM   13  C   UNL     1      -7.806  11.232  68.729  1.00  0.00    -0.139 C  
HETATM   14  C   UNL     1      -9.038  11.497  67.873  1.00  0.00    -0.167 C  
HETATM   15  C   UNL     1      -9.627   9.076  67.813  1.00  0.00    -0.178 C  
HETATM   16  C   UNL     1      -9.459  10.359  66.952  1.00  0.00    -0.196 C  
HETATM   17  C   UNL     1     -10.825  10.609  66.288  1.00  0.00    -0.097 C  
HETATM   18  C   UNL     1     -11.174  12.023  65.941  1.00  0.00    -0.385 C  
ENDROOT
BRANCH   4  19
HETATM   19  C   UNL     1      -7.354   5.710  67.917  1.00  0.00    -0.073 C  
HETATM   20  C   UNL     1      -6.288   5.153  67.893  1.00  0.00    -0.040 C  
ENDBRANCH   4  19
BRANCH   4  21
HETATM   21  O   UNL     1      -9.230   5.817  66.590  1.00  0.00    -0.129 OA 
BRANCH  21  22
HETATM   22  C   UNL     1      -8.535   5.955  65.438  1.00  0.00    -0.153 C  
HETATM   23  O   UNL     1      -8.076   7.006  65.010  1.00  0.00    -0.125 OA 
HETATM   24  C   UNL     1      -8.558   4.654  64.670  1.00  0.00    -0.144 C  
ENDBRANCH  21  22
ENDBRANCH   4  21
BRANCH  10  25
HETATM   25  O   UNL     1     -10.893  14.299  66.604  1.00  0.00    -0.295 OA 
BRANCH  25  26
HETATM   26  C   UNL     1     -10.991  15.284  67.547  1.00  0.00    -0.315 C  
HETATM   27  C   UNL     1      -9.930  16.319  67.335  1.00  0.00    -0.249 C  
HETATM   28  O   UNL     1     -11.863  15.373  68.402  1.00  0.00    -0.347 OA 
ENDBRANCH  25  26
ENDBRANCH  10  25
TORSDOF 5
ENDMDL
MODEL       37
REMARK 921   NORMALIZED FREE ENERGY PREDICTED BY IDOCK:   -4.77 KCAL/MOL
REMARK 922        TOTAL FREE ENERGY PREDICTED BY IDOCK:   -6.00 KCAL/MOL
REMARK 923 INTER-LIGAND FREE ENERGY PREDICTED BY IDOCK:   -6.20 KCAL/MOL
REMARK 924 INTRA-LIGAND FREE ENERGY PREDICTED BY IDOCK:    0.20 KCAL/MOL
REMARK 927      BINDING AFFINITY PREDICTED BY RF-SCORE:    0.00 PKD
ROOT
HETATM    1  C   UNL     1      -8.503  12.154  67.548  1.00  0.00    -0.169 C  
HETATM    2  C   UNL     1      -8.214  11.212  66.531  1.00  0.00    -0.167 C  
HETATM    3  C   UNL     1      -9.643  11.351  66.907  1.00  0.00    -0.203 C  
HETATM    4  C   UNL     1     -10.111  12.950  68.130  1.00  0.00    -0.240 C  
HETATM    5  C   UNL     1      -8.790  11.244  69.127  1.00  0.00     0.125 C  
HETATM    6  C   UNL     1      -9.469   7.420  71.053  1.00  0.00    -0.157 C  
HETATM    7  C   UNL     1     -10.173  12.816  66.766  1.00  0.00    -0.245 C  
HETATM    8  C   UNL     1     -10.219  13.713  65.563  1.00  0.00    -0.316 C  
HETATM    9  C   UNL     1     -11.735  11.813  67.059  1.00  0.00    -0.247 C  
HETATM   10  C   UNL     1     -10.831   6.764  71.176  1.00  0.00    -0.238 C  
HETATM   11  C   UNL     1      -7.618  10.290  69.477  1.00  0.00    -0.150 C  
HETATM   12  C   UNL     1     -11.641  10.984  68.542  1.00  0.00    -0.380 C  
HETATM   13  C   UNL     1      -7.859   9.329  70.670  1.00  0.00    -0.181 C  
HETATM   14  C   UNL     1      -9.254   8.731  70.798  1.00  0.00    -0.242 C  
HETATM   15  C   UNL     1     -10.208  10.388  69.199  1.00  0.00    -0.239 C  
HETATM   16  C   UNL     1     -10.410   9.700  70.577  1.00  0.00    -0.359 C  
HETATM   17  C   UNL     1     -11.772   8.988  70.503  1.00  0.00    -0.160 C  
HETATM   18  C   UNL     1     -11.963   7.774  71.359  1.00  0.00    -0.331 C  
ENDROOT
BRANCH   4  19
HETATM   19  C   UNL     1      -9.225  14.237  68.345  1.00  0.00    -0.196 C  
HETATM   20  C   UNL     1      -8.571  15.243  68.434  1.00  0.00    -0.160 C  
ENDBRANCH   4  19
BRANCH   4  21
HETATM   21  O   UNL     1     -11.427  13.571  68.390  1.00  0.00    -0.270 OA 
BRANCH  21  22
HETATM   22  C   UNL     1     -11.676  14.196  69.565  1.00  0.00    -0.312 C  
HETATM   23  O   UNL     1     -11.670  13.661  70.665  1.00  0.00    -0.204 OA 
HETATM   24  C   UNL     1     -12.131  15.612  69.302  1.00  0.00    -0.263 C  
ENDBRANCH  21  22
ENDBRANCH   4  21
BRANCH  10  25
HETATM   25  O   UNL     1     -10.847   5.896  72.323  1.00  0.00    -0.222 OA 
BRANCH  25  26
HETATM   26  C   UNL     1     -10.347   6.460  73.463  1.00  0.00    -0.265 C  
HETATM   27  C   UNL     1      -9.230   5.628  74.012  1.00  0.00    -0.126 C  
HETATM   28  O   UNL     1     -10.692   7.532  73.943  1.00  0.00    -0.285 OA 
ENDBRANCH  25  26
ENDBRANCH  10  25
TORSDOF 5
ENDMDL
MODEL       38
REMARK 921   NORMALIZED FREE ENERGY PREDICTED BY IDOCK:   -4.75 KCAL/MOL
REMARK 922        TOTAL FREE ENERGY PREDICTED BY IDOCK:   -5.98 KCAL/MOL
REMARK 923 INTER-LIGAND FREE ENERGY PREDICTED BY IDOCK:   -5.61 KCAL/MOL
REMARK 924 INTRA-LIGAND FREE ENERGY PREDICTED BY IDOCK:   -0.37 KCAL/MOL
REMARK 927      BINDING AFFINITY PREDICTED BY RF-SCORE:    0.00 PKD
ROOT
HETATM    1  C   UNL     1     -10.893  17.155  67.911  1.00  0.00    -0.294 C  
HETATM    2  C   UNL     1     -11.401  16.716  69.158  1.00  0.00    -0.051 C  
HETATM    3  C   UNL     1      -9.956  17.051  69.122  1.00  0.00    -0.229 C  
HETATM    4  C   UNL     1      -9.286  18.010  67.418  1.00  0.00    -0.253 C  
HETATM    5  C   UNL     1      -9.983  15.756  67.124  1.00  0.00    -0.242 C  
HETATM    6  C   UNL     1      -8.254  11.810  67.604  1.00  0.00    -0.145 C  
HETATM    7  C   UNL     1      -9.678  18.511  68.633  1.00  0.00    -0.398 C  
HETATM    8  C   UNL     1     -10.148  19.821  69.194  1.00  0.00    -0.372 C  
HETATM    9  C   UNL     1      -8.005  17.937  69.270  1.00  0.00     0.183 C  
HETATM   10  C   UNL     1      -6.865  11.556  68.159  1.00  0.00    -0.068 C  
HETATM   11  C   UNL     1     -10.847  14.472  67.028  1.00  0.00    -0.297 C  
HETATM   12  C   UNL     1      -7.492  16.549  68.429  1.00  0.00    -0.186 C  
HETATM   13  C   UNL     1     -10.106  13.187  66.576  1.00  0.00    -0.280 C  
HETATM   14  C   UNL     1      -8.691  12.989  67.106  1.00  0.00    -0.204 C  
HETATM   15  C   UNL     1      -8.537  15.367  67.836  1.00  0.00    -0.156 C  
HETATM   16  C   UNL     1      -7.800  14.225  67.084  1.00  0.00    -0.084 C  
HETATM   17  C   UNL     1      -6.472  14.010  67.832  1.00  0.00    -0.170 C  
HETATM   18  C   UNL     1      -5.862  12.643  67.775  1.00  0.00    -0.125 C  
ENDROOT
BRANCH   4  19
HETATM   19  C   UNL     1     -10.187  18.783  66.380  1.00  0.00    -0.464 C  
HETATM   20  C   UNL     1     -10.854  19.443  65.626  1.00  0.00    -0.323 C  
ENDBRANCH   4  19
BRANCH   4  21
HETATM   21  O   UNL     1      -8.041  18.778  67.208  1.00  0.00    -0.241 OA 
BRANCH  21  22
HETATM   22  C   UNL     1      -7.405  18.751  66.014  1.00  0.00    -0.251 C  
HETATM   23  O   UNL     1      -7.047  17.740  65.426  1.00  0.00    -0.382 OA 
HETATM   24  C   UNL     1      -7.048  20.158  65.596  1.00  0.00    -0.316 C  
ENDBRANCH  21  22
ENDBRANCH   4  21
BRANCH  10  25
HETATM   25  O   UNL     1      -6.360  10.311  67.645  1.00  0.00    -0.057 OA 
BRANCH  25  26
HETATM   26  C   UNL     1      -6.853   9.201  68.271  1.00  0.00    -0.065 C  
HETATM   27  C   UNL     1      -6.231   9.045  69.624  1.00  0.00    -0.039 C  
HETATM   28  O   UNL     1      -7.735   8.468  67.842  1.00  0.00    -0.100 OA 
ENDBRANCH  25  26
ENDBRANCH  10  25
TORSDOF 5
ENDMDL
MODEL       39
REMARK 921   NORMALIZED FREE ENERGY PREDICTED BY IDOCK:   -4.75 KCAL/MOL
REMARK 922        TOTAL FREE ENERGY PREDICTED BY IDOCK:   -5.97 KCAL/MOL
REMARK 923 INTER-LIGAND FREE ENERGY PREDICTED BY IDOCK:   -5.83 KCAL/MOL
REMARK 924 INTRA-LIGAND FREE ENERGY PREDICTED BY IDOCK:   -0.14 KCAL/MOL
REMARK 927      BINDING AFFINITY PREDICTED BY RF-SCORE:    0.00 PKD
ROOT
HETATM    1  C   UNL     1      -9.964   8.299  68.064  1.00  0.00    -0.224 C  
HETATM    2  C   UNL     1     -10.679   8.131  66.853  1.00  0.00    -0.186 C  
HETATM    3  C   UNL     1      -9.322   8.723  66.736  1.00  0.00    -0.229 C  
HETATM    4  C   UNL     1      -8.149   8.654  68.436  1.00  0.00    -0.118 C  
HETATM    5  C   UNL     1     -10.050  10.076  68.555  1.00  0.00    -0.187 C  
HETATM    6  C   UNL     1     -11.062  14.128  67.393  1.00  0.00    -0.318 C  
HETATM    7  C   UNL     1      -8.205   7.817  67.350  1.00  0.00    -0.123 C  
HETATM    8  C   UNL     1      -7.812   6.408  67.013  1.00  0.00    -0.104 C  
HETATM    9  C   UNL     1      -7.238   9.144  66.434  1.00  0.00    -0.091 C  
HETATM   10  C   UNL     1     -10.127  15.048  66.632  1.00  0.00    -0.261 C  
HETATM   11  C   UNL     1     -11.510  10.599  68.614  1.00  0.00    -0.332 C  
HETATM   12  C   UNL     1      -7.633  10.687  67.032  1.00  0.00    -0.110 C  
HETATM   13  C   UNL     1     -11.674  12.128  68.811  1.00  0.00    -0.374 C  
HETATM   14  C   UNL     1     -10.684  13.024  68.078  1.00  0.00    -0.248 C  
HETATM   15  C   UNL     1      -9.157  11.110  67.617  1.00  0.00    -0.147 C  
HETATM   16  C   UNL     1      -9.228  12.576  68.125  1.00  0.00    -0.209 C  
HETATM   17  C   UNL     1      -8.325  13.397  67.188  1.00  0.00    -0.149 C  
HETATM   18  C   UNL     1      -8.659  14.846  67.004  1.00  0.00    -0.265 C  
ENDROOT
BRANCH   4  19
HETATM   19  C   UNL     1      -8.365   7.692  69.667  1.00  0.00    -0.130 C  
HETATM   20  C   UNL     1      -8.507   7.020  70.655  1.00  0.00    -0.139 C  
ENDBRANCH   4  19
BRANCH   4  21
HETATM   21  O   UNL     1      -6.686   8.814  68.566  1.00  0.00    -0.058 OA 
BRANCH  21  22
HETATM   22  C   UNL     1      -6.118   9.017  69.778  1.00  0.00    -0.038 C  
HETATM   23  O   UNL     1      -5.405   8.218  70.369  1.00  0.00    -0.023 OA 
HETATM   24  C   UNL     1      -6.636  10.306  70.372  1.00  0.00    -0.126 C  
ENDBRANCH  21  22
ENDBRANCH   4  21
BRANCH  10  25
HETATM   25  O   UNL     1     -10.454  16.418  66.926  1.00  0.00    -0.302 OA 
BRANCH  25  26
HETATM   26  C   UNL     1     -10.715  17.184  65.825  1.00  0.00    -0.138 C  
HETATM   27  C   UNL     1     -10.491  18.632  66.130  1.00  0.00    -0.473 C  
HETATM   28  O   UNL     1     -11.014  16.764  64.714  1.00  0.00    -0.732 OA 
ENDBRANCH  25  26
ENDBRANCH  10  25
TORSDOF 5
ENDMDL
MODEL       40
REMARK 921   NORMALIZED FREE ENERGY PREDICTED BY IDOCK:   -4.72 KCAL/MOL
REMARK 922        TOTAL FREE ENERGY PREDICTED BY IDOCK:   -5.94 KCAL/MOL
REMARK 923 INTER-LIGAND FREE ENERGY PREDICTED BY IDOCK:   -5.81 KCAL/MOL
REMARK 924 INTRA-LIGAND FREE ENERGY PREDICTED BY IDOCK:   -0.13 KCAL/MOL
REMARK 927      BINDING AFFINITY PREDICTED BY RF-SCORE:    0.00 PKD
ROOT
HETATM    1  C   UNL     1      -8.142  10.355  68.107  1.00  0.00    -0.111 C  
HETATM    2  C   UNL     1      -8.832  10.583  69.322  1.00  0.00    -0.135 C  
HETATM    3  C   UNL     1      -9.670  10.499  68.100  1.00  0.00    -0.166 C  
HETATM    4  C   UNL     1      -8.722   9.831  66.390  1.00  0.00    -0.131 C  
HETATM    5  C   UNL     1      -8.017  11.954  67.194  1.00  0.00    -0.172 C  
HETATM    6  C   UNL     1      -9.336  16.070  66.866  1.00  0.00    -0.246 C  
HETATM    7  C   UNL     1      -9.477   9.159  67.317  1.00  0.00    -0.187 C  
HETATM    8  C   UNL     1      -9.680   7.741  67.767  1.00  0.00    -0.186 C  
HETATM    9  C   UNL     1     -10.970   9.941  66.484  1.00  0.00     0.148 C  
HETATM   10  C   UNL     1     -10.602  16.499  66.149  1.00  0.00    -0.236 C  
HETATM   11  C   UNL     1      -7.395  13.079  68.062  1.00  0.00    -0.123 C  
HETATM   12  C   UNL     1     -10.566  11.468  65.851  1.00  0.00    -0.318 C  
HETATM   13  C   UNL     1      -7.442  14.506  67.458  1.00  0.00    -0.216 C  
HETATM   14  C   UNL     1      -8.704  14.887  66.694  1.00  0.00    -0.262 C  
HETATM   15  C   UNL     1      -9.440  12.510  66.549  1.00  0.00    -0.240 C  
HETATM   16  C   UNL     1      -9.247  13.825  65.745  1.00  0.00     0.275 C  
HETATM   17  C   UNL     1     -10.632  14.187  65.180  1.00  0.00    -0.414 C  
HETATM   18  C   UNL     1     -10.915  15.636  64.928  1.00  0.00    -0.447 C  
ENDROOT
BRANCH   4  19
HETATM   19  C   UNL     1      -7.371   9.019  66.342  1.00  0.00    -0.088 C  
HETATM   20  C   UNL     1      -6.313   8.444  66.369  1.00  0.00    -0.057 C  
ENDBRANCH   4  19
BRANCH   4  21
HETATM   21  O   UNL     1      -9.312   9.304  65.141  1.00  0.00    -0.240 OA 
BRANCH  21  22
HETATM   22  C   UNL     1      -8.682   9.471  63.955  1.00  0.00    -0.216 C  
HETATM   23  O   UNL     1      -8.401  10.549  63.449  1.00  0.00    -0.165 OA 
HETATM   24  C   UNL     1      -8.532   8.135  63.266  1.00  0.00     0.088 C  
ENDBRANCH  21  22
ENDBRANCH   4  21
BRANCH  10  25
HETATM   25  O   UNL     1     -10.459  17.854  65.686  1.00  0.00    -0.610 OA 
BRANCH  25  26
HETATM   26  C   UNL     1     -10.370  18.783  66.684  1.00  0.00    -0.420 C  
HETATM   27  C   UNL     1      -9.810  20.066  66.154  1.00  0.00    -0.553 C  
HETATM   28  O   UNL     1     -10.761  18.639  67.835  1.00  0.00    -0.383 OA 
ENDBRANCH  25  26
ENDBRANCH  10  25
TORSDOF 5
ENDMDL
MODEL       41
REMARK 921   NORMALIZED FREE ENERGY PREDICTED BY IDOCK:   -4.61 KCAL/MOL
REMARK 922        TOTAL FREE ENERGY PREDICTED BY IDOCK:   -5.80 KCAL/MOL
REMARK 923 INTER-LIGAND FREE ENERGY PREDICTED BY IDOCK:   -5.58 KCAL/MOL
REMARK 924 INTRA-LIGAND FREE ENERGY PREDICTED BY IDOCK:   -0.23 KCAL/MOL
REMARK 927      BINDING AFFINITY PREDICTED BY RF-SCORE:    0.00 PKD
ROOT
HETATM    1  C   UNL     1      -7.905   8.322  70.525  1.00  0.00    -0.087 C  
HETATM    2  C   UNL     1      -7.726   9.008  71.751  1.00  0.00     0.083 C  
HETATM    3  C   UNL     1      -9.119   8.922  71.247  1.00  0.00    -0.323 C  
HETATM    4  C   UNL     1      -9.435   7.641  69.657  1.00  0.00    -0.156 C  
HETATM    5  C   UNL     1      -8.127   9.568  69.182  1.00  0.00    -0.103 C  
HETATM    6  C   UNL     1      -8.844  13.717  68.149  1.00  0.00    -0.185 C  
HETATM    7  C   UNL     1      -9.592   7.451  71.006  1.00  0.00    -0.161 C  
HETATM    8  C   UNL     1      -9.678   6.296  71.961  1.00  0.00    -0.164 C  
HETATM    9  C   UNL     1     -11.174   8.452  70.837  1.00  0.00    -0.294 C  
HETATM   10  C   UNL     1     -10.222  14.346  68.080  1.00  0.00    -0.232 C  
HETATM   11  C   UNL     1      -6.977  10.610  69.151  1.00  0.00    -0.085 C  
HETATM   12  C   UNL     1     -11.018   9.606  69.597  1.00  0.00    -0.253 C  
HETATM   13  C   UNL     1      -7.180  11.816  68.199  1.00  0.00    -0.086 C  
HETATM   14  C   UNL     1      -8.589  12.389  68.108  1.00  0.00    -0.185 C  
HETATM   15  C   UNL     1      -9.573  10.379  69.205  1.00  0.00    -0.226 C  
HETATM   16  C   UNL     1      -9.713  11.365  68.012  1.00  0.00    -0.190 C  
HETATM   17  C   UNL     1     -11.108  12.002  68.147  1.00  0.00    -0.294 C  
HETATM   18  C   UNL     1     -11.295  13.377  67.584  1.00  0.00    -0.321 C  
ENDROOT
BRANCH   4  19
HETATM   19  C   UNL     1      -8.481   6.465  69.216  1.00  0.00    -0.126 C  
HETATM   20  C   UNL     1      -7.700   5.593  68.937  1.00  0.00    -0.089 C  
ENDBRANCH   4  19
BRANCH   4  21
HETATM   21  O   UNL     1     -10.702   7.062  69.162  1.00  0.00    -0.219 OA 
BRANCH  21  22
HETATM   22  C   UNL     1     -10.797   6.587  67.899  1.00  0.00    -0.304 C  
HETATM   23  O   UNL     1     -10.899   5.407  67.593  1.00  0.00    -0.127 OA 
HETATM   24  C   UNL     1     -10.587   7.713  66.914  1.00  0.00    -0.359 C  
ENDBRANCH  21  22
ENDBRANCH   4  21
BRANCH  10  25
HETATM   25  O   UNL     1     -10.200  15.458  67.167  1.00  0.00    -0.244 OA 
BRANCH  25  26
HETATM   26  C   UNL     1     -10.169  16.683  67.772  1.00  0.00    -0.292 C  
HETATM   27  C   UNL     1      -9.018  17.490  67.257  1.00  0.00    -0.238 C  
HETATM   28  O   UNL     1     -10.997  17.112  68.564  1.00  0.00    -0.317 OA 
ENDBRANCH  25  26
ENDBRANCH  10  25
TORSDOF 5
ENDMDL
MODEL       42
REMARK 921   NORMALIZED FREE ENERGY PREDICTED BY IDOCK:   -4.57 KCAL/MOL
REMARK 922        TOTAL FREE ENERGY PREDICTED BY IDOCK:   -5.75 KCAL/MOL
REMARK 923 INTER-LIGAND FREE ENERGY PREDICTED BY IDOCK:   -5.95 KCAL/MOL
REMARK 924 INTRA-LIGAND FREE ENERGY PREDICTED BY IDOCK:    0.20 KCAL/MOL
REMARK 927      BINDING AFFINITY PREDICTED BY RF-SCORE:    0.00 PKD
ROOT
HETATM    1  C   UNL     1      -8.413  11.445  66.494  1.00  0.00    -0.170 C  
HETATM    2  C   UNL     1      -7.845  12.410  67.361  1.00  0.00    -0.174 C  
HETATM    3  C   UNL     1      -7.454  10.999  67.606  1.00  0.00    -0.096 C  
HETATM    4  C   UNL     1      -7.996   9.637  66.150  1.00  0.00    -0.108 C  
HETATM    5  C   UNL     1      -9.789  10.595  67.382  1.00  0.00    -0.198 C  
HETATM    6  C   UNL     1     -11.784   9.874  71.163  1.00  0.00    -0.478 C  
HETATM    7  C   UNL     1      -6.820  10.313  66.351  1.00  0.00    -0.106 C  
HETATM    8  C   UNL     1      -5.609  10.697  65.551  1.00  0.00    -0.135 C  
HETATM    9  C   UNL     1      -6.493   9.083  67.733  1.00  0.00    -0.057 C  
HETATM   10  C   UNL     1     -11.347   8.821  72.163  1.00  0.00    -0.341 C  
HETATM   11  C   UNL     1     -10.823  11.597  67.961  1.00  0.00    -0.259 C  
HETATM   12  C   UNL     1      -7.957   8.581  68.442  1.00  0.00    -0.118 C  
HETATM   13  C   UNL     1     -11.898  10.994  68.901  1.00  0.00    -0.378 C  
HETATM   14  C   UNL     1     -11.440   9.898  69.855  1.00  0.00    -0.234 C  
HETATM   15  C   UNL     1      -9.317   9.565  68.593  1.00  0.00    -0.142 C  
HETATM   16  C   UNL     1     -10.522   8.841  69.253  1.00  0.00    -0.228 C  
HETATM   17  C   UNL     1      -9.926   7.901  70.315  1.00  0.00    -0.189 C  
HETATM   18  C   UNL     1     -10.781   7.567  71.498  1.00  0.00    -0.242 C  
ENDROOT
BRANCH   4  19
HETATM   19  C   UNL     1      -8.383   9.985  64.660  1.00  0.00    -0.167 C  
HETATM   20  C   UNL     1      -8.698  10.171  63.514  1.00  0.00    -0.221 C  
ENDBRANCH   4  19
BRANCH   4  21
HETATM   21  O   UNL     1      -7.476   8.276  65.905  1.00  0.00    -0.078 OA 
BRANCH  21  22
HETATM   22  C   UNL     1      -8.301   7.283  65.500  1.00  0.00    -0.133 C  
HETATM   23  O   UNL     1      -9.318   6.928  66.080  1.00  0.00    -0.139 OA 
HETATM   24  C   UNL     1      -7.691   6.562  64.322  1.00  0.00    -0.105 C  
ENDBRANCH  21  22
ENDBRANCH   4  21
BRANCH  10  25
HETATM   25  O   UNL     1     -12.476   8.409  72.954  1.00  0.00    -0.248 OA 
BRANCH  25  26
HETATM   26  C   UNL     1     -13.686   8.597  72.350  1.00  0.00    -0.356 C  
HETATM   27  C   UNL     1     -14.087   7.373  71.588  1.00  0.00    -0.552 C  
HETATM   28  O   UNL     1     -14.398   9.587  72.464  1.00  0.00    -0.299 OA 
ENDBRANCH  25  26
ENDBRANCH  10  25
TORSDOF 5
ENDMDL
MODEL       43
REMARK 921   NORMALIZED FREE ENERGY PREDICTED BY IDOCK:   -4.56 KCAL/MOL
REMARK 922        TOTAL FREE ENERGY PREDICTED BY IDOCK:   -5.73 KCAL/MOL
REMARK 923 INTER-LIGAND FREE ENERGY PREDICTED BY IDOCK:   -5.60 KCAL/MOL
REMARK 924 INTRA-LIGAND FREE ENERGY PREDICTED BY IDOCK:   -0.13 KCAL/MOL
REMARK 927      BINDING AFFINITY PREDICTED BY RF-SCORE:    0.00 PKD
ROOT
HETATM    1  C   UNL     1      -8.457   4.932  68.849  1.00  0.00    -0.086 C  
HETATM    2  C   UNL     1      -9.452   4.286  69.622  1.00  0.00    -0.258 C  
HETATM    3  C   UNL     1      -9.921   4.965  68.388  1.00  0.00    -0.183 C  
HETATM    4  C   UNL     1      -8.449   5.607  67.087  1.00  0.00    -0.110 C  
HETATM    5  C   UNL     1      -8.549   6.747  69.171  1.00  0.00    -0.131 C  
HETATM    6  C   UNL     1     -10.801  10.029  70.889  1.00  0.00    -0.276 C  
HETATM    7  C   UNL     1      -9.196   4.457  67.098  1.00  0.00    -0.157 C  
HETATM    8  C   UNL     1      -9.115   3.074  66.519  1.00  0.00    -0.163 C  
HETATM    9  C   UNL     1     -10.601   5.510  66.425  1.00  0.00    -0.291 C  
HETATM   10  C   UNL     1     -11.926  10.750  70.172  1.00  0.00    -0.349 C  
HETATM   11  C   UNL     1      -8.476   7.080  70.684  1.00  0.00    -0.139 C  
HETATM   12  C   UNL     1     -10.480   7.105  67.007  1.00  0.00    -0.392 C  
HETATM   13  C   UNL     1      -8.756   8.556  71.068  1.00  0.00    -0.209 C  
HETATM   14  C   UNL     1      -9.854   9.270  70.291  1.00  0.00    -0.265 C  
HETATM   15  C   UNL     1      -9.872   7.510  68.526  1.00  0.00    -0.170 C  
HETATM   16  C   UNL     1      -9.851   9.043  68.784  1.00  0.00    -0.180 C  
HETATM   17  C   UNL     1     -11.106   9.608  68.097  1.00  0.00    -0.109 C  
HETATM   18  C   UNL     1     -11.697  10.861  68.665  1.00  0.00    -0.334 C  
ENDROOT
BRANCH   4  19
HETATM   19  C   UNL     1      -6.959   5.091  67.053  1.00  0.00    -0.064 C  
HETATM   20  C   UNL     1      -5.844   4.638  67.079  1.00  0.00    -0.022 C  
ENDBRANCH   4  19
BRANCH   4  21
HETATM   21  O   UNL     1      -8.562   5.977  65.661  1.00  0.00    -0.150 OA 
BRANCH  21  22
HETATM   22  C   UNL     1      -7.705   6.868  65.108  1.00  0.00    -0.109 C  
HETATM   23  O   UNL     1      -7.365   7.929  65.613  1.00  0.00    -0.075 OA 
HETATM   24  C   UNL     1      -7.366   6.440  63.700  1.00  0.00    -0.073 C  
ENDBRANCH  21  22
ENDBRANCH   4  21
BRANCH  10  25
HETATM   25  O   UNL     1     -12.044  12.090  70.684  1.00  0.00    -0.373 OA 
BRANCH  25  26
HETATM   26  C   UNL     1     -13.016  12.248  71.631  1.00  0.00    -0.311 C  
HETATM   27  C   UNL     1     -13.637  10.928  71.969  1.00  0.00    -0.152 C  
HETATM   28  O   UNL     1     -13.302  13.296  72.196  1.00  0.00    -0.467 OA 
ENDBRANCH  25  26
ENDBRANCH  10  25
TORSDOF 5
ENDMDL
MODEL       44
REMARK 921   NORMALIZED FREE ENERGY PREDICTED BY IDOCK:   -4.51 KCAL/MOL
REMARK 922        TOTAL FREE ENERGY PREDICTED BY IDOCK:   -5.67 KCAL/MOL
REMARK 923 INTER-LIGAND FREE ENERGY PREDICTED BY IDOCK:   -5.32 KCAL/MOL
REMARK 924 INTRA-LIGAND FREE ENERGY PREDICTED BY IDOCK:   -0.34 KCAL/MOL
REMARK 927      BINDING AFFINITY PREDICTED BY RF-SCORE:    0.00 PKD
ROOT
HETATM    1  C   UNL     1      -8.064   8.460  66.181  1.00  0.00    -0.106 C  
HETATM    2  C   UNL     1      -8.961   7.494  65.664  1.00  0.00    -0.012 C  
HETATM    3  C   UNL     1      -9.577   8.672  66.323  1.00  0.00    -0.322 C  
HETATM    4  C   UNL     1      -8.303  10.236  66.770  1.00  0.00    -0.124 C  
HETATM    5  C   UNL     1      -7.954   8.239  68.010  1.00  0.00    -0.123 C  
HETATM    6  C   UNL     1      -9.608   6.375  71.557  1.00  0.00    -0.169 C  
HETATM    7  C   UNL     1      -9.127  10.031  65.693  1.00  0.00    -0.222 C  
HETATM    8  C   UNL     1      -9.257  10.529  64.283  1.00  0.00    -0.281 C  
HETATM    9  C   UNL     1     -10.536  10.525  66.835  1.00  0.00    -0.303 C  
HETATM   10  C   UNL     1     -10.778   6.938  72.342  1.00  0.00    -0.226 C  
HETATM   11  C   UNL     1      -7.597   6.781  68.406  1.00  0.00    -0.104 C  
HETATM   12  C   UNL     1     -10.190  10.070  68.438  1.00  0.00    -0.196 C  
HETATM   13  C   UNL     1      -7.688   6.447  69.917  1.00  0.00    -0.109 C  
HETATM   14  C   UNL     1      -8.841   7.074  70.690  1.00  0.00    -0.150 C  
HETATM   15  C   UNL     1      -9.302   8.700  68.858  1.00  0.00    -0.145 C  
HETATM   16  C   UNL     1      -9.113   8.544  70.392  1.00  0.00    -0.164 C  
HETATM   17  C   UNL     1     -10.418   9.046  71.036  1.00  0.00    -0.339 C  
HETATM   18  C   UNL     1     -10.801   8.466  72.362  1.00  0.00    -0.416 C  
ENDROOT
BRANCH   4  19
HETATM   19  C   UNL     1      -6.887  10.486  66.121  1.00  0.00    -0.131 C  
HETATM   20  C   UNL     1      -5.805  10.748  65.664  1.00  0.00    -0.121 C  
ENDBRANCH   4  19
BRANCH   4  21
HETATM   21  O   UNL     1      -8.627  11.644  67.081  1.00  0.00    -0.151 OA 
BRANCH  21  22
HETATM   22  C   UNL     1      -7.899  12.336  67.989  1.00  0.00    -0.147 C  
HETATM   23  O   UNL     1      -7.484  11.891  69.050  1.00  0.00    -0.093 OA 
HETATM   24  C   UNL     1      -7.822  13.788  67.578  1.00  0.00    -0.189 C  
ENDBRANCH  21  22
ENDBRANCH   4  21
BRANCH  10  25
HETATM   25  O   UNL     1     -10.698   6.497  73.709  1.00  0.00    -0.283 OA 
BRANCH  25  26
HETATM   26  C   UNL     1     -10.704   5.139  73.865  1.00  0.00    -0.290 C  
HETATM   27  C   UNL     1      -9.448   4.685  74.541  1.00  0.00    -0.141 C  
HETATM   28  O   UNL     1     -11.627   4.389  73.574  1.00  0.00    -0.268 OA 
ENDBRANCH  25  26
ENDBRANCH  10  25
TORSDOF 5
ENDMDL
MODEL       45
REMARK 921   NORMALIZED FREE ENERGY PREDICTED BY IDOCK:   -4.51 KCAL/MOL
REMARK 922        TOTAL FREE ENERGY PREDICTED BY IDOCK:   -5.66 KCAL/MOL
REMARK 923 INTER-LIGAND FREE ENERGY PREDICTED BY IDOCK:   -5.55 KCAL/MOL
REMARK 924 INTRA-LIGAND FREE ENERGY PREDICTED BY IDOCK:   -0.12 KCAL/MOL
REMARK 927      BINDING AFFINITY PREDICTED BY RF-SCORE:    0.00 PKD
ROOT
HETATM    1  C   UNL     1      -8.350  17.512  69.117  1.00  0.00     0.078 C  
HETATM    2  C   UNL     1      -7.145  16.916  69.563  1.00  0.00    -0.016 C  
HETATM    3  C   UNL     1      -7.344  16.970  68.093  1.00  0.00    -0.192 C  
HETATM    4  C   UNL     1      -8.918  18.132  67.428  1.00  0.00    -0.256 C  
HETATM    5  C   UNL     1      -9.522  16.172  68.629  1.00  0.00    -0.227 C  
HETATM    6  C   UNL     1     -10.078  11.961  67.761  1.00  0.00    -0.200 C  
HETATM    7  C   UNL     1      -7.584  18.421  67.560  1.00  0.00    -0.226 C  
HETATM    8  C   UNL     1      -6.717  19.642  67.666  1.00  0.00    -0.262 C  
HETATM    9  C   UNL     1      -7.337  17.415  65.992  1.00  0.00    -0.265 C  
HETATM   10  C   UNL     1      -9.805  11.333  66.408  1.00  0.00    -0.211 C  
HETATM   11  C   UNL     1      -9.723  15.128  69.759  1.00  0.00    -0.093 C  
HETATM   12  C   UNL     1      -8.496  16.173  65.894  1.00  0.00     0.068 C  
HETATM   13  C   UNL     1     -10.522  13.856  69.372  1.00  0.00     0.092 C  
HETATM   14  C   UNL     1     -10.267  13.282  67.984  1.00  0.00    -0.240 C  
HETATM   15  C   UNL     1      -9.132  15.369  67.232  1.00  0.00    -0.218 C  
HETATM   16  C   UNL     1     -10.193  14.300  66.852  1.00  0.00    -0.266 C  
HETATM   17  C   UNL     1      -9.718  13.678  65.527  1.00  0.00    -0.086 C  
HETATM   18  C   UNL     1     -10.128  12.267  65.242  1.00  0.00    -0.295 C  
ENDROOT
BRANCH   4  19
HETATM   19  C   UNL     1      -9.635  19.271  68.251  1.00  0.00    -0.438 C  
HETATM   20  C   UNL     1     -10.178  20.091  68.944  1.00  0.00    -0.348 C  
ENDBRANCH   4  19
BRANCH   4  21
HETATM   21  O   UNL     1      -9.170  18.677  66.078  1.00  0.00    -0.484 OA 
BRANCH  21  22
HETATM   22  C   UNL     1     -10.432  18.793  65.604  1.00  0.00    -0.132 C  
HETATM   23  O   UNL     1     -11.161  17.859  65.297  1.00  0.00    -0.435 OA 
HETATM   24  C   UNL     1     -10.747  20.247  65.346  1.00  0.00     0.010 C  
ENDBRANCH  21  22
ENDBRANCH   4  21
BRANCH  10  25
HETATM   25  O   UNL     1     -10.620  10.158  66.248  1.00  0.00    -0.156 OA 
BRANCH  25  26
HETATM   26  C   UNL     1      -9.961   8.981  66.470  1.00  0.00    -0.285 C  
HETATM   27  C   UNL     1     -10.639   8.198  67.551  1.00  0.00    -0.291 C  
HETATM   28  O   UNL     1      -8.999   8.568  65.835  1.00  0.00    -0.173 OA 
ENDBRANCH  25  26
ENDBRANCH  10  25
TORSDOF 5
ENDMDL
MODEL       46
REMARK 921   NORMALIZED FREE ENERGY PREDICTED BY IDOCK:   -4.50 KCAL/MOL
REMARK 922        TOTAL FREE ENERGY PREDICTED BY IDOCK:   -5.66 KCAL/MOL
REMARK 923 INTER-LIGAND FREE ENERGY PREDICTED BY IDOCK:   -5.79 KCAL/MOL
REMARK 924 INTRA-LIGAND FREE ENERGY PREDICTED BY IDOCK:    0.13 KCAL/MOL
REMARK 927      BINDING AFFINITY PREDICTED BY RF-SCORE:    0.00 PKD
ROOT
HETATM    1  C   UNL     1     -12.101  13.249  66.796  1.00  0.00    -0.403 C  
HETATM    2  C   UNL     1     -13.019  14.004  66.026  1.00  0.00    -0.101 C  
HETATM    3  C   UNL     1     -11.630  13.935  65.507  1.00  0.00    -0.332 C  
HETATM    4  C   UNL     1     -10.381  12.569  66.426  1.00  0.00    -0.243 C  
HETATM    5  C   UNL     1     -11.049  14.416  67.765  1.00  0.00    -0.299 C  
HETATM    6  C   UNL     1      -9.777  18.514  68.383  1.00  0.00    -0.395 C  
HETATM    7  C   UNL     1     -11.133  12.469  65.283  1.00  0.00    -0.332 C  
HETATM    8  C   UNL     1     -11.699  11.380  64.418  1.00  0.00     0.002 C  
HETATM    9  C   UNL     1      -9.801  13.512  64.463  1.00  0.00     0.181 C  
HETATM   10  C   UNL     1      -8.670  19.185  67.593  1.00  0.00    -0.296 C  
HETATM   11  C   UNL     1     -11.894  15.412  68.602  1.00  0.00    -0.317 C  
HETATM   12  C   UNL     1      -9.105  14.581  65.590  1.00  0.00     0.513 C  
HETATM   13  C   UNL     1     -11.108  16.563  69.282  1.00  0.00    -0.260 C  
HETATM   14  C   UNL     1      -9.964  17.178  68.485  1.00  0.00    -0.309 C  
HETATM   15  C   UNL     1      -9.947  15.276  66.874  1.00  0.00    -0.243 C  
HETATM   16  C   UNL     1      -9.057  16.189  67.762  1.00  0.00    -0.197 C  
HETATM   17  C   UNL     1      -8.069  16.882  66.807  1.00  0.00    -0.276 C  
HETATM   18  C   UNL     1      -7.544  18.224  67.213  1.00  0.00    -0.226 C  
ENDROOT
BRANCH   4  19
HETATM   19  C   UNL     1     -10.843  11.335  67.292  1.00  0.00    -0.317 C  
HETATM   20  C   UNL     1     -11.129  10.405  68.001  1.00  0.00    -0.359 C  
ENDBRANCH   4  19
BRANCH   4  21
HETATM   21  O   UNL     1      -9.102  12.005  65.946  1.00  0.00    -0.164 OA 
BRANCH  21  22
HETATM   22  C   UNL     1      -8.131  11.653  66.821  1.00  0.00    -0.150 C  
HETATM   23  O   UNL     1      -7.722  12.347  67.741  1.00  0.00    -0.116 OA 
HETATM   24  C   UNL     1      -7.506  10.347  66.389  1.00  0.00    -0.120 C  
ENDBRANCH  21  22
ENDBRANCH   4  21
BRANCH  10  25
HETATM   25  O   UNL     1      -8.084  20.236  68.381  1.00  0.00    -0.101 OA 
BRANCH  25  26
HETATM   26  C   UNL     1      -6.826  19.961  68.840  1.00  0.00    -0.324 C  
HETATM   27  C   UNL     1      -5.818  20.826  68.149  1.00  0.00    -0.358 C  
HETATM   28  O   UNL     1      -6.546  19.182  69.742  1.00  0.00    -0.251 OA 
ENDBRANCH  25  26
ENDBRANCH  10  25
TORSDOF 5
ENDMDL
MODEL       47
REMARK 921   NORMALIZED FREE ENERGY PREDICTED BY IDOCK:   -4.50 KCAL/MOL
REMARK 922        TOTAL FREE ENERGY PREDICTED BY IDOCK:   -5.65 KCAL/MOL
REMARK 923 INTER-LIGAND FREE ENERGY PREDICTED BY IDOCK:   -5.32 KCAL/MOL
REMARK 924 INTRA-LIGAND FREE ENERGY PREDICTED BY IDOCK:   -0.34 KCAL/MOL
REMARK 927      BINDING AFFINITY PREDICTED BY RF-SCORE:    0.00 PKD
ROOT
HETATM    1  C   UNL     1      -8.018   9.307  69.129  1.00  0.00    -0.097 C  
HETATM    2  C   UNL     1      -8.815   9.674  70.240  1.00  0.00    -0.253 C  
HETATM    3  C   UNL     1      -9.540   9.425  68.969  1.00  0.00    -0.164 C  
HETATM    4  C   UNL     1      -8.440   8.563  67.447  1.00  0.00    -0.127 C  
HETATM    5  C   UNL     1      -7.819  10.781  68.036  1.00  0.00    -0.106 C  
HETATM    6  C   UNL     1      -9.122  14.803  67.076  1.00  0.00    -0.257 C  
HETATM    7  C   UNL     1      -9.272   8.001  68.381  1.00  0.00    -0.135 C  
HETATM    8  C   UNL     1      -9.508   6.648  68.987  1.00  0.00    -0.131 C  
HETATM    9  C   UNL     1     -10.688   8.649  67.328  1.00  0.00    -0.209 C  
HETATM   10  C   UNL     1     -10.321  15.118  66.202  1.00  0.00    -0.301 C  
HETATM   11  C   UNL     1      -7.283  12.016  68.807  1.00  0.00    -0.108 C  
HETATM   12  C   UNL     1     -10.235  10.090  66.546  1.00  0.00    -0.291 C  
HETATM   13  C   UNL     1      -7.282  13.355  68.026  1.00  0.00    -0.123 C  
HETATM   14  C   UNL     1      -8.472  13.617  67.111  1.00  0.00    -0.186 C  
HETATM   15  C   UNL     1      -9.181  11.229  67.203  1.00  0.00    -0.169 C  
HETATM   16  C   UNL     1      -8.922  12.436  66.260  1.00  0.00    -0.041 C  
HETATM   17  C   UNL     1     -10.253  12.703  65.534  1.00  0.00    -0.298 C  
HETATM   18  C   UNL     1     -10.519  14.104  65.076  1.00  0.00    -0.447 C  
ENDROOT
BRANCH   4  19
HETATM   19  C   UNL     1      -7.086   7.773  67.622  1.00  0.00    -0.083 C  
HETATM   20  C   UNL     1      -6.082   7.141  67.826  1.00  0.00    -0.034 C  
ENDBRANCH   4  19
BRANCH   4  21
HETATM   21  O   UNL     1      -8.913   7.874  66.228  1.00  0.00    -0.156 OA 
BRANCH  21  22
HETATM   22  C   UNL     1      -8.165   7.873  65.101  1.00  0.00    -0.141 C  
HETATM   23  O   UNL     1      -7.776   8.871  64.509  1.00  0.00    -0.108 OA 
HETATM   24  C   UNL     1      -8.025   6.461  64.584  1.00  0.00    -0.118 C  
ENDBRANCH  21  22
ENDBRANCH   4  21
BRANCH  10  25
HETATM   25  O   UNL     1     -10.143  16.406  65.586  1.00  0.00    -0.453 OA 
BRANCH  25  26
HETATM   26  C   UNL     1      -9.964  17.433  66.469  1.00  0.00    -0.311 C  
HETATM   27  C   UNL     1      -8.712  18.188  66.147  1.00  0.00    -0.116 C  
HETATM   28  O   UNL     1     -10.742  17.759  67.356  1.00  0.00    -0.357 OA 
ENDBRANCH  25  26
ENDBRANCH  10  25
TORSDOF 5
ENDMDL
MODEL       48
REMARK 921   NORMALIZED FREE ENERGY PREDICTED BY IDOCK:   -4.48 KCAL/MOL
REMARK 922        TOTAL FREE ENERGY PREDICTED BY IDOCK:   -5.63 KCAL/MOL
REMARK 923 INTER-LIGAND FREE ENERGY PREDICTED BY IDOCK:   -5.74 KCAL/MOL
REMARK 924 INTRA-LIGAND FREE ENERGY PREDICTED BY IDOCK:    0.12 KCAL/MOL
REMARK 927      BINDING AFFINITY PREDICTED BY RF-SCORE:    0.00 PKD
ROOT
HETATM    1  C   UNL     1     -11.481  16.294  67.879  1.00  0.00    -0.056 C  
HETATM    2  C   UNL     1     -12.181  15.749  68.984  1.00  0.00    -0.050 C  
HETATM    3  C   UNL     1     -10.707  15.579  68.995  1.00  0.00    -0.243 C  
HETATM    4  C   UNL     1      -9.654  16.657  67.581  1.00  0.00    -0.239 C  
HETATM    5  C   UNL     1     -11.036  14.920  66.731  1.00  0.00    -0.335 C  
HETATM    6  C   UNL     1     -10.739  10.638  66.121  1.00  0.00    -0.146 C  
HETATM    7  C   UNL     1      -9.933  16.935  68.895  1.00  0.00    -0.279 C  
HETATM    8  C   UNL     1      -9.979  18.139  69.790  1.00  0.00     0.579 C  
HETATM    9  C   UNL     1      -8.586  15.693  69.314  1.00  0.00    -0.262 C  
HETATM   10  C   UNL     1      -9.549   9.802  66.553  1.00  0.00    -0.194 C  
HETATM   11  C   UNL     1     -12.269  14.067  66.329  1.00  0.00    -0.493 C  
HETATM   12  C   UNL     1      -8.509  14.475  68.128  1.00  0.00    -0.157 C  
HETATM   13  C   UNL     1     -11.966  12.768  65.539  1.00  0.00    -0.497 C  
HETATM   14  C   UNL     1     -10.731  11.981  65.959  1.00  0.00    -0.317 C  
HETATM   15  C   UNL     1      -9.847  13.902  67.277  1.00  0.00    -0.244 C  
HETATM   16  C   UNL     1      -9.482  12.810  66.234  1.00  0.00    -0.198 C  
HETATM   17  C   UNL     1      -8.349  11.981  66.863  1.00  0.00    -0.159 C  
HETATM   18  C   UNL     1      -8.222  10.551  66.436  1.00  0.00    -0.140 C  
ENDROOT
BRANCH   4  19
HETATM   19  C   UNL     1     -10.184  17.924  66.805  1.00  0.00    -0.360 C  
HETATM   20  C   UNL     1     -10.660  18.852  66.205  1.00  0.00    -0.476 C  
ENDBRANCH   4  19
BRANCH   4  21
HETATM   21  O   UNL     1      -8.215  16.992  67.544  1.00  0.00    -0.177 OA 
BRANCH  21  22
HETATM   22  C   UNL     1      -7.697  17.699  66.513  1.00  0.00    -0.270 C  
HETATM   23  O   UNL     1      -7.766  17.384  65.333  1.00  0.00    -0.058 OA 
HETATM   24  C   UNL     1      -6.871  18.846  67.048  1.00  0.00    -0.209 C  
ENDBRANCH  21  22
ENDBRANCH   4  21
BRANCH  10  25
HETATM   25  O   UNL     1      -9.452   8.634  65.719  1.00  0.00    -0.206 OA 
BRANCH  25  26
HETATM   26  C   UNL     1      -9.798   7.467  66.341  1.00  0.00    -0.082 C  
HETATM   27  C   UNL     1      -8.795   6.397  66.040  1.00  0.00    -0.160 C  
HETATM   28  O   UNL     1     -10.743   7.315  67.104  1.00  0.00    -0.315 OA 
ENDBRANCH  25  26
ENDBRANCH  10  25
TORSDOF 5
ENDMDL
MODEL       49
REMARK 921   NORMALIZED FREE ENERGY PREDICTED BY IDOCK:   -4.38 KCAL/MOL
REMARK 922        TOTAL FREE ENERGY PREDICTED BY IDOCK:   -5.51 KCAL/MOL
REMARK 923 INTER-LIGAND FREE ENERGY PREDICTED BY IDOCK:   -5.76 KCAL/MOL
REMARK 924 INTRA-LIGAND FREE ENERGY PREDICTED BY IDOCK:    0.25 KCAL/MOL
REMARK 927      BINDING AFFINITY PREDICTED BY RF-SCORE:    0.00 PKD
ROOT
HETATM    1  C   UNL     1      -7.092   7.205  66.982  1.00  0.00    -0.090 C  
HETATM    2  C   UNL     1      -6.070   7.410  67.941  1.00  0.00    -0.035 C  
HETATM    3  C   UNL     1      -6.919   6.208  68.136  1.00  0.00    -0.080 C  
HETATM    4  C   UNL     1      -8.175   5.716  66.571  1.00  0.00    -0.106 C  
HETATM    5  C   UNL     1      -8.701   7.730  67.718  1.00  0.00    -0.123 C  
HETATM    6  C   UNL     1     -10.866   8.873  71.296  1.00  0.00    -0.360 C  
HETATM    7  C   UNL     1      -6.924   5.255  66.896  1.00  0.00    -0.065 C  
HETATM    8  C   UNL     1      -5.785   4.558  66.211  1.00  0.00    -0.022 C  
HETATM    9  C   UNL     1      -7.779   4.242  68.229  1.00  0.00    -0.075 C  
HETATM   10  C   UNL     1     -11.480   7.883  72.266  1.00  0.00    -0.348 C  
HETATM   11  C   UNL     1      -8.649   9.178  68.273  1.00  0.00    -0.129 C  
HETATM   12  C   UNL     1      -9.161   5.055  68.799  1.00  0.00    -0.160 C  
HETATM   13  C   UNL     1      -9.881   9.633  69.097  1.00  0.00    -0.189 C  
HETATM   14  C   UNL     1     -10.510   8.598  70.020  1.00  0.00    -0.229 C  
HETATM   15  C   UNL     1      -9.293   6.732  68.902  1.00  0.00    -0.129 C  
HETATM   16  C   UNL     1     -10.677   7.203  69.430  1.00  0.00    -0.246 C  
HETATM   17  C   UNL     1     -11.108   6.164  70.481  1.00  0.00    -0.405 C  
HETATM   18  C   UNL     1     -12.016   6.628  71.577  1.00  0.00    -0.402 C  
ENDROOT
BRANCH   4  19
HETATM   19  C   UNL     1      -8.023   6.203  65.079  1.00  0.00    -0.123 C  
HETATM   20  C   UNL     1      -7.880   6.500  63.921  1.00  0.00    -0.109 C  
ENDBRANCH   4  19
BRANCH   4  21
HETATM   21  O   UNL     1      -8.859   4.436  66.291  1.00  0.00    -0.112 OA 
BRANCH  21  22
HETATM   22  C   UNL     1      -9.969   4.401  65.517  1.00  0.00    -0.230 C  
HETATM   23  O   UNL     1     -11.000   5.023  65.731  1.00  0.00    -0.178 OA 
HETATM   24  C   UNL     1      -9.809   3.348  64.446  1.00  0.00    -0.174 C  
ENDBRANCH  21  22
ENDBRANCH   4  21
BRANCH  10  25
HETATM   25  O   UNL     1     -12.588   8.498  72.948  1.00  0.00    -0.266 OA 
BRANCH  25  26
HETATM   26  C   UNL     1     -13.514   9.066  72.119  1.00  0.00    -0.459 C  
HETATM   27  C   UNL     1     -13.268  10.536  71.988  1.00  0.00    -0.483 C  
HETATM   28  O   UNL     1     -14.382   8.466  71.497  1.00  0.00    -0.434 OA 
ENDBRANCH  25  26
ENDBRANCH  10  25
TORSDOF 5
ENDMDL
MODEL       50
REMARK 921   NORMALIZED FREE ENERGY PREDICTED BY IDOCK:   -4.34 KCAL/MOL
REMARK 922        TOTAL FREE ENERGY PREDICTED BY IDOCK:   -5.45 KCAL/MOL
REMARK 923 INTER-LIGAND FREE ENERGY PREDICTED BY IDOCK:   -5.04 KCAL/MOL
REMARK 924 INTRA-LIGAND FREE ENERGY PREDICTED BY IDOCK:   -0.41 KCAL/MOL
REMARK 927      BINDING AFFINITY PREDICTED BY RF-SCORE:    0.00 PKD
ROOT
HETATM    1  C   UNL     1      -9.645  10.284  69.069  1.00  0.00    -0.210 C  
HETATM    2  C   UNL     1      -8.686   9.876  70.028  1.00  0.00    -0.188 C  
HETATM    3  C   UNL     1      -8.205   9.986  68.628  1.00  0.00    -0.111 C  
HETATM    4  C   UNL     1      -9.489  10.903  67.294  1.00  0.00    -0.159 C  
HETATM    5  C   UNL     1     -10.208   8.797  68.132  1.00  0.00    -0.250 C  
HETATM    6  C   UNL     1      -9.544   4.616  67.201  1.00  0.00    -0.197 C  
HETATM    7  C   UNL     1      -8.435  11.405  68.012  1.00  0.00    -0.145 C  
HETATM    8  C   UNL     1      -7.945  12.747  68.474  1.00  0.00    -0.095 C  
HETATM    9  C   UNL     1      -7.330  10.555  66.751  1.00  0.00    -0.114 C  
HETATM   10  C   UNL     1      -8.582   4.128  66.135  1.00  0.00    -0.113 C  
HETATM   11  C   UNL     1     -10.706   7.666  69.069  1.00  0.00    -0.134 C  
HETATM   12  C   UNL     1      -8.075   9.142  66.165  1.00  0.00    -0.107 C  
HETATM   13  C   UNL     1     -11.001   6.303  68.390  1.00  0.00    -0.409 C  
HETATM   14  C   UNL     1     -10.048   5.868  67.284  1.00  0.00    -0.208 C  
HETATM   15  C   UNL     1      -9.092   8.161  67.084  1.00  0.00    -0.163 C  
HETATM   16  C   UNL     1      -9.655   6.952  66.287  1.00  0.00    -0.089 C  
HETATM   17  C   UNL     1      -8.529   6.504  65.338  1.00  0.00    -0.119 C  
HETATM   18  C   UNL     1      -8.505   5.064  64.929  1.00  0.00    -0.147 C  
ENDROOT
BRANCH   4  19
HETATM   19  C   UNL     1     -10.693  11.849  67.673  1.00  0.00    -0.253 C  
HETATM   20  C   UNL     1     -11.636  12.514  68.016  1.00  0.00    -0.395 C  
ENDBRANCH   4  19
BRANCH   4  21
HETATM   21  O   UNL     1      -9.197  11.480  65.965  1.00  0.00    -0.214 OA 
BRANCH  21  22
HETATM   22  C   UNL     1     -10.162  11.559  65.019  1.00  0.00    -0.280 C  
HETATM   23  O   UNL     1     -10.737  10.604  64.513  1.00  0.00    -0.236 OA 
HETATM   24  C   UNL     1     -10.302  12.989  64.554  1.00  0.00    -0.386 C  
ENDBRANCH  21  22
ENDBRANCH   4  21
BRANCH  10  25
HETATM   25  O   UNL     1      -9.010   2.844  65.649  1.00  0.00    -0.135 OA 
BRANCH  25  26
HETATM   26  C   UNL     1      -8.001   2.057  65.171  1.00  0.00    -0.078 C  
HETATM   27  C   UNL     1      -6.945   1.868  66.216  1.00  0.00    -0.043 C  
HETATM   28  O   UNL     1      -7.977   1.506  64.078  1.00  0.00    -0.060 OA 
ENDBRANCH  25  26
ENDBRANCH  10  25
TORSDOF 5
ENDMDL
MODEL       51
REMARK 921   NORMALIZED FREE ENERGY PREDICTED BY IDOCK:   -4.31 KCAL/MOL
REMARK 922        TOTAL FREE ENERGY PREDICTED BY IDOCK:   -5.41 KCAL/MOL
REMARK 923 INTER-LIGAND FREE ENERGY PREDICTED BY IDOCK:   -5.51 KCAL/MOL
REMARK 924 INTRA-LIGAND FREE ENERGY PREDICTED BY IDOCK:    0.10 KCAL/MOL
REMARK 927      BINDING AFFINITY PREDICTED BY RF-SCORE:    0.00 PKD
ROOT
HETATM    1  C   UNL     1     -10.808   7.381  68.332  1.00  0.00    -0.068 C  
HETATM    2  C   UNL     1     -10.469   7.020  67.005  1.00  0.00    -0.386 C  
HETATM    3  C   UNL     1      -9.351   7.051  67.981  1.00  0.00    -0.127 C  
HETATM    4  C   UNL     1      -9.881   7.237  69.969  1.00  0.00    -0.175 C  
HETATM    5  C   UNL     1     -10.312   9.137  68.607  1.00  0.00    -0.233 C  
HETATM    6  C   UNL     1      -8.096  12.565  67.147  1.00  0.00    -0.156 C  
HETATM    7  C   UNL     1      -9.592   6.126  69.218  1.00  0.00    -0.153 C  
HETATM    8  C   UNL     1      -9.841   4.647  69.283  1.00  0.00    -0.260 C  
HETATM    9  C   UNL     1      -7.789   6.629  69.394  1.00  0.00    -0.113 C  
HETATM   10  C   UNL     1      -6.615  12.782  67.391  1.00  0.00    -0.136 C  
HETATM   11  C   UNL     1     -10.901  10.089  67.533  1.00  0.00    -0.326 C  
HETATM   12  C   UNL     1      -7.651   8.321  69.496  1.00  0.00    -0.095 C  
HETATM   13  C   UNL     1     -10.372  11.546  67.555  1.00  0.00    -0.220 C  
HETATM   14  C   UNL     1      -8.891  11.734  67.860  1.00  0.00    -0.165 C  
HETATM   15  C   UNL     1      -8.679   9.401  68.708  1.00  0.00    -0.131 C  
HETATM   16  C   UNL     1      -8.340  10.888  69.001  1.00  0.00    -0.118 C  
HETATM   17  C   UNL     1      -6.806  10.964  69.106  1.00  0.00    -0.086 C  
HETATM   18  C   UNL     1      -6.155  12.265  68.754  1.00  0.00    -0.068 C  
ENDROOT
BRANCH   4  19
HETATM   19  C   UNL     1     -11.302   6.924  70.577  1.00  0.00    -0.374 C  
HETATM   20  C   UNL     1     -12.411   6.760  71.018  1.00  0.00    -0.370 C  
ENDBRANCH   4  19
BRANCH   4  21
HETATM   21  O   UNL     1      -9.082   6.949  71.179  1.00  0.00    -0.150 OA 
BRANCH  21  22
HETATM   22  C   UNL     1      -9.261   7.667  72.312  1.00  0.00    -0.144 C  
HETATM   23  O   UNL     1      -9.258   8.888  72.383  1.00  0.00    -0.362 OA 
HETATM   24  C   UNL     1      -9.292   6.739  73.503  1.00  0.00    -0.179 C  
ENDBRANCH  21  22
ENDBRANCH   4  21
BRANCH  10  25
HETATM   25  O   UNL     1      -6.320  14.189  67.349  1.00  0.00    -0.324 OA 
BRANCH  25  26
HETATM   26  C   UNL     1      -7.277  14.983  67.917  1.00  0.00    -0.149 C  
HETATM   27  C   UNL     1      -8.052  15.705  66.859  1.00  0.00    -0.290 C  
HETATM   28  O   UNL     1      -7.537  15.049  69.111  1.00  0.00    -0.150 OA 
ENDBRANCH  25  26
ENDBRANCH  10  25
TORSDOF 5
ENDMDL
MODEL       52
REMARK 921   NORMALIZED FREE ENERGY PREDICTED BY IDOCK:   -4.27 KCAL/MOL
REMARK 922        TOTAL FREE ENERGY PREDICTED BY IDOCK:   -5.36 KCAL/MOL
REMARK 923 INTER-LIGAND FREE ENERGY PREDICTED BY IDOCK:   -5.44 KCAL/MOL
REMARK 924 INTRA-LIGAND FREE ENERGY PREDICTED BY IDOCK:    0.08 KCAL/MOL
REMARK 927      BINDING AFFINITY PREDICTED BY RF-SCORE:    0.00 PKD
ROOT
HETATM    1  C   UNL     1      -8.761   5.172  69.473  1.00  0.00    -0.113 C  
HETATM    2  C   UNL     1     -10.061   5.033  70.018  1.00  0.00    -0.342 C  
HETATM    3  C   UNL     1      -9.980   5.146  68.540  1.00  0.00    -0.221 C  
HETATM    4  C   UNL     1      -8.089   5.002  67.718  1.00  0.00    -0.098 C  
HETATM    5  C   UNL     1      -8.497   6.943  69.028  1.00  0.00    -0.128 C  
HETATM    6  C   UNL     1     -10.276  10.853  68.444  1.00  0.00    -0.193 C  
HETATM    7  C   UNL     1      -9.065   4.055  67.892  1.00  0.00    -0.176 C  
HETATM    8  C   UNL     1      -9.161   2.558  67.950  1.00  0.00    -0.250 C  
HETATM    9  C   UNL     1      -9.920   4.842  66.415  1.00  0.00    -0.264 C  
HETATM   10  C   UNL     1     -10.941  11.296  67.155  1.00  0.00    -0.291 C  
HETATM   11  C   UNL     1      -8.778   7.896  70.220  1.00  0.00    -0.138 C  
HETATM   12  C   UNL     1      -9.586   6.509  66.352  1.00  0.00    -0.151 C  
HETATM   13  C   UNL     1      -8.789   9.411  69.890  1.00  0.00    -0.212 C  
HETATM   14  C   UNL     1      -9.412   9.818  68.561  1.00  0.00    -0.148 C  
HETATM   15  C   UNL     1      -9.355   7.475  67.714  1.00  0.00    -0.150 C  
HETATM   16  C   UNL     1      -9.036   8.955  67.363  1.00  0.00    -0.147 C  
HETATM   17  C   UNL     1      -9.868   9.286  66.111  1.00  0.00    -0.363 C  
HETATM   18  C   UNL     1     -10.273  10.713  65.910  1.00  0.00    -0.314 C  
ENDROOT
BRANCH   4  19
HETATM   19  C   UNL     1      -6.824   4.377  68.420  1.00  0.00    -0.051 C  
HETATM   20  C   UNL     1      -5.826   3.885  68.882  1.00  0.00    -0.022 C  
ENDBRANCH   4  19
BRANCH   4  21
HETATM   21  O   UNL     1      -7.699   4.720  66.321  1.00  0.00    -0.090 OA 
BRANCH  21  22
HETATM   22  C   UNL     1      -6.722   5.438  65.718  1.00  0.00    -0.053 C  
HETATM   23  O   UNL     1      -6.132   6.387  66.215  1.00  0.00    -0.031 OA 
HETATM   24  C   UNL     1      -6.589   5.005  64.277  1.00  0.00    -0.042 C  
ENDBRANCH  21  22
ENDBRANCH   4  21
BRANCH  10  25
HETATM   25  O   UNL     1     -10.869  12.729  67.043  1.00  0.00    -0.250 OA 
BRANCH  25  26
HETATM   26  C   UNL     1     -11.375  13.229  65.876  1.00  0.00    -0.311 C  
HETATM   27  C   UNL     1     -10.378  14.131  65.218  1.00  0.00    -0.409 C  
HETATM   28  O   UNL     1     -12.454  12.934  65.379  1.00  0.00    -0.480 OA 
ENDBRANCH  25  26
ENDBRANCH  10  25
TORSDOF 5
ENDMDL
MODEL       53
REMARK 921   NORMALIZED FREE ENERGY PREDICTED BY IDOCK:   -4.25 KCAL/MOL
REMARK 922        TOTAL FREE ENERGY PREDICTED BY IDOCK:   -5.34 KCAL/MOL
REMARK 923 INTER-LIGAND FREE ENERGY PREDICTED BY IDOCK:   -5.61 KCAL/MOL
REMARK 924 INTRA-LIGAND FREE ENERGY PREDICTED BY IDOCK:    0.27 KCAL/MOL
REMARK 927      BINDING AFFINITY PREDICTED BY RF-SCORE:    0.00 PKD
ROOT
HETATM    1  C   UNL     1      -9.561   8.855  67.411  1.00  0.00    -0.201 C  
HETATM    2  C   UNL     1     -10.755   8.302  66.886  1.00  0.00    -0.179 C  
HETATM    3  C   UNL     1     -10.493   9.726  66.558  1.00  0.00    -0.212 C  
HETATM    4  C   UNL     1      -8.609  10.436  67.022  1.00  0.00    -0.130 C  
HETATM    5  C   UNL     1      -9.988   9.888  68.879  1.00  0.00    -0.188 C  
HETATM    6  C   UNL     1     -13.109  11.811  71.192  1.00  0.00    -0.145 C  
HETATM    7  C   UNL     1      -9.118   9.947  65.846  1.00  0.00    -0.201 C  
HETATM    8  C   UNL     1      -8.593   9.370  64.563  1.00  0.00    -0.219 C  
HETATM    9  C   UNL     1      -9.974  11.610  65.668  1.00  0.00    -0.274 C  
HETATM   10  C   UNL     1     -13.683  13.177  70.869  1.00  0.00     0.888 C  
HETATM   11  C   UNL     1     -10.825   9.106  69.925  1.00  0.00    -0.242 C  
HETATM   12  C   UNL     1     -10.356  12.250  67.198  1.00  0.00    -0.234 C  
HETATM   13  C   UNL     1     -11.410   9.945  71.090  1.00  0.00    -0.443 C  
HETATM   14  C   UNL     1     -11.925  11.335  70.743  1.00  0.00    -0.383 C  
HETATM   15  C   UNL     1     -10.767  11.310  68.536  1.00  0.00    -0.235 C  
HETATM   16  C   UNL     1     -11.039  12.154  69.812  1.00  0.00     0.042 C  
HETATM   17  C   UNL     1     -11.721  13.447  69.331  1.00  0.00    -0.382 C  
HETATM   18  C   UNL     1     -12.644  14.137  70.289  1.00  0.00    -0.367 C  
ENDROOT
BRANCH   4  19
HETATM   19  C   UNL     1      -7.327   9.553  67.277  1.00  0.00    -0.087 C  
HETATM   20  C   UNL     1      -6.333   8.926  67.536  1.00  0.00    -0.056 C  
ENDBRANCH   4  19
BRANCH   4  21
HETATM   21  O   UNL     1      -7.919  11.644  66.524  1.00  0.00    -0.141 OA 
BRANCH  21  22
HETATM   22  C   UNL     1      -6.887  12.184  67.214  1.00  0.00    -0.149 C  
HETATM   23  O   UNL     1      -5.757  12.357  66.778  1.00  0.00    -0.301 OA 
HETATM   24  C   UNL     1      -7.289  12.384  68.656  1.00  0.00    -0.102 C  
ENDBRANCH  21  22
ENDBRANCH   4  21
BRANCH  10  25
HETATM   25  O   UNL     1     -14.195  13.782  72.069  1.00  0.00    -0.465 OA 
BRANCH  25  26
HETATM   26  C   UNL     1     -13.270  14.494  72.780  1.00  0.00    -0.508 C  
HETATM   27  C   UNL     1     -13.505  15.964  72.618  1.00  0.00    -0.554 C  
HETATM   28  O   UNL     1     -12.413  14.022  73.516  1.00  0.00    -0.137 OA 
ENDBRANCH  25  26
ENDBRANCH  10  25
TORSDOF 5
ENDMDL
MODEL       54
REMARK 921   NORMALIZED FREE ENERGY PREDICTED BY IDOCK:   -4.19 KCAL/MOL
REMARK 922        TOTAL FREE ENERGY PREDICTED BY IDOCK:   -5.25 KCAL/MOL
REMARK 923 INTER-LIGAND FREE ENERGY PREDICTED BY IDOCK:   -5.74 KCAL/MOL
REMARK 924 INTRA-LIGAND FREE ENERGY PREDICTED BY IDOCK:    0.49 KCAL/MOL
REMARK 927      BINDING AFFINITY PREDICTED BY RF-SCORE:    0.00 PKD
ROOT
HETATM    1  C   UNL     1      -9.832  15.784  65.467  1.00  0.00    -0.300 C  
HETATM    2  C   UNL     1     -11.015  15.608  64.710  1.00  0.00    -0.418 C  
HETATM    3  C   UNL     1     -11.193  16.108  66.096  1.00  0.00     0.225 C  
HETATM    4  C   UNL     1      -9.473  16.690  67.082  1.00  0.00    -0.230 C  
HETATM    5  C   UNL     1      -9.664  14.363  66.633  1.00  0.00    -0.289 C  
HETATM    6  C   UNL     1     -11.553  10.919  68.468  1.00  0.00    -0.360 C  
HETATM    7  C   UNL     1     -10.396  17.423  66.380  1.00  0.00    -0.317 C  
HETATM    8  C   UNL     1     -10.467  18.759  65.701  1.00  0.00    -0.175 C  
HETATM    9  C   UNL     1     -11.501  17.248  67.890  1.00  0.00     0.514 C  
HETATM   10  C   UNL     1     -12.435  10.994  69.700  1.00  0.00    -0.140 C  
HETATM   11  C   UNL     1      -9.743  12.994  65.907  1.00  0.00    -0.187 C  
HETATM   12  C   UNL     1     -11.198  15.773  68.682  1.00  0.00    -0.351 C  
HETATM   13  C   UNL     1      -9.824  11.745  66.821  1.00  0.00    -0.218 C  
HETATM   14  C   UNL     1     -10.672  11.871  68.080  1.00  0.00    -0.246 C  
HETATM   15  C   UNL     1     -10.743  14.355  67.892  1.00  0.00    -0.246 C  
HETATM   16  C   UNL     1     -10.503  13.166  68.864  1.00  0.00    -0.117 C  
HETATM   17  C   UNL     1     -11.542  13.318  69.989  1.00  0.00    -0.212 C  
HETATM   18  C   UNL     1     -11.988  12.071  70.687  1.00  0.00    -0.257 C  
ENDROOT
BRANCH   4  19
HETATM   19  C   UNL     1      -8.099  17.057  66.401  1.00  0.00    -0.335 C  
HETATM   20  C   UNL     1      -7.091  17.388  65.832  1.00  0.00    -0.152 C  
ENDBRANCH   4  19
BRANCH   4  21
HETATM   21  O   UNL     1      -9.329  17.537  68.285  1.00  0.00    -0.264 OA 
BRANCH  21  22
HETATM   22  C   UNL     1      -8.122  17.693  68.878  1.00  0.00    -0.162 C  
HETATM   23  O   UNL     1      -7.471  16.801  69.403  1.00  0.00    -0.199 OA 
HETATM   24  C   UNL     1      -7.779  19.162  68.951  1.00  0.00    -0.358 C  
ENDBRANCH  21  22
ENDBRANCH   4  21
BRANCH  10  25
HETATM   25  O   UNL     1     -12.397   9.737  70.397  1.00  0.00    -0.154 OA 
BRANCH  25  26
HETATM   26  C   UNL     1     -11.215   9.061  70.276  1.00  0.00    -0.205 C  
HETATM   27  C   UNL     1     -10.409   9.188  71.531  1.00  0.00    -0.414 C  
HETATM   28  O   UNL     1     -10.877   8.375  69.320  1.00  0.00    -0.175 OA 
ENDBRANCH  25  26
ENDBRANCH  10  25
TORSDOF 5
ENDMDL
MODEL       55
REMARK 921   NORMALIZED FREE ENERGY PREDICTED BY IDOCK:   -4.14 KCAL/MOL
REMARK 922        TOTAL FREE ENERGY PREDICTED BY IDOCK:   -5.19 KCAL/MOL
REMARK 923 INTER-LIGAND FREE ENERGY PREDICTED BY IDOCK:   -5.49 KCAL/MOL
REMARK 924 INTRA-LIGAND FREE ENERGY PREDICTED BY IDOCK:    0.29 KCAL/MOL
REMARK 927      BINDING AFFINITY PREDICTED BY RF-SCORE:    0.00 PKD
ROOT
HETATM    1  C   UNL     1     -11.206  12.105  67.706  1.00  0.00    -0.333 C  
HETATM    2  C   UNL     1     -11.444  13.099  68.686  1.00  0.00    -0.342 C  
HETATM    3  C   UNL     1     -10.025  12.721  68.468  1.00  0.00    -0.168 C  
HETATM    4  C   UNL     1      -9.641  11.536  66.819  1.00  0.00    -0.186 C  
HETATM    5  C   UNL     1     -10.883  10.502  68.562  1.00  0.00    -0.275 C  
HETATM    6  C   UNL     1     -10.030   8.480  72.301  1.00  0.00    -0.385 C  
HETATM    7  C   UNL     1      -9.566  12.896  66.983  1.00  0.00    -0.231 C  
HETATM    8  C   UNL     1      -9.558  14.120  66.115  1.00  0.00    -0.278 C  
HETATM    9  C   UNL     1      -7.958  12.572  67.902  1.00  0.00    -0.157 C  
HETATM   10  C   UNL     1      -8.638   8.336  72.886  1.00  0.00    -0.208 C  
HETATM   11  C   UNL     1     -12.009  10.134  69.564  1.00  0.00    -0.001 C  
HETATM   12  C   UNL     1      -8.020  11.069  68.698  1.00  0.00    -0.143 C  
HETATM   13  C   UNL     1     -11.729   8.917  70.482  1.00  0.00    -0.137 C  
HETATM   14  C   UNL     1     -10.307   8.768  71.008  1.00  0.00    -0.297 C  
HETATM   15  C   UNL     1      -9.426  10.404  69.347  1.00  0.00    -0.204 C  
HETATM   16  C   UNL     1      -9.198   9.008  69.991  1.00  0.00    -0.193 C  
HETATM   17  C   UNL     1      -7.802   9.059  70.637  1.00  0.00    -0.147 C  
HETATM   18  C   UNL     1      -7.557   8.173  71.819  1.00  0.00    -0.105 C  
ENDROOT
BRANCH   4  19
HETATM   19  C   UNL     1     -10.589  11.357  65.572  1.00  0.00    -0.328 C  
HETATM   20  C   UNL     1     -11.360  11.279  64.651  1.00  0.00    -0.066 C  
ENDBRANCH   4  19
BRANCH   4  21
HETATM   21  O   UNL     1      -8.359  11.286  66.129  1.00  0.00    -0.167 OA 
BRANCH  21  22
HETATM   22  C   UNL     1      -8.215  10.225  65.300  1.00  0.00    -0.161 C  
HETATM   23  O   UNL     1      -7.946  10.289  64.109  1.00  0.00    -0.157 OA 
HETATM   24  C   UNL     1      -8.607   8.959  66.024  1.00  0.00    -0.162 C  
ENDBRANCH  21  22
ENDBRANCH   4  21
BRANCH  10  25
HETATM   25  O   UNL     1      -8.586   7.168  73.725  1.00  0.00    -0.133 OA 
BRANCH  25  26
HETATM   26  C   UNL     1      -9.049   6.027  73.131  1.00  0.00    -0.130 C  
HETATM   27  C   UNL     1     -10.309   5.567  73.795  1.00  0.00    -0.271 C  
HETATM   28  O   UNL     1      -8.565   5.486  72.145  1.00  0.00    -0.125 OA 
ENDBRANCH  25  26
ENDBRANCH  10  25
TORSDOF 5
ENDMDL
MODEL       56
REMARK 921   NORMALIZED FREE ENERGY PREDICTED BY IDOCK:   -4.11 KCAL/MOL
REMARK 922        TOTAL FREE ENERGY PREDICTED BY IDOCK:   -5.15 KCAL/MOL
REMARK 923 INTER-LIGAND FREE ENERGY PREDICTED BY IDOCK:   -4.67 KCAL/MOL
REMARK 924 INTRA-LIGAND FREE ENERGY PREDICTED BY IDOCK:   -0.48 KCAL/MOL
REMARK 927      BINDING AFFINITY PREDICTED BY RF-SCORE:    0.00 PKD
ROOT
HETATM    1  C   UNL     1     -10.461   9.972  66.727  1.00  0.00    -0.267 C  
HETATM    2  C   UNL     1     -11.272  10.394  67.809  1.00  0.00    -0.309 C  
HETATM    3  C   UNL     1      -9.809  10.373  68.057  1.00  0.00    -0.170 C  
HETATM    4  C   UNL     1      -8.607  10.095  66.400  1.00  0.00    -0.130 C  
HETATM    5  C   UNL     1      -9.937   8.229  67.031  1.00  0.00    -0.325 C  
HETATM    6  C   UNL     1      -9.669   4.948  69.852  1.00  0.00    -0.276 C  
HETATM    7  C   UNL     1      -9.003  11.243  67.037  1.00  0.00    -0.154 C  
HETATM    8  C   UNL     1      -9.108  12.707  66.725  1.00  0.00    -0.214 C  
HETATM    9  C   UNL     1      -7.726  10.808  68.347  1.00  0.00    -0.113 C  
HETATM   10  C   UNL     1      -8.542   4.783  70.853  1.00  0.00    -0.111 C  
HETATM   11  C   UNL     1     -11.143   7.293  67.307  1.00  0.00    -0.151 C  
HETATM   12  C   UNL     1      -7.562   9.120  68.480  1.00  0.00    -0.085 C  
HETATM   13  C   UNL     1     -10.793   5.858  67.780  1.00  0.00    -0.326 C  
HETATM   14  C   UNL     1      -9.620   5.720  68.742  1.00  0.00    -0.156 C  
HETATM   15  C   UNL     1      -8.825   8.029  68.243  1.00  0.00    -0.133 C  
HETATM   16  C   UNL     1      -8.386   6.546  68.400  1.00  0.00    -0.117 C  
HETATM   17  C   UNL     1      -7.333   6.529  69.523  1.00  0.00    -0.091 C  
HETATM   18  C   UNL     1      -7.195   5.269  70.319  1.00  0.00    -0.062 C  
ENDROOT
BRANCH   4  19
HETATM   19  C   UNL     1      -9.036  10.328  64.900  1.00  0.00    -0.250 C  
HETATM   20  C   UNL     1      -9.344  10.427  63.741  1.00  0.00    -0.329 C  
ENDBRANCH   4  19
BRANCH   4  21
HETATM   21  O   UNL     1      -7.164  10.372  66.236  1.00  0.00    -0.113 OA 
BRANCH  21  22
HETATM   22  C   UNL     1      -6.408   9.624  65.399  1.00  0.00    -0.076 C  
HETATM   23  O   UNL     1      -6.441   8.405  65.315  1.00  0.00    -0.055 OA 
HETATM   24  C   UNL     1      -5.394  10.505  64.707  1.00  0.00    -0.148 C  
ENDBRANCH  21  22
ENDBRANCH   4  21
BRANCH  10  25
HETATM   25  O   UNL     1      -8.390   3.391  71.184  1.00  0.00    -0.065 OA 
BRANCH  25  26
HETATM   26  C   UNL     1      -9.382   2.889  71.978  1.00  0.00    -0.115 C  
HETATM   27  C   UNL     1      -9.817   1.544  71.485  1.00  0.00    -0.208 C  
HETATM   28  O   UNL     1      -9.814   3.409  72.999  1.00  0.00    -0.124 OA 
ENDBRANCH  25  26
ENDBRANCH  10  25
TORSDOF 5
ENDMDL
MODEL       57
REMARK 921   NORMALIZED FREE ENERGY PREDICTED BY IDOCK:   -4.01 KCAL/MOL
REMARK 922        TOTAL FREE ENERGY PREDICTED BY IDOCK:   -5.02 KCAL/MOL
REMARK 923 INTER-LIGAND FREE ENERGY PREDICTED BY IDOCK:   -5.40 KCAL/MOL
REMARK 924 INTRA-LIGAND FREE ENERGY PREDICTED BY IDOCK:    0.38 KCAL/MOL
REMARK 927      BINDING AFFINITY PREDICTED BY RF-SCORE:    0.00 PKD
ROOT
HETATM    1  C   UNL     1      -9.547   7.499  67.731  1.00  0.00    -0.166 C  
HETATM    2  C   UNL     1     -10.865   7.133  67.363  1.00  0.00    -0.346 C  
HETATM    3  C   UNL     1     -10.138   8.007  66.409  1.00  0.00    -0.174 C  
HETATM    4  C   UNL     1      -8.118   8.262  66.765  1.00  0.00    -0.103 C  
HETATM    5  C   UNL     1      -9.576   9.229  68.374  1.00  0.00    -0.158 C  
HETATM    6  C   UNL     1     -11.823  12.910  68.818  1.00  0.00    -0.353 C  
HETATM    7  C   UNL     1      -8.779   7.396  65.932  1.00  0.00    -0.161 C  
HETATM    8  C   UNL     1      -8.500   6.099  65.231  1.00  0.00    -0.121 C  
HETATM    9  C   UNL     1      -9.020   8.871  64.791  1.00  0.00    -0.088 C  
HETATM   10  C   UNL     1     -11.901  13.987  67.753  1.00  0.00    -0.384 C  
HETATM   11  C   UNL     1     -10.616   9.416  69.511  1.00  0.00    -0.237 C  
HETATM   12  C   UNL     1      -9.140  10.308  65.694  1.00  0.00    -0.208 C  
HETATM   13  C   UNL     1     -10.864  10.876  69.970  1.00  0.00    -0.139 C  
HETATM   14  C   UNL     1     -10.879  11.943  68.883  1.00  0.00    -0.261 C  
HETATM   15  C   UNL     1      -9.829  10.401  67.230  1.00  0.00    -0.214 C  
HETATM   16  C   UNL     1      -9.779  11.832  67.833  1.00  0.00    -0.185 C  
HETATM   17  C   UNL     1      -9.986  12.800  66.655  1.00  0.00    -0.246 C  
HETATM   18  C   UNL     1     -10.605  14.130  66.955  1.00  0.00    -0.276 C  
ENDROOT
BRANCH   4  19
HETATM   19  C   UNL     1      -7.212   7.322  67.648  1.00  0.00    -0.091 C  
HETATM   20  C   UNL     1      -6.454   6.638  68.286  1.00  0.00    -0.049 C  
ENDBRANCH   4  19
BRANCH   4  21
HETATM   21  O   UNL     1      -7.064   8.749  65.850  1.00  0.00    -0.081 OA 
BRANCH  21  22
HETATM   22  C   UNL     1      -6.117   9.613  66.285  1.00  0.00    -0.064 C  
HETATM   23  O   UNL     1      -6.112  10.166  67.376  1.00  0.00    -0.056 OA 
HETATM   24  C   UNL     1      -5.160   9.926  65.159  1.00  0.00    -0.049 C  
ENDBRANCH  21  22
ENDBRANCH   4  21
BRANCH  10  25
HETATM   25  O   UNL     1     -12.160  15.259  68.373  1.00  0.00    -0.236 OA 
BRANCH  25  26
HETATM   26  C   UNL     1     -11.888  15.300  69.712  1.00  0.00    -0.332 C  
HETATM   27  C   UNL     1     -13.157  15.261  70.504  1.00  0.00    -0.334 C  
HETATM   28  O   UNL     1     -10.773  15.289  70.217  1.00  0.00    -0.285 OA 
ENDBRANCH  25  26
ENDBRANCH  10  25
TORSDOF 5
ENDMDL
MODEL       58
REMARK 921   NORMALIZED FREE ENERGY PREDICTED BY IDOCK:   -4.01 KCAL/MOL
REMARK 922        TOTAL FREE ENERGY PREDICTED BY IDOCK:   -5.02 KCAL/MOL
REMARK 923 INTER-LIGAND FREE ENERGY PREDICTED BY IDOCK:   -5.10 KCAL/MOL
REMARK 924 INTRA-LIGAND FREE ENERGY PREDICTED BY IDOCK:    0.09 KCAL/MOL
REMARK 927      BINDING AFFINITY PREDICTED BY RF-SCORE:    0.00 PKD
ROOT
HETATM    1  C   UNL     1      -8.330  11.022  66.332  1.00  0.00    -0.165 C  
HETATM    2  C   UNL     1      -7.653  12.026  67.065  1.00  0.00    -0.111 C  
HETATM    3  C   UNL     1      -7.096  10.654  67.168  1.00  0.00    -0.093 C  
HETATM    4  C   UNL     1      -7.859   9.262  65.845  1.00  0.00    -0.099 C  
HETATM    5  C   UNL     1      -9.374  10.046  67.499  1.00  0.00    -0.162 C  
HETATM    6  C   UNL     1     -10.329   9.120  71.626  1.00  0.00    -0.388 C  
HETATM    7  C   UNL     1      -6.730  10.037  65.778  1.00  0.00    -0.106 C  
HETATM    8  C   UNL     1      -5.784  10.533  64.722  1.00  0.00    -0.112 C  
HETATM    9  C   UNL     1      -5.976   8.829  67.004  1.00  0.00    -0.057 C  
HETATM   10  C   UNL     1      -9.576   8.102  72.460  1.00  0.00    -0.277 C  
HETATM   11  C   UNL     1     -10.317  10.948  68.339  1.00  0.00    -0.196 C  
HETATM   12  C   UNL     1      -7.178   8.194  68.028  1.00  0.00    -0.094 C  
HETATM   13  C   UNL     1     -11.080  10.245  69.492  1.00  0.00    -0.310 C  
HETATM   14  C   UNL     1     -10.314   9.186  70.274  1.00  0.00    -0.253 C  
HETATM   15  C   UNL     1      -8.539   9.053  68.530  1.00  0.00    -0.129 C  
HETATM   16  C   UNL     1      -9.484   8.219  69.439  1.00  0.00    -0.159 C  
HETATM   17  C   UNL     1      -8.572   7.326  70.298  1.00  0.00    -0.142 C  
HETATM   18  C   UNL     1      -9.084   6.908  71.642  1.00  0.00    -0.139 C  
ENDROOT
BRANCH   4  19
HETATM   19  C   UNL     1      -8.622   9.586  64.503  1.00  0.00    -0.206 C  
HETATM   20  C   UNL     1      -9.271   9.847  63.523  1.00  0.00    -0.279 C  
ENDBRANCH   4  19
BRANCH   4  21
HETATM   21  O   UNL     1      -7.301   7.954  65.442  1.00  0.00    -0.072 OA 
BRANCH  21  22
HETATM   22  C   UNL     1      -8.116   6.909  65.167  1.00  0.00    -0.132 C  
HETATM   23  O   UNL     1      -9.072   6.561  65.846  1.00  0.00    -0.134 OA 
HETATM   24  C   UNL     1      -7.570   6.133  63.993  1.00  0.00    -0.093 C  
ENDBRANCH  21  22
ENDBRANCH   4  21
BRANCH  10  25
HETATM   25  O   UNL     1     -10.442   7.585  73.486  1.00  0.00    -0.357 OA 
BRANCH  25  26
HETATM   26  C   UNL     1     -11.032   6.392  73.178  1.00  0.00    -0.220 C  
HETATM   27  C   UNL     1     -10.579   5.324  74.124  1.00  0.00    -0.301 C  
HETATM   28  O   UNL     1     -11.875   6.213  72.308  1.00  0.00    -0.319 OA 
ENDBRANCH  25  26
ENDBRANCH  10  25
TORSDOF 5
ENDMDL
MODEL       59
REMARK 921   NORMALIZED FREE ENERGY PREDICTED BY IDOCK:   -3.94 KCAL/MOL
REMARK 922        TOTAL FREE ENERGY PREDICTED BY IDOCK:   -4.94 KCAL/MOL
REMARK 923 INTER-LIGAND FREE ENERGY PREDICTED BY IDOCK:   -4.51 KCAL/MOL
REMARK 924 INTRA-LIGAND FREE ENERGY PREDICTED BY IDOCK:   -0.43 KCAL/MOL
REMARK 927      BINDING AFFINITY PREDICTED BY RF-SCORE:    0.00 PKD
ROOT
HETATM    1  C   UNL     1     -10.331   6.576  68.523  1.00  0.00    -0.219 C  
HETATM    2  C   UNL     1     -11.263   6.628  67.458  1.00  0.00    -0.276 C  
HETATM    3  C   UNL     1      -9.858   6.960  67.115  1.00  0.00    -0.214 C  
HETATM    4  C   UNL     1      -8.446   6.557  68.568  1.00  0.00    -0.124 C  
HETATM    5  C   UNL     1      -9.979   8.300  69.079  1.00  0.00    -0.193 C  
HETATM    6  C   UNL     1     -10.356  12.540  68.254  1.00  0.00    -0.241 C  
HETATM    7  C   UNL     1      -8.852   5.821  67.484  1.00  0.00    -0.106 C  
HETATM    8  C   UNL     1      -8.810   4.390  67.035  1.00  0.00    -0.116 C  
HETATM    9  C   UNL     1      -7.816   7.001  66.451  1.00  0.00    -0.106 C  
HETATM   10  C   UNL     1      -9.404  13.317  67.366  1.00  0.00    -0.217 C  
HETATM   11  C   UNL     1     -11.273   9.084  69.421  1.00  0.00     0.102 C  
HETATM   12  C   UNL     1      -7.789   8.547  67.160  1.00  0.00    -0.097 C  
HETATM   13  C   UNL     1     -11.097  10.600  69.694  1.00  0.00    -0.342 C  
HETATM   14  C   UNL     1     -10.090  11.341  68.823  1.00  0.00    -0.204 C  
HETATM   15  C   UNL     1      -9.075   9.209  68.028  1.00  0.00    -0.136 C  
HETATM   16  C   UNL     1      -8.766  10.624  68.588  1.00  0.00    -0.148 C  
HETATM   17  C   UNL     1      -7.895  11.322  67.529  1.00  0.00    -0.123 C  
HETATM   18  C   UNL     1      -7.963  12.817  67.457  1.00  0.00    -0.177 C  
ENDROOT
BRANCH   4  19
HETATM   19  C   UNL     1      -8.631   5.572  69.786  1.00  0.00    -0.112 C  
HETATM   20  C   UNL     1      -8.854   4.832  70.709  1.00  0.00    -0.153 C  
ENDBRANCH   4  19
BRANCH   4  21
HETATM   21  O   UNL     1      -6.979   6.430  68.434  1.00  0.00    -0.074 OA 
BRANCH  21  22
HETATM   22  C   UNL     1      -6.166   6.665  69.490  1.00  0.00    -0.037 C  
HETATM   23  O   UNL     1      -6.105   7.714  70.116  1.00  0.00    -0.026 OA 
HETATM   24  C   UNL     1      -5.221   5.501  69.674  1.00  0.00    -0.004 C  
ENDBRANCH  21  22
ENDBRANCH   4  21
BRANCH  10  25
HETATM   25  O   UNL     1      -9.398  14.701  67.759  1.00  0.00    -0.191 OA 
BRANCH  25  26
HETATM   26  C   UNL     1     -10.531  15.387  67.424  1.00  0.00    -0.277 C  
HETATM   27  C   UNL     1     -10.716  15.396  65.938  1.00  0.00    -0.343 C  
HETATM   28  O   UNL     1     -11.339  15.865  68.210  1.00  0.00    -0.350 OA 
ENDBRANCH  25  26
ENDBRANCH  10  25
TORSDOF 5
ENDMDL
MODEL       60
REMARK 921   NORMALIZED FREE ENERGY PREDICTED BY IDOCK:   -3.90 KCAL/MOL
REMARK 922        TOTAL FREE ENERGY PREDICTED BY IDOCK:   -4.88 KCAL/MOL
REMARK 923 INTER-LIGAND FREE ENERGY PREDICTED BY IDOCK:   -4.90 KCAL/MOL
REMARK 924 INTRA-LIGAND FREE ENERGY PREDICTED BY IDOCK:    0.02 KCAL/MOL
REMARK 927      BINDING AFFINITY PREDICTED BY RF-SCORE:    0.00 PKD
ROOT
HETATM    1  C   UNL     1     -11.848  12.227  68.088  1.00  0.00    -0.372 C  
HETATM    2  C   UNL     1     -11.831  11.953  69.477  1.00  0.00    -0.395 C  
HETATM    3  C   UNL     1     -10.694  12.751  68.953  1.00  0.00    -0.199 C  
HETATM    4  C   UNL     1     -10.883  13.442  67.015  1.00  0.00    -0.273 C  
HETATM    5  C   UNL     1     -10.662  11.087  67.250  1.00  0.00    -0.312 C  
HETATM    6  C   UNL     1      -7.431   8.230  67.691  1.00  0.00    -0.094 C  
HETATM    7  C   UNL     1     -11.149  14.052  68.214  1.00  0.00    -0.275 C  
HETATM    8  C   UNL     1     -11.962  15.211  68.715  1.00  0.00    -0.280 C  
HETATM    9  C   UNL     1      -9.289  14.269  68.375  1.00  0.00    -0.208 C  
HETATM   10  C   UNL     1      -5.971   8.618  67.821  1.00  0.00    -0.047 C  
HETATM   11  C   UNL     1     -10.933   9.599  67.596  1.00  0.00    -0.190 C  
HETATM   12  C   UNL     1      -8.472  12.988  67.609  1.00  0.00    -0.187 C  
HETATM   13  C   UNL     1      -9.865   8.585  67.112  1.00  0.00    -0.269 C  
HETATM   14  C   UNL     1      -8.410   9.026  67.202  1.00  0.00    -0.110 C  
HETATM   15  C   UNL     1      -9.060  11.410  67.527  1.00  0.00    -0.157 C  
HETATM   16  C   UNL     1      -8.122  10.451  66.743  1.00  0.00    -0.120 C  
HETATM   17  C   UNL     1      -6.686  10.899  67.067  1.00  0.00    -0.098 C  
HETATM   18  C   UNL     1      -5.610   9.859  67.006  1.00  0.00    -0.046 C  
ENDROOT
BRANCH   4  19
HETATM   19  C   UNL     1     -12.234  13.579  66.213  1.00  0.00    -0.468 C  
HETATM   20  C   UNL     1     -13.264  13.602  65.589  1.00  0.00     0.128 C  
ENDBRANCH   4  19
BRANCH   4  21
HETATM   21  O   UNL     1     -10.140  14.522  66.333  1.00  0.00    -0.266 OA 
BRANCH  21  22
HETATM   22  C   UNL     1     -10.343  14.777  65.019  1.00  0.00    -0.389 C  
HETATM   23  O   UNL     1     -10.122  13.996  64.104  1.00  0.00     0.027 OA 
HETATM   24  C   UNL     1     -10.719  16.229  64.836  1.00  0.00    -0.256 C  
ENDBRANCH  21  22
ENDBRANCH   4  21
BRANCH  10  25
HETATM   25  O   UNL     1      -5.143   7.542  67.345  1.00  0.00    -0.023 OA 
BRANCH  25  26
HETATM   26  C   UNL     1      -5.353   6.348  67.975  1.00  0.00    -0.008 C  
HETATM   27  C   UNL     1      -5.534   5.252  66.971  1.00  0.00    -0.012 C  
HETATM   28  O   UNL     1      -5.322   6.160  69.184  1.00  0.00    -0.004 OA 
ENDBRANCH  25  26
ENDBRANCH  10  25
TORSDOF 5
ENDMDL
MODEL       61
REMARK 921   NORMALIZED FREE ENERGY PREDICTED BY IDOCK:   -3.88 KCAL/MOL
REMARK 922        TOTAL FREE ENERGY PREDICTED BY IDOCK:   -4.86 KCAL/MOL
REMARK 923 INTER-LIGAND FREE ENERGY PREDICTED BY IDOCK:   -4.44 KCAL/MOL
REMARK 924 INTRA-LIGAND FREE ENERGY PREDICTED BY IDOCK:   -0.42 KCAL/MOL
REMARK 927      BINDING AFFINITY PREDICTED BY RF-SCORE:    0.00 PKD
ROOT
HETATM    1  C   UNL     1      -9.065   9.482  68.127  1.00  0.00    -0.128 C  
HETATM    2  C   UNL     1      -8.564  10.023  69.336  1.00  0.00    -0.182 C  
HETATM    3  C   UNL     1      -7.732   8.974  68.694  1.00  0.00    -0.096 C  
HETATM    4  C   UNL     1      -8.273   8.430  66.776  1.00  0.00    -0.102 C  
HETATM    5  C   UNL     1      -9.811   7.833  68.487  1.00  0.00    -0.181 C  
HETATM    6  C   UNL     1     -10.295   4.600  71.335  1.00  0.00    -0.160 C  
HETATM    7  C   UNL     1      -7.334   9.324  67.223  1.00  0.00    -0.091 C  
HETATM    8  C   UNL     1      -6.579  10.504  66.683  1.00  0.00    -0.094 C  
HETATM    9  C   UNL     1      -6.273   7.824  67.617  1.00  0.00    -0.050 C  
HETATM   10  C   UNL     1      -9.298   3.470  71.509  1.00  0.00    -0.139 C  
HETATM   11  C   UNL     1     -10.865   7.900  69.624  1.00  0.00    -0.177 C  
HETATM   12  C   UNL     1      -7.252   6.497  68.038  1.00  0.00    -0.088 C  
HETATM   13  C   UNL     1     -11.393   6.538  70.141  1.00  0.00    -0.463 C  
HETATM   14  C   UNL     1     -10.378   5.406  70.251  1.00  0.00    -0.357 C  
HETATM   15  C   UNL     1      -8.727   6.631  68.844  1.00  0.00    -0.128 C  
HETATM   16  C   UNL     1      -9.422   5.261  69.074  1.00  0.00    -0.182 C  
HETATM   17  C   UNL     1      -8.293   4.251  69.350  1.00  0.00    -0.078 C  
HETATM   18  C   UNL     1      -8.624   3.063  70.200  1.00  0.00    -0.109 C  
ENDROOT
BRANCH   4  19
HETATM   19  C   UNL     1      -9.169   9.280  65.795  1.00  0.00    -0.283 C  
HETATM   20  C   UNL     1      -9.795   9.987  65.048  1.00  0.00    -0.374 C  
ENDBRANCH   4  19
BRANCH   4  21
HETATM   21  O   UNL     1      -7.485   7.714  65.752  1.00  0.00    -0.074 OA 
BRANCH  21  22
HETATM   22  C   UNL     1      -8.087   6.875  64.877  1.00  0.00    -0.109 C  
HETATM   23  O   UNL     1      -8.816   5.940  65.181  1.00  0.00    -0.097 OA 
HETATM   24  C   UNL     1      -7.590   7.155  63.479  1.00  0.00    -0.109 C  
ENDBRANCH  21  22
ENDBRANCH   4  21
BRANCH  10  25
HETATM   25  O   UNL     1      -9.973   2.306  72.019  1.00  0.00    -0.150 OA 
BRANCH  25  26
HETATM   26  C   UNL     1     -10.354   2.403  73.327  1.00  0.00    -0.128 C  
HETATM   27  C   UNL     1      -9.171   2.695  74.196  1.00  0.00    -0.095 C  
HETATM   28  O   UNL     1     -11.504   2.343  73.745  1.00  0.00    -0.214 OA 
ENDBRANCH  25  26
ENDBRANCH  10  25
TORSDOF 5
ENDMDL
MODEL       62
REMARK 921   NORMALIZED FREE ENERGY PREDICTED BY IDOCK:   -3.88 KCAL/MOL
REMARK 922        TOTAL FREE ENERGY PREDICTED BY IDOCK:   -4.86 KCAL/MOL
REMARK 923 INTER-LIGAND FREE ENERGY PREDICTED BY IDOCK:   -5.91 KCAL/MOL
REMARK 924 INTRA-LIGAND FREE ENERGY PREDICTED BY IDOCK:    1.06 KCAL/MOL
REMARK 927      BINDING AFFINITY PREDICTED BY RF-SCORE:    0.00 PKD
ROOT
HETATM    1  C   UNL     1     -10.188  12.381  67.949  1.00  0.00    -0.213 C  
HETATM    2  C   UNL     1      -8.864  12.458  68.446  1.00  0.00    -0.129 C  
HETATM    3  C   UNL     1      -9.044  11.715  67.173  1.00  0.00    -0.171 C  
HETATM    4  C   UNL     1     -10.894  11.889  66.270  1.00  0.00    -0.282 C  
HETATM    5  C   UNL     1     -10.863  10.707  68.332  1.00  0.00    -0.282 C  
HETATM    6  C   UNL     1     -10.031   6.665  69.663  1.00  0.00    -0.191 C  
HETATM    7  C   UNL     1      -9.725  12.571  66.055  1.00  0.00    -0.247 C  
HETATM    8  C   UNL     1      -9.295  13.872  65.441  1.00  0.00     0.443 C  
HETATM    9  C   UNL     1      -9.143  11.037  65.138  1.00  0.00    -0.199 C  
HETATM   10  C   UNL     1      -9.549   5.556  68.748  1.00  0.00    -0.135 C  
HETATM   11  C   UNL     1     -10.740  10.355  69.839  1.00  0.00    -0.331 C  
HETATM   12  C   UNL     1      -9.843   9.640  65.811  1.00  0.00    -0.373 C  
HETATM   13  C   UNL     1     -11.084   8.893  70.223  1.00  0.00    -0.251 C  
HETATM   14  C   UNL     1     -10.636   7.805  69.255  1.00  0.00    -0.199 C  
HETATM   15  C   UNL     1     -10.213   9.466  67.446  1.00  0.00    -0.298 C  
HETATM   16  C   UNL     1     -10.871   8.098  67.779  1.00  0.00    -0.072 C  
HETATM   17  C   UNL     1     -10.199   7.066  66.856  1.00  0.00    -0.318 C  
HETATM   18  C   UNL     1     -10.133   5.650  67.339  1.00  0.00    -0.206 C  
ENDROOT
BRANCH   4  19
HETATM   19  C   UNL     1     -11.952  13.026  66.546  1.00  0.00    -0.457 C  
HETATM   20  C   UNL     1     -12.720  13.910  66.827  1.00  0.00     0.111 C  
ENDBRANCH   4  19
BRANCH   4  21
HETATM   21  O   UNL     1     -11.283  11.593  64.876  1.00  0.00    -0.290 OA 
BRANCH  21  22
HETATM   22  C   UNL     1     -12.278  12.286  64.274  1.00  0.00    -0.425 C  
HETATM   23  O   UNL     1     -13.468  12.007  64.330  1.00  0.00    -0.591 OA 
HETATM   24  C   UNL     1     -11.688  13.352  63.382  1.00  0.00    -0.211 C  
ENDBRANCH  21  22
ENDBRANCH   4  21
BRANCH  10  25
HETATM   25  O   UNL     1      -9.943   4.281  69.287  1.00  0.00    -0.167 OA 
BRANCH  25  26
HETATM   26  C   UNL     1      -9.209   3.224  68.828  1.00  0.00    -0.165 C  
HETATM   27  C   UNL     1      -7.770   3.381  69.211  1.00  0.00    -0.051 C  
HETATM   28  O   UNL     1      -9.653   2.239  68.253  1.00  0.00    -0.211 OA 
ENDBRANCH  25  26
ENDBRANCH  10  25
TORSDOF 5
ENDMDL
MODEL       63
REMARK 921   NORMALIZED FREE ENERGY PREDICTED BY IDOCK:   -3.85 KCAL/MOL
REMARK 922        TOTAL FREE ENERGY PREDICTED BY IDOCK:   -4.82 KCAL/MOL
REMARK 923 INTER-LIGAND FREE ENERGY PREDICTED BY IDOCK:   -4.37 KCAL/MOL
REMARK 924 INTRA-LIGAND FREE ENERGY PREDICTED BY IDOCK:   -0.45 KCAL/MOL
REMARK 927      BINDING AFFINITY PREDICTED BY RF-SCORE:    0.00 PKD
ROOT
HETATM    1  C   UNL     1      -7.162   9.253  67.582  1.00  0.00    -0.083 C  
HETATM    2  C   UNL     1      -6.573   8.012  67.235  1.00  0.00    -0.058 C  
HETATM    3  C   UNL     1      -8.037   8.127  67.014  1.00  0.00    -0.108 C  
HETATM    4  C   UNL     1      -8.838  10.024  67.190  1.00  0.00    -0.135 C  
HETATM    5  C   UNL     1      -8.021   9.061  69.204  1.00  0.00    -0.101 C  
HETATM    6  C   UNL     1      -9.488   6.343  72.247  1.00  0.00    -0.149 C  
HETATM    7  C   UNL     1      -8.423   9.325  66.085  1.00  0.00    -0.135 C  
HETATM    8  C   UNL     1      -8.007   9.624  64.674  1.00  0.00    -0.135 C  
HETATM    9  C   UNL     1     -10.028   8.361  66.245  1.00  0.00    -0.216 C  
HETATM   10  C   UNL     1     -10.833   5.645  72.180  1.00  0.00    -0.245 C  
HETATM   11  C   UNL     1      -7.086   8.485  70.300  1.00  0.00    -0.043 C  
HETATM   12  C   UNL     1     -10.494   8.247  67.878  1.00  0.00    -0.259 C  
HETATM   13  C   UNL     1      -7.769   8.091  71.635  1.00  0.00    -0.100 C  
HETATM   14  C   UNL     1      -9.144   7.443  71.537  1.00  0.00    -0.148 C  
HETATM   15  C   UNL     1      -9.408   8.153  69.163  1.00  0.00    -0.151 C  
HETATM   16  C   UNL     1     -10.108   8.087  70.548  1.00  0.00    -0.195 C  
HETATM   17  C   UNL     1     -11.387   7.255  70.341  1.00  0.00    -0.299 C  
HETATM   18  C   UNL     1     -11.915   6.498  71.520  1.00  0.00    -0.383 C  
ENDROOT
BRANCH   4  19
HETATM   19  C   UNL     1      -8.031  11.377  67.108  1.00  0.00    -0.156 C  
HETATM   20  C   UNL     1      -7.348  12.365  67.033  1.00  0.00    -0.016 C  
ENDBRANCH   4  19
BRANCH   4  21
HETATM   21  O   UNL     1     -10.134  10.538  66.701  1.00  0.00    -0.206 OA 
BRANCH  21  22
HETATM   22  C   UNL     1     -10.774  11.534  67.357  1.00  0.00    -0.232 C  
HETATM   23  O   UNL     1     -10.876  11.629  68.573  1.00  0.00    -0.196 OA 
HETATM   24  C   UNL     1     -11.492  12.418  66.365  1.00  0.00    -0.427 C  
ENDBRANCH  21  22
ENDBRANCH   4  21
BRANCH  10  25
HETATM   25  O   UNL     1     -11.285   5.341  73.512  1.00  0.00    -0.296 OA 
BRANCH  25  26
HETATM   26  C   UNL     1     -11.037   4.059  73.913  1.00  0.00    -0.167 C  
HETATM   27  C   UNL     1     -12.119   3.142  73.432  1.00  0.00     0.412 C  
HETATM   28  O   UNL     1     -10.040   3.675  74.510  1.00  0.00    -0.142 OA 
ENDBRANCH  25  26
ENDBRANCH  10  25
TORSDOF 5
ENDMDL
MODEL       64
REMARK 921   NORMALIZED FREE ENERGY PREDICTED BY IDOCK:   -3.85 KCAL/MOL
REMARK 922        TOTAL FREE ENERGY PREDICTED BY IDOCK:   -4.81 KCAL/MOL
REMARK 923 INTER-LIGAND FREE ENERGY PREDICTED BY IDOCK:   -4.78 KCAL/MOL
REMARK 924 INTRA-LIGAND FREE ENERGY PREDICTED BY IDOCK:   -0.04 KCAL/MOL
REMARK 927      BINDING AFFINITY PREDICTED BY RF-SCORE:    0.00 PKD
ROOT
HETATM    1  C   UNL     1      -8.305  16.597  67.296  1.00  0.00    -0.198 C  
HETATM    2  C   UNL     1      -7.620  16.862  66.085  1.00  0.00    -0.230 C  
HETATM    3  C   UNL     1      -8.922  16.160  65.960  1.00  0.00    -0.334 C  
HETATM    4  C   UNL     1     -10.080  16.077  67.670  1.00  0.00    -0.245 C  
HETATM    5  C   UNL     1      -8.063  14.821  67.731  1.00  0.00    -0.161 C  
HETATM    6  C   UNL     1      -6.720  10.907  66.439  1.00  0.00    -0.134 C  
HETATM    7  C   UNL     1     -10.107  16.947  66.610  1.00  0.00    -0.306 C  
HETATM    8  C   UNL     1     -10.622  18.327  66.319  1.00  0.00    -0.320 C  
HETATM    9  C   UNL     1     -10.966  15.570  65.661  1.00  0.00    -0.307 C  
HETATM   10  C   UNL     1      -7.580   9.932  65.657  1.00  0.00    -0.119 C  
HETATM   11  C   UNL     1      -6.563  14.423  67.764  1.00  0.00    -0.189 C  
HETATM   12  C   UNL     1     -10.434  14.049  66.208  1.00  0.00    -0.286 C  
HETATM   13  C   UNL     1      -6.266  12.908  67.912  1.00  0.00    -0.125 C  
HETATM   14  C   UNL     1      -7.184  11.953  67.160  1.00  0.00    -0.144 C  
HETATM   15  C   UNL     1      -8.874  13.742  66.769  1.00  0.00    -0.156 C  
HETATM   16  C   UNL     1      -8.672  12.273  67.232  1.00  0.00    -0.188 C  
HETATM   17  C   UNL     1      -9.511  11.405  66.277  1.00  0.00    -0.229 C  
HETATM   18  C   UNL     1      -9.056   9.997  66.046  1.00  0.00    -0.189 C  
ENDROOT
BRANCH   4  19
HETATM   19  C   UNL     1      -9.934  17.017  68.928  1.00  0.00    -0.285 C  
HETATM   20  C   UNL     1      -9.903  17.723  69.902  1.00  0.00     0.835 C  
ENDBRANCH   4  19
BRANCH   4  21
HETATM   21  O   UNL     1     -11.522  15.788  67.807  1.00  0.00    -0.290 OA 
BRANCH  21  22
HETATM   22  C   UNL     1     -12.025  15.314  68.971  1.00  0.00    -0.276 C  
HETATM   23  O   UNL     1     -12.761  15.933  69.727  1.00  0.00    -0.134 OA 
HETATM   24  C   UNL     1     -11.405  13.973  69.284  1.00  0.00    -0.318 C  
ENDBRANCH  21  22
ENDBRANCH   4  21
BRANCH  10  25
HETATM   25  O   UNL     1      -7.134   8.588  65.907  1.00  0.00    -0.073 OA 
BRANCH  25  26
HETATM   26  C   UNL     1      -7.844   7.626  65.245  1.00  0.00    -0.122 C  
HETATM   27  C   UNL     1      -7.500   7.633  63.788  1.00  0.00    -0.105 C  
HETATM   28  O   UNL     1      -8.599   6.811  65.759  1.00  0.00    -0.148 OA 
ENDBRANCH  25  26
ENDBRANCH  10  25
TORSDOF 5
ENDMDL
MODEL       65
REMARK 921   NORMALIZED FREE ENERGY PREDICTED BY IDOCK:   -3.84 KCAL/MOL
REMARK 922        TOTAL FREE ENERGY PREDICTED BY IDOCK:   -4.81 KCAL/MOL
REMARK 923 INTER-LIGAND FREE ENERGY PREDICTED BY IDOCK:   -5.51 KCAL/MOL
REMARK 924 INTRA-LIGAND FREE ENERGY PREDICTED BY IDOCK:    0.70 KCAL/MOL
REMARK 927      BINDING AFFINITY PREDICTED BY RF-SCORE:    0.00 PKD
ROOT
HETATM    1  C   UNL     1     -11.826  13.495  68.324  1.00  0.00    -0.401 C  
HETATM    2  C   UNL     1     -11.503  14.021  69.598  1.00  0.00    -0.317 C  
HETATM    3  C   UNL     1     -10.371  13.854  68.652  1.00  0.00    -0.237 C  
HETATM    4  C   UNL     1     -10.875  13.418  66.696  1.00  0.00    -0.282 C  
HETATM    5  C   UNL     1     -11.346  11.714  68.285  1.00  0.00    -0.348 C  
HETATM    6  C   UNL     1      -9.189   8.483  70.209  1.00  0.00    -0.164 C  
HETATM    7  C   UNL     1     -10.585  14.614  67.302  1.00  0.00    -0.284 C  
HETATM    8  C   UNL     1     -10.816  16.074  67.044  1.00  0.00    -0.227 C  
HETATM    9  C   UNL     1      -8.785  14.077  67.221  1.00  0.00    -0.227 C  
HETATM   10  C   UNL     1      -7.707   8.223  70.018  1.00  0.00    -0.095 C  
HETATM   11  C   UNL     1     -11.960  10.914  69.464  1.00  0.00    -0.401 C  
HETATM   12  C   UNL     1      -8.664  12.383  67.340  1.00  0.00    -0.183 C  
HETATM   13  C   UNL     1     -11.448   9.461  69.638  1.00  0.00     0.067 C  
HETATM   14  C   UNL     1      -9.965   9.222  69.383  1.00  0.00    -0.184 C  
HETATM   15  C   UNL     1      -9.714  11.424  68.244  1.00  0.00    -0.202 C  
HETATM   16  C   UNL     1      -9.388   9.908  68.151  1.00  0.00    -0.138 C  
HETATM   17  C   UNL     1      -7.854   9.806  68.080  1.00  0.00    -0.086 C  
HETATM   18  C   UNL     1      -7.222   8.555  68.607  1.00  0.00    -0.080 C  
ENDROOT
BRANCH   4  19
HETATM   19  C   UNL     1     -12.284  13.663  66.031  1.00  0.00    -0.492 C  
HETATM   20  C   UNL     1     -13.370  13.910  65.576  1.00  0.00     0.249 C  
ENDBRANCH   4  19
BRANCH   4  21
HETATM   21  O   UNL     1     -10.056  13.540  65.472  1.00  0.00    -0.295 OA 
BRANCH  21  22
HETATM   22  C   UNL     1     -10.271  12.726  64.413  1.00  0.00    -0.319 C  
HETATM   23  O   UNL     1     -10.729  13.076  63.334  1.00  0.00    -0.106 OA 
HETATM   24  C   UNL     1     -10.026  11.291  64.816  1.00  0.00    -0.327 C  
ENDBRANCH  21  22
ENDBRANCH   4  21
BRANCH  10  25
HETATM   25  O   UNL     1      -7.429   6.830  70.245  1.00  0.00    -0.085 OA 
BRANCH  25  26
HETATM   26  C   UNL     1      -7.936   5.991  69.293  1.00  0.00    -0.103 C  
HETATM   27  C   UNL     1      -8.960   5.078  69.893  1.00  0.00    -0.142 C  
HETATM   28  O   UNL     1      -7.667   6.016  68.099  1.00  0.00    -0.098 OA 
ENDBRANCH  25  26
ENDBRANCH  10  25
TORSDOF 5
ENDMDL
MODEL       66
REMARK 921   NORMALIZED FREE ENERGY PREDICTED BY IDOCK:   -3.82 KCAL/MOL
REMARK 922        TOTAL FREE ENERGY PREDICTED BY IDOCK:   -4.78 KCAL/MOL
REMARK 923 INTER-LIGAND FREE ENERGY PREDICTED BY IDOCK:   -5.12 KCAL/MOL
REMARK 924 INTRA-LIGAND FREE ENERGY PREDICTED BY IDOCK:    0.34 KCAL/MOL
REMARK 927      BINDING AFFINITY PREDICTED BY RF-SCORE:    0.00 PKD
ROOT
HETATM    1  C   UNL     1     -10.924  10.171  70.197  1.00  0.00    -0.376 C  
HETATM    2  C   UNL     1     -12.331  10.114  70.051  1.00  0.00    -0.076 C  
HETATM    3  C   UNL     1     -11.534   9.765  68.848  1.00  0.00     0.098 C  
HETATM    4  C   UNL     1      -9.504   9.512  69.143  1.00  0.00    -0.163 C  
HETATM    5  C   UNL     1     -10.315  11.729  69.419  1.00  0.00     0.196 C  
HETATM    6  C   UNL     1     -11.217  15.119  66.872  1.00  0.00    -0.292 C  
HETATM    7  C   UNL     1     -10.525   8.597  69.101  1.00  0.00    -0.223 C  
HETATM    8  C   UNL     1     -10.775   7.190  69.560  1.00  0.00    -0.255 C  
HETATM    9  C   UNL     1     -10.480   8.818  67.234  1.00  0.00    -0.353 C  
HETATM   10  C   UNL     1     -11.129  15.088  65.358  1.00  0.00    -0.374 C  
HETATM   11  C   UNL     1     -11.049  12.983  69.963  1.00  0.00     0.373 C  
HETATM   12  C   UNL     1     -10.004  10.402  66.835  1.00  0.00    -0.254 C  
HETATM   13  C   UNL     1     -10.758  14.314  69.222  1.00  0.00    -0.194 C  
HETATM   14  C   UNL     1     -10.618  14.239  67.707  1.00  0.00    -0.253 C  
HETATM   15  C   UNL     1     -10.375  11.760  67.763  1.00  0.00    -0.211 C  
HETATM   16  C   UNL     1      -9.790  13.075  67.177  1.00  0.00    -0.230 C  
HETATM   17  C   UNL     1      -9.876  12.936  65.647  1.00  0.00    -0.185 C  
HETATM   18  C   UNL     1      -9.999  14.196  64.846  1.00  0.00    -0.151 C  
ENDROOT
BRANCH   4  19
HETATM   19  C   UNL     1      -8.802   9.231  70.527  1.00  0.00    -0.285 C  
HETATM   20  C   UNL     1      -8.260   8.939  71.562  1.00  0.00    -0.143 C  
ENDBRANCH   4  19
BRANCH   4  21
HETATM   21  O   UNL     1      -8.513   8.837  68.280  1.00  0.00    -0.128 OA 
BRANCH  21  22
HETATM   22  C   UNL     1      -7.287   9.375  68.084  1.00  0.00    -0.078 C  
HETATM   23  O   UNL     1      -6.935  10.487  68.454  1.00  0.00    -0.064 OA 
HETATM   24  C   UNL     1      -6.472   8.472  67.189  1.00  0.00    -0.058 C  
ENDBRANCH  21  22
ENDBRANCH   4  21
BRANCH  10  25
HETATM   25  O   UNL     1     -10.880  16.415  64.862  1.00  0.00    -0.655 OA 
BRANCH  25  26
HETATM   26  C   UNL     1      -9.939  17.113  65.565  1.00  0.00     0.113 C  
HETATM   27  C   UNL     1     -10.507  18.409  66.055  1.00  0.00    -0.400 C  
HETATM   28  O   UNL     1      -8.812  16.720  65.838  1.00  0.00    -0.499 OA 
ENDBRANCH  25  26
ENDBRANCH  10  25
TORSDOF 5
ENDMDL
MODEL       67
REMARK 921   NORMALIZED FREE ENERGY PREDICTED BY IDOCK:   -3.77 KCAL/MOL
REMARK 922        TOTAL FREE ENERGY PREDICTED BY IDOCK:   -4.71 KCAL/MOL
REMARK 923 INTER-LIGAND FREE ENERGY PREDICTED BY IDOCK:   -5.21 KCAL/MOL
REMARK 924 INTRA-LIGAND FREE ENERGY PREDICTED BY IDOCK:    0.50 KCAL/MOL
REMARK 927      BINDING AFFINITY PREDICTED BY RF-SCORE:    0.00 PKD
ROOT
HETATM    1  C   UNL     1     -11.136   8.138  71.773  1.00  0.00    -0.329 C  
HETATM    2  C   UNL     1     -12.436   7.927  71.252  1.00  0.00    -0.283 C  
HETATM    3  C   UNL     1     -11.368   7.040  70.726  1.00  0.00    -0.339 C  
HETATM    4  C   UNL     1      -9.557   7.107  71.721  1.00  0.00    -0.151 C  
HETATM    5  C   UNL     1     -10.149   9.075  70.527  1.00  0.00    -0.263 C  
HETATM    6  C   UNL     1      -9.865  10.522  66.450  1.00  0.00    -0.260 C  
HETATM    7  C   UNL     1     -10.620   6.250  71.851  1.00  0.00    -0.258 C  
HETATM    8  C   UNL     1     -11.156   5.293  72.876  1.00  0.00    -0.365 C  
HETATM    9  C   UNL     1     -10.006   5.444  70.268  1.00  0.00    -0.298 C  
HETATM   10  C   UNL     1      -9.342   9.693  65.292  1.00  0.00    -0.260 C  
HETATM   11  C   UNL     1     -10.859  10.379  70.074  1.00  0.00    -0.348 C  
HETATM   12  C   UNL     1      -9.253   6.596  69.267  1.00  0.00    -0.140 C  
HETATM   13  C   UNL     1     -10.210  11.124  68.879  1.00  0.00    -0.209 C  
HETATM   14  C   UNL     1      -9.643  10.262  67.759  1.00  0.00    -0.171 C  
HETATM   15  C   UNL     1      -9.717   8.214  69.178  1.00  0.00    -0.163 C  
HETATM   16  C   UNL     1      -8.838   9.047  68.204  1.00  0.00    -0.133 C  
HETATM   17  C   UNL     1      -8.488   8.108  67.036  1.00  0.00    -0.120 C  
HETATM   18  C   UNL     1      -8.223   8.736  65.703  1.00  0.00    -0.121 C  
ENDROOT
BRANCH   4  19
HETATM   19  C   UNL     1      -9.328   7.651  73.183  1.00  0.00    -0.289 C  
HETATM   20  C   UNL     1      -9.127   7.992  74.320  1.00  0.00     0.271 C  
ENDBRANCH   4  19
BRANCH   4  21
HETATM   21  O   UNL     1      -8.443   6.137  71.695  1.00  0.00    -0.128 OA 
BRANCH  21  22
HETATM   22  C   UNL     1      -7.171   6.551  71.484  1.00  0.00    -0.082 C  
HETATM   23  O   UNL     1      -6.832   7.702  71.249  1.00  0.00    -0.048 OA 
HETATM   24  C   UNL     1      -6.253   5.354  71.411  1.00  0.00    -0.034 C  
ENDBRANCH  21  22
ENDBRANCH   4  21
BRANCH  10  25
HETATM   25  O   UNL     1      -8.806  10.563  64.280  1.00  0.00    -0.187 OA 
BRANCH  25  26
HETATM   26  C   UNL     1      -8.322   9.915  63.178  1.00  0.00    -0.166 C  
HETATM   27  C   UNL     1      -7.484  10.840  62.353  1.00  0.00    -0.138 C  
HETATM   28  O   UNL     1      -8.472   8.727  62.923  1.00  0.00    -0.194 OA 
ENDBRANCH  25  26
ENDBRANCH  10  25
TORSDOF 5
ENDMDL
MODEL       68
REMARK 921   NORMALIZED FREE ENERGY PREDICTED BY IDOCK:   -3.75 KCAL/MOL
REMARK 922        TOTAL FREE ENERGY PREDICTED BY IDOCK:   -4.69 KCAL/MOL
REMARK 923 INTER-LIGAND FREE ENERGY PREDICTED BY IDOCK:   -5.54 KCAL/MOL
REMARK 924 INTRA-LIGAND FREE ENERGY PREDICTED BY IDOCK:    0.85 KCAL/MOL
REMARK 927      BINDING AFFINITY PREDICTED BY RF-SCORE:    0.00 PKD
ROOT
HETATM    1  C   UNL     1      -7.945  18.124  67.168  1.00  0.00    -0.230 C  
HETATM    2  C   UNL     1      -7.284  18.256  65.922  1.00  0.00    -0.270 C  
HETATM    3  C   UNL     1      -8.414  17.295  65.964  1.00  0.00    -0.136 C  
HETATM    4  C   UNL     1      -9.592  17.348  67.661  1.00  0.00    -0.261 C  
HETATM    5  C   UNL     1      -7.369  16.569  67.976  1.00  0.00    -0.151 C  
HETATM    6  C   UNL     1      -5.227  12.823  67.551  1.00  0.00    -0.072 C  
HETATM    7  C   UNL     1      -9.754  17.947  66.438  1.00  0.00    -0.321 C  
HETATM    8  C   UNL     1     -10.524  19.099  65.860  1.00  0.00    -0.500 C  
HETATM    9  C   UNL     1     -10.287  16.255  65.818  1.00  0.00    -0.393 C  
HETATM   10  C   UNL     1      -5.848  11.551  67.007  1.00  0.00    -0.120 C  
HETATM   11  C   UNL     1      -5.822  16.499  68.081  1.00  0.00    -0.124 C  
HETATM   12  C   UNL     1      -9.483  15.026  66.677  1.00  0.00    -0.288 C  
HETATM   13  C   UNL     1      -5.235  15.143  68.551  1.00  0.00    -0.100 C  
HETATM   14  C   UNL     1      -5.916  13.883  68.033  1.00  0.00    -0.140 C  
HETATM   15  C   UNL     1      -7.914  15.168  67.277  1.00  0.00    -0.234 C  
HETATM   16  C   UNL     1      -7.440  13.904  68.046  1.00  0.00    -0.135 C  
HETATM   17  C   UNL     1      -8.054  12.700  67.310  1.00  0.00    -0.178 C  
HETATM   18  C   UNL     1      -7.320  11.397  67.386  1.00  0.00    -0.119 C  
ENDROOT
BRANCH   4  19
HETATM   19  C   UNL     1      -9.681  18.545  68.685  1.00  0.00    -0.398 C  
HETATM   20  C   UNL     1      -9.816  19.484  69.426  1.00  0.00    -0.243 C  
ENDBRANCH   4  19
BRANCH   4  21
HETATM   21  O   UNL     1     -10.952  16.809  67.870  1.00  0.00    -0.337 OA 
BRANCH  21  22
HETATM   22  C   UNL     1     -11.243  16.075  68.969  1.00  0.00    -0.347 C  
HETATM   23  O   UNL     1     -10.625  16.106  70.024  1.00  0.00    -0.300 OA 
HETATM   24  C   UNL     1     -12.337  15.085  68.645  1.00  0.00     0.050 C  
ENDBRANCH  21  22
ENDBRANCH   4  21
BRANCH  10  25
HETATM   25  O   UNL     1      -5.151  10.409  67.538  1.00  0.00    -0.037 OA 
BRANCH  25  26
HETATM   26  C   UNL     1      -5.965   9.377  67.913  1.00  0.00    -0.052 C  
HETATM   27  C   UNL     1      -6.031   8.344  66.832  1.00  0.00    -0.053 C  
HETATM   28  O   UNL     1      -6.509   9.253  69.003  1.00  0.00    -0.046 OA 
ENDBRANCH  25  26
ENDBRANCH  10  25
TORSDOF 5
ENDMDL
MODEL       69
REMARK 921   NORMALIZED FREE ENERGY PREDICTED BY IDOCK:   -3.67 KCAL/MOL
REMARK 922        TOTAL FREE ENERGY PREDICTED BY IDOCK:   -4.58 KCAL/MOL
REMARK 923 INTER-LIGAND FREE ENERGY PREDICTED BY IDOCK:   -4.42 KCAL/MOL
REMARK 924 INTRA-LIGAND FREE ENERGY PREDICTED BY IDOCK:   -0.17 KCAL/MOL
REMARK 927      BINDING AFFINITY PREDICTED BY RF-SCORE:    0.00 PKD
ROOT
HETATM    1  C   UNL     1      -7.701  13.228  68.156  1.00  0.00    -0.143 C  
HETATM    2  C   UNL     1      -6.665  12.930  67.237  1.00  0.00    -0.056 C  
HETATM    3  C   UNL     1      -8.051  12.704  66.757  1.00  0.00     0.073 C  
HETATM    4  C   UNL     1      -9.562  13.453  67.950  1.00  0.00    -0.216 C  
HETATM    5  C   UNL     1      -8.324  11.646  68.872  1.00  0.00     0.034 C  
HETATM    6  C   UNL     1      -8.375   7.317  68.640  1.00  0.00    -0.125 C  
HETATM    7  C   UNL     1      -8.946  13.984  66.846  1.00  0.00    -0.243 C  
HETATM    8  C   UNL     1      -8.760  15.336  66.220  1.00  0.00    -0.188 C  
HETATM    9  C   UNL     1      -9.992  12.788  65.841  1.00  0.00    -0.273 C  
HETATM   10  C   UNL     1      -9.306   6.529  67.739  1.00  0.00    -0.118 C  
HETATM   11  C   UNL     1      -7.183  10.785  69.476  1.00  0.00    -0.132 C  
HETATM   12  C   UNL     1     -10.290  11.368  66.729  1.00  0.00    -0.271 C  
HETATM   13  C   UNL     1      -7.575   9.349  69.911  1.00  0.00    -0.109 C  
HETATM   14  C   UNL     1      -8.556   8.605  69.014  1.00  0.00    -0.129 C  
HETATM   15  C   UNL     1      -9.204  10.701  67.833  1.00  0.00    -0.150 C  
HETATM   16  C   UNL     1      -9.747   9.418  68.521  1.00  0.00    -0.160 C  
HETATM   17  C   UNL     1     -10.569   8.675  67.452  1.00  0.00    -0.298 C  
HETATM   18  C   UNL     1     -10.676   7.187  67.576  1.00  0.00    -0.344 C  
ENDROOT
BRANCH   4  19
HETATM   19  C   UNL     1      -9.400  14.573  69.049  1.00  0.00    -0.071 C  
HETATM   20  C   UNL     1      -9.304  15.373  69.943  1.00  0.00    -0.003 C  
ENDBRANCH   4  19
BRANCH   4  21
HETATM   21  O   UNL     1     -10.976  13.715  67.610  1.00  0.00    -0.259 OA 
BRANCH  21  22
HETATM   22  C   UNL     1     -11.891  13.939  68.583  1.00  0.00    -0.372 C  
HETATM   23  O   UNL     1     -12.458  15.003  68.789  1.00  0.00    -0.021 OA 
HETATM   24  C   UNL     1     -11.980  12.731  69.485  1.00  0.00    -0.338 C  
ENDBRANCH  21  22
ENDBRANCH   4  21
BRANCH  10  25
HETATM   25  O   UNL     1      -9.527   5.222  68.298  1.00  0.00    -0.114 OA 
BRANCH  25  26
HETATM   26  C   UNL     1      -9.105   4.192  67.506  1.00  0.00    -0.140 C  
HETATM   27  C   UNL     1      -8.100   3.352  68.231  1.00  0.00    -0.080 C  
HETATM   28  O   UNL     1      -9.532   3.925  66.390  1.00  0.00    -0.172 OA 
ENDBRANCH  25  26
ENDBRANCH  10  25
TORSDOF 5
ENDMDL
MODEL       70
REMARK 921   NORMALIZED FREE ENERGY PREDICTED BY IDOCK:   -3.65 KCAL/MOL
REMARK 922        TOTAL FREE ENERGY PREDICTED BY IDOCK:   -4.56 KCAL/MOL
REMARK 923 INTER-LIGAND FREE ENERGY PREDICTED BY IDOCK:   -4.43 KCAL/MOL
REMARK 924 INTRA-LIGAND FREE ENERGY PREDICTED BY IDOCK:   -0.13 KCAL/MOL
REMARK 927      BINDING AFFINITY PREDICTED BY RF-SCORE:    0.00 PKD
ROOT
HETATM    1  C   UNL     1      -7.742   7.855  65.921  1.00  0.00    -0.093 C  
HETATM    2  C   UNL     1      -8.373   6.843  65.158  1.00  0.00    -0.080 C  
HETATM    3  C   UNL     1      -9.261   7.658  66.024  1.00  0.00    -0.118 C  
HETATM    4  C   UNL     1      -8.412   9.342  66.869  1.00  0.00    -0.127 C  
HETATM    5  C   UNL     1      -7.578   7.261  67.661  1.00  0.00    -0.110 C  
HETATM    6  C   UNL     1      -8.716   4.304  70.620  1.00  0.00    -0.121 C  
HETATM    7  C   UNL     1      -9.161   9.192  65.731  1.00  0.00    -0.294 C  
HETATM    8  C   UNL     1      -9.412   9.948  64.459  1.00  0.00    -0.328 C  
HETATM    9  C   UNL     1     -10.647   9.061  66.875  1.00  0.00    -0.243 C  
HETATM   10  C   UNL     1      -9.987   4.377  71.444  1.00  0.00    -0.178 C  
HETATM   11  C   UNL     1      -6.872   5.882  67.747  1.00  0.00    -0.060 C  
HETATM   12  C   UNL     1     -10.197   8.354  68.356  1.00  0.00    -0.239 C  
HETATM   13  C   UNL     1      -6.875   5.205  69.142  1.00  0.00    -0.054 C  
HETATM   14  C   UNL     1      -8.147   5.345  69.969  1.00  0.00    -0.085 C  
HETATM   15  C   UNL     1      -8.997   7.181  68.515  1.00  0.00    -0.127 C  
HETATM   16  C   UNL     1      -8.774   6.733  69.986  1.00  0.00    -0.141 C  
HETATM   17  C   UNL     1     -10.162   6.749  70.651  1.00  0.00    -0.216 C  
HETATM   18  C   UNL     1     -10.387   5.809  71.796  1.00  0.00    -0.271 C  
ENDROOT
BRANCH   4  19
HETATM   19  C   UNL     1      -7.102  10.065  66.369  1.00  0.00    -0.102 C  
HETATM   20  C   UNL     1      -6.124  10.680  66.033  1.00  0.00    -0.131 C  
ENDBRANCH   4  19
BRANCH   4  21
HETATM   21  O   UNL     1      -9.073  10.523  67.463  1.00  0.00    -0.138 OA 
BRANCH  21  22
HETATM   22  C   UNL     1      -8.437  11.279  68.387  1.00  0.00    -0.153 C  
HETATM   23  O   UNL     1      -8.268  12.489  68.317  1.00  0.00    -0.162 OA 
HETATM   24  C   UNL     1      -7.815  10.386  69.435  1.00  0.00    -0.163 C  
ENDBRANCH  21  22
ENDBRANCH   4  21
BRANCH  10  25
HETATM   25  O   UNL     1      -9.799   3.672  72.684  1.00  0.00    -0.137 OA 
BRANCH  25  26
HETATM   26  C   UNL     1     -10.349   2.422  72.711  1.00  0.00    -0.159 C  
HETATM   27  C   UNL     1     -11.515   2.383  73.649  1.00  0.00    -0.278 C  
HETATM   28  O   UNL     1     -10.007   1.473  72.016  1.00  0.00    -0.118 OA 
ENDBRANCH  25  26
ENDBRANCH  10  25
TORSDOF 5
ENDMDL
MODEL       71
REMARK 921   NORMALIZED FREE ENERGY PREDICTED BY IDOCK:   -3.59 KCAL/MOL
REMARK 922        TOTAL FREE ENERGY PREDICTED BY IDOCK:   -4.48 KCAL/MOL
REMARK 923 INTER-LIGAND FREE ENERGY PREDICTED BY IDOCK:   -4.30 KCAL/MOL
REMARK 924 INTRA-LIGAND FREE ENERGY PREDICTED BY IDOCK:   -0.18 KCAL/MOL
REMARK 927      BINDING AFFINITY PREDICTED BY RF-SCORE:    0.00 PKD
ROOT
HETATM    1  C   UNL     1     -10.194  15.758  69.222  1.00  0.00    -0.248 C  
HETATM    2  C   UNL     1      -9.240  15.683  70.266  1.00  0.00     0.731 C  
HETATM    3  C   UNL     1      -8.937  14.894  69.045  1.00  0.00    -0.174 C  
HETATM    4  C   UNL     1     -10.135  15.264  67.402  1.00  0.00    -0.232 C  
HETATM    5  C   UNL     1     -11.212  14.219  69.245  1.00  0.00    -0.309 C  
HETATM    6  C   UNL     1     -11.686  10.191  70.777  1.00  0.00    -0.446 C  
HETATM    7  C   UNL     1      -8.905  15.765  67.746  1.00  0.00    -0.173 C  
HETATM    8  C   UNL     1      -8.055  16.954  67.404  1.00  0.00    -0.193 C  
HETATM    9  C   UNL     1      -8.211  14.112  67.181  1.00  0.00    -0.166 C  
HETATM   10  C   UNL     1     -11.016   8.971  70.173  1.00  0.00    -0.233 C  
HETATM   11  C   UNL     1     -11.834  13.946  70.640  1.00  0.00    -0.292 C  
HETATM   12  C   UNL     1      -9.340  12.869  67.453  1.00  0.00    -0.194 C  
HETATM   13  C   UNL     1     -12.530  12.572  70.815  1.00  0.00    -0.357 C  
HETATM   14  C   UNL     1     -11.863  11.375  70.148  1.00  0.00    -0.440 C  
HETATM   15  C   UNL     1     -10.428  12.848  68.740  1.00  0.00    -0.183 C  
HETATM   16  C   UNL     1     -11.362  11.606  68.728  1.00  0.00    -0.324 C  
HETATM   17  C   UNL     1     -10.511  10.437  68.203  1.00  0.00    -0.221 C  
HETATM   18  C   UNL     1     -10.883   9.058  68.653  1.00  0.00    -0.061 C  
ENDROOT
BRANCH   4  19
HETATM   19  C   UNL     1     -11.018  16.551  67.176  1.00  0.00    -0.049 C  
HETATM   20  C   UNL     1     -11.640  17.556  66.946  1.00  0.00     1.507 C  
ENDBRANCH   4  19
BRANCH   4  21
HETATM   21  O   UNL     1      -9.894  14.939  65.980  1.00  0.00    -0.282 OA 
BRANCH  21  22
HETATM   22  C   UNL     1     -10.923  14.879  65.102  1.00  0.00    -0.399 C  
HETATM   23  O   UNL     1     -11.093  15.639  64.159  1.00  0.00    -0.181 OA 
HETATM   24  C   UNL     1     -11.922  13.842  65.560  1.00  0.00    -0.397 C  
ENDBRANCH  21  22
ENDBRANCH   4  21
BRANCH  10  25
HETATM   25  O   UNL     1     -11.797   7.799  70.464  1.00  0.00    -0.188 OA 
BRANCH  25  26
HETATM   26  C   UNL     1     -11.293   7.021  71.468  1.00  0.00    -0.258 C  
HETATM   27  C   UNL     1     -10.933   5.664  70.948  1.00  0.00    -0.257 C  
HETATM   28  O   UNL     1     -11.081   7.384  72.618  1.00  0.00    -0.282 OA 
ENDBRANCH  25  26
ENDBRANCH  10  25
TORSDOF 5
ENDMDL
MODEL       72
REMARK 921   NORMALIZED FREE ENERGY PREDICTED BY IDOCK:   -3.55 KCAL/MOL
REMARK 922        TOTAL FREE ENERGY PREDICTED BY IDOCK:   -4.42 KCAL/MOL
REMARK 923 INTER-LIGAND FREE ENERGY PREDICTED BY IDOCK:   -4.86 KCAL/MOL
REMARK 924 INTRA-LIGAND FREE ENERGY PREDICTED BY IDOCK:    0.43 KCAL/MOL
REMARK 927      BINDING AFFINITY PREDICTED BY RF-SCORE:    0.00 PKD
ROOT
HETATM    1  C   UNL     1      -9.472   9.356  65.312  1.00  0.00    -0.296 C  
HETATM    2  C   UNL     1      -8.926   9.731  64.061  1.00  0.00    -0.275 C  
HETATM    3  C   UNL     1      -7.950   9.472  65.148  1.00  0.00    -0.117 C  
HETATM    4  C   UNL     1      -8.707   8.598  66.861  1.00  0.00    -0.124 C  
HETATM    5  C   UNL     1      -9.432  10.821  66.433  1.00  0.00    -0.200 C  
HETATM    6  C   UNL     1      -7.948  14.834  67.127  1.00  0.00    -0.205 C  
HETATM    7  C   UNL     1      -8.091   8.043  65.769  1.00  0.00    -0.121 C  
HETATM    8  C   UNL     1      -7.991   6.695  65.116  1.00  0.00    -0.124 C  
HETATM    9  C   UNL     1      -6.484   8.682  66.504  1.00  0.00    -0.059 C  
HETATM   10  C   UNL     1      -6.591  15.142  67.731  1.00  0.00    -0.165 C  
HETATM   11  C   UNL     1     -10.117  12.062  65.803  1.00  0.00    -0.267 C  
HETATM   12  C   UNL     1      -6.758  10.118  67.375  1.00  0.00    -0.073 C  
HETATM   13  C   UNL     1      -9.950  13.395  66.577  1.00  0.00    -0.286 C  
HETATM   14  C   UNL     1      -8.593  13.649  67.221  1.00  0.00    -0.220 C  
HETATM   15  C   UNL     1      -7.925  11.262  66.964  1.00  0.00    -0.150 C  
HETATM   16  C   UNL     1      -7.976  12.462  67.950  1.00  0.00    -0.155 C  
HETATM   17  C   UNL     1      -6.522  12.722  68.380  1.00  0.00    -0.080 C  
HETATM   18  C   UNL     1      -6.162  14.119  68.782  1.00  0.00    -0.086 C  
ENDROOT
BRANCH   4  19
HETATM   19  C   UNL     1     -10.068   7.810  66.970  1.00  0.00    -0.343 C  
HETATM   20  C   UNL     1     -11.144   7.279  67.073  1.00  0.00    -0.066 C  
ENDBRANCH   4  19
BRANCH   4  21
HETATM   21  O   UNL     1      -7.988   7.900  67.948  1.00  0.00    -0.123 OA 
BRANCH  21  22
HETATM   22  C   UNL     1      -8.567   7.726  69.159  1.00  0.00    -0.138 C  
HETATM   23  O   UNL     1      -8.867   6.647  69.652  1.00  0.00    -0.141 OA 
HETATM   24  C   UNL     1      -8.946   9.069  69.738  1.00  0.00    -0.157 C  
ENDBRANCH  21  22
ENDBRANCH   4  21
BRANCH  10  25
HETATM   25  O   UNL     1      -6.632  16.426  68.380  1.00  0.00    -0.130 OA 
BRANCH  25  26
HETATM   26  C   UNL     1      -7.866  16.781  68.848  1.00  0.00    -0.244 C  
HETATM   27  C   UNL     1      -8.265  18.118  68.307  1.00  0.00    -0.300 C  
HETATM   28  O   UNL     1      -8.594  16.088  69.547  1.00  0.00    -0.211 OA 
ENDBRANCH  25  26
ENDBRANCH  10  25
TORSDOF 5
ENDMDL
MODEL       73
REMARK 921   NORMALIZED FREE ENERGY PREDICTED BY IDOCK:   -3.52 KCAL/MOL
REMARK 922        TOTAL FREE ENERGY PREDICTED BY IDOCK:   -4.38 KCAL/MOL
REMARK 923 INTER-LIGAND FREE ENERGY PREDICTED BY IDOCK:   -5.73 KCAL/MOL
REMARK 924 INTRA-LIGAND FREE ENERGY PREDICTED BY IDOCK:    1.35 KCAL/MOL
REMARK 927      BINDING AFFINITY PREDICTED BY RF-SCORE:    0.00 PKD
ROOT
HETATM    1  C   UNL     1      -9.763   4.530  70.315  1.00  0.00    -0.287 C  
HETATM    2  C   UNL     1      -9.020   3.780  69.370  1.00  0.00    -0.175 C  
HETATM    3  C   UNL     1      -8.282   4.858  70.076  1.00  0.00    -0.073 C  
HETATM    4  C   UNL     1      -9.249   5.720  71.685  1.00  0.00    -0.146 C  
HETATM    5  C   UNL     1     -10.213   6.150  69.555  1.00  0.00    -0.250 C  
HETATM    6  C   UNL     1      -9.592   8.939  66.295  1.00  0.00    -0.328 C  
HETATM    7  C   UNL     1      -8.324   4.709  71.632  1.00  0.00    -0.105 C  
HETATM    8  C   UNL     1      -7.863   3.579  72.506  1.00  0.00    -0.068 C  
HETATM    9  C   UNL     1      -7.046   6.060  71.356  1.00  0.00    -0.078 C  
HETATM   10  C   UNL     1      -8.473   9.962  66.257  1.00  0.00    -0.128 C  
HETATM   11  C   UNL     1     -10.932   5.980  68.191  1.00  0.00    -0.340 C  
HETATM   12  C   UNL     1      -7.737   7.369  70.516  1.00  0.00    -0.096 C  
HETATM   13  C   UNL     1     -11.160   7.281  67.378  1.00  0.00    -0.138 C  
HETATM   14  C   UNL     1     -10.041   8.314  67.407  1.00  0.00    -0.298 C  
HETATM   15  C   UNL     1      -8.954   7.211  69.360  1.00  0.00    -0.136 C  
HETATM   16  C   UNL     1      -9.417   8.573  68.773  1.00  0.00    -0.143 C  
HETATM   17  C   UNL     1      -8.158   9.453  68.691  1.00  0.00    -0.104 C  
HETATM   18  C   UNL     1      -8.128  10.518  67.639  1.00  0.00    -0.107 C  
ENDROOT
BRANCH   4  19
HETATM   19  C   UNL     1     -10.454   5.089  72.483  1.00  0.00    -0.270 C  
HETATM   20  C   UNL     1     -11.360   4.663  73.151  1.00  0.00    -0.355 C  
ENDBRANCH   4  19
BRANCH   4  21
HETATM   21  O   UNL     1      -8.687   6.530  72.786  1.00  0.00    -0.125 OA 
BRANCH  21  22
HETATM   22  C   UNL     1      -9.177   7.763  73.057  1.00  0.00    -0.226 C  
HETATM   23  O   UNL     1      -8.659   8.581  73.805  1.00  0.00    -0.307 OA 
HETATM   24  C   UNL     1     -10.545   7.915  72.434  1.00  0.00    -0.359 C  
ENDBRANCH  21  22
ENDBRANCH   4  21
BRANCH  10  25
HETATM   25  O   UNL     1      -8.866  11.077  65.437  1.00  0.00    -0.192 OA 
BRANCH  25  26
HETATM   26  C   UNL     1     -10.180  11.430  65.558  1.00  0.00    -0.264 C  
HETATM   27  C   UNL     1     -10.897  11.229  64.259  1.00  0.00    -0.398 C  
HETATM   28  O   UNL     1     -10.735  11.785  66.590  1.00  0.00    -0.241 OA 
ENDBRANCH  25  26
ENDBRANCH  10  25
TORSDOF 5
ENDMDL
MODEL       74
REMARK 921   NORMALIZED FREE ENERGY PREDICTED BY IDOCK:   -3.42 KCAL/MOL
REMARK 922        TOTAL FREE ENERGY PREDICTED BY IDOCK:   -4.27 KCAL/MOL
REMARK 923 INTER-LIGAND FREE ENERGY PREDICTED BY IDOCK:   -4.64 KCAL/MOL
REMARK 924 INTRA-LIGAND FREE ENERGY PREDICTED BY IDOCK:    0.37 KCAL/MOL
REMARK 927      BINDING AFFINITY PREDICTED BY RF-SCORE:    0.00 PKD
ROOT
HETATM    1  C   UNL     1      -9.017  15.143  67.607  1.00  0.00    -0.183 C  
HETATM    2  C   UNL     1      -8.434  15.040  66.321  1.00  0.00     0.196 C  
HETATM    3  C   UNL     1      -9.794  14.464  66.470  1.00  0.00    -0.298 C  
HETATM    4  C   UNL     1     -10.783  14.911  68.229  1.00  0.00    -0.249 C  
HETATM    5  C   UNL     1      -8.878  13.507  68.448  1.00  0.00    -0.146 C  
HETATM    6  C   UNL     1      -7.986   9.282  68.066  1.00  0.00    -0.100 C  
HETATM    7  C   UNL     1     -10.843  15.501  66.992  1.00  0.00    -0.314 C  
HETATM    8  C   UNL     1     -11.271  16.816  66.409  1.00  0.00     0.509 C  
HETATM    9  C   UNL     1     -11.898  14.032  66.479  1.00  0.00    -0.439 C  
HETATM   10  C   UNL     1      -8.994   8.242  67.615  1.00  0.00    -0.135 C  
HETATM   11  C   UNL     1      -7.419  12.978  68.466  1.00  0.00    -0.123 C  
HETATM   12  C   UNL     1     -11.439  12.640  67.343  1.00  0.00    -0.397 C  
HETATM   13  C   UNL     1      -7.232  11.521  68.962  1.00  0.00    -0.106 C  
HETATM   14  C   UNL     1      -8.293  10.512  68.539  1.00  0.00    -0.129 C  
HETATM   15  C   UNL     1      -9.863  12.318  67.845  1.00  0.00    -0.201 C  
HETATM   16  C   UNL     1      -9.736  10.989  68.640  1.00  0.00    -0.198 C  
HETATM   17  C   UNL     1     -10.731  10.009  67.994  1.00  0.00    -0.303 C  
HETATM   18  C   UNL     1     -10.416   8.548  68.085  1.00  0.00    -0.236 C  
ENDROOT
BRANCH   4  19
HETATM   19  C   UNL     1     -10.441  16.104  69.202  1.00  0.00    -0.265 C  
HETATM   20  C   UNL     1     -10.136  17.048  69.884  1.00  0.00     0.342 C  
ENDBRANCH   4  19
BRANCH   4  21
HETATM   21  O   UNL     1     -12.224  14.812  68.539  1.00  0.00    -0.215 OA 
BRANCH  21  22
HETATM   22  C   UNL     1     -12.656  14.805  69.822  1.00  0.00    -0.120 C  
HETATM   23  O   UNL     1     -13.101  15.773  70.424  1.00  0.00    -0.399 OA 
HETATM   24  C   UNL     1     -12.346  13.469  70.456  1.00  0.00    -0.412 C  
ENDBRANCH  21  22
ENDBRANCH   4  21
BRANCH  10  25
HETATM   25  O   UNL     1      -8.636   6.957  68.155  1.00  0.00    -0.123 OA 
BRANCH  25  26
HETATM   26  C   UNL     1      -9.136   6.712  69.403  1.00  0.00    -0.143 C  
HETATM   27  C   UNL     1     -10.099   5.566  69.364  1.00  0.00    -0.306 C  
HETATM   28  O   UNL     1      -8.800   7.280  70.434  1.00  0.00    -0.148 OA 
ENDBRANCH  25  26
ENDBRANCH  10  25
TORSDOF 5
ENDMDL
MODEL       75
REMARK 921   NORMALIZED FREE ENERGY PREDICTED BY IDOCK:   -3.36 KCAL/MOL
REMARK 922        TOTAL FREE ENERGY PREDICTED BY IDOCK:   -4.18 KCAL/MOL
REMARK 923 INTER-LIGAND FREE ENERGY PREDICTED BY IDOCK:   -4.48 KCAL/MOL
REMARK 924 INTRA-LIGAND FREE ENERGY PREDICTED BY IDOCK:    0.30 KCAL/MOL
REMARK 927      BINDING AFFINITY PREDICTED BY RF-SCORE:    0.00 PKD
ROOT
HETATM    1  C   UNL     1     -11.398   9.492  70.916  1.00  0.00    -0.410 C  
HETATM    2  C   UNL     1     -12.792   9.243  70.884  1.00  0.00    -0.098 C  
HETATM    3  C   UNL     1     -11.980   8.547  69.855  1.00  0.00     0.713 C  
HETATM    4  C   UNL     1      -9.930   8.629  70.103  1.00  0.00    -0.182 C  
HETATM    5  C   UNL     1     -10.986  10.692  69.577  1.00  0.00    -0.321 C  
HETATM    6  C   UNL     1     -12.315  12.758  66.004  1.00  0.00    -0.251 C  
HETATM    7  C   UNL     1     -10.839   7.668  70.466  1.00  0.00    -0.249 C  
HETATM    8  C   UNL     1     -10.918   6.523  71.433  1.00  0.00    -0.303 C  
HETATM    9  C   UNL     1     -10.851   7.171  68.654  1.00  0.00    -0.149 C  
HETATM   10  C   UNL     1     -12.248  12.165  64.610  1.00  0.00    -0.298 C  
HETATM   11  C   UNL     1     -11.850  11.979  69.654  1.00  0.00    -0.401 C  
HETATM   12  C   UNL     1     -10.568   8.525  67.663  1.00  0.00    -0.268 C  
HETATM   13  C   UNL     1     -11.727  12.952  68.454  1.00  0.00    -0.382 C  
HETATM   14  C   UNL     1     -11.605  12.324  67.071  1.00  0.00    -0.418 C  
HETATM   15  C   UNL     1     -11.076  10.088  68.036  1.00  0.00    -0.263 C  
HETATM   16  C   UNL     1     -10.657  11.136  66.967  1.00  0.00    -0.295 C  
HETATM   17  C   UNL     1     -10.751  10.420  65.608  1.00  0.00     0.005 C  
HETATM   18  C   UNL     1     -11.032  11.264  64.403  1.00  0.00    -0.331 C  
ENDROOT
BRANCH   4  19
HETATM   19  C   UNL     1      -9.177   8.965  71.448  1.00  0.00    -0.328 C  
HETATM   20  C   UNL     1      -8.592   9.141  72.485  1.00  0.00     0.877 C  
ENDBRANCH   4  19
BRANCH   4  21
HETATM   21  O   UNL     1      -8.882   7.780  69.498  1.00  0.00    -0.138 OA 
BRANCH  21  22
HETATM   22  C   UNL     1      -7.595   8.196  69.457  1.00  0.00    -0.100 C  
HETATM   23  O   UNL     1      -6.660   7.663  70.037  1.00  0.00    -0.037 OA 
HETATM   24  C   UNL     1      -7.511   9.517  68.728  1.00  0.00    -0.075 C  
ENDBRANCH  21  22
ENDBRANCH   4  21
BRANCH  10  25
HETATM   25  O   UNL     1     -12.162  13.223  63.639  1.00  0.00    -0.601 OA 
BRANCH  25  26
HETATM   26  C   UNL     1     -11.466  14.320  64.062  1.00  0.00     0.017 C  
HETATM   27  C   UNL     1     -12.371  15.510  64.155  1.00  0.00     0.049 C  
HETATM   28  O   UNL     1     -10.289  14.336  64.399  1.00  0.00    -0.240 OA 
ENDBRANCH  25  26
ENDBRANCH  10  25
TORSDOF 5
ENDMDL
MODEL       76
REMARK 921   NORMALIZED FREE ENERGY PREDICTED BY IDOCK:   -3.28 KCAL/MOL
REMARK 922        TOTAL FREE ENERGY PREDICTED BY IDOCK:   -4.08 KCAL/MOL
REMARK 923 INTER-LIGAND FREE ENERGY PREDICTED BY IDOCK:   -3.70 KCAL/MOL
REMARK 924 INTRA-LIGAND FREE ENERGY PREDICTED BY IDOCK:   -0.38 KCAL/MOL
REMARK 927      BINDING AFFINITY PREDICTED BY RF-SCORE:    0.00 PKD
ROOT
HETATM    1  C   UNL     1      -6.288   5.204  66.671  1.00  0.00    -0.040 C  
HETATM    2  C   UNL     1      -5.928   5.480  68.012  1.00  0.00    -0.018 C  
HETATM    3  C   UNL     1      -7.383   5.423  67.724  1.00  0.00    -0.073 C  
HETATM    4  C   UNL     1      -7.915   4.689  65.867  1.00  0.00    -0.099 C  
HETATM    5  C   UNL     1      -6.793   6.784  65.862  1.00  0.00    -0.056 C  
HETATM    6  C   UNL     1      -7.856  10.956  66.370  1.00  0.00    -0.154 C  
HETATM    7  C   UNL     1      -7.827   4.066  67.086  1.00  0.00    -0.092 C  
HETATM    8  C   UNL     1      -7.696   2.665  67.610  1.00  0.00    -0.060 C  
HETATM    9  C   UNL     1      -9.456   4.910  67.496  1.00  0.00    -0.161 C  
HETATM   10  C   UNL     1      -9.251  11.437  66.720  1.00  0.00    -0.177 C  
HETATM   11  C   UNL     1      -5.712   7.888  66.003  1.00  0.00    -0.037 C  
HETATM   12  C   UNL     1      -9.567   6.408  66.696  1.00  0.00    -0.194 C  
HETATM   13  C   UNL     1      -6.129   9.309  65.542  1.00  0.00    -0.063 C  
HETATM   14  C   UNL     1      -7.555   9.741  65.857  1.00  0.00    -0.103 C  
HETATM   15  C   UNL     1      -8.246   7.401  66.367  1.00  0.00    -0.122 C  
HETATM   16  C   UNL     1      -8.634   8.696  65.600  1.00  0.00    -0.191 C  
HETATM   17  C   UNL     1     -10.009   9.119  66.145  1.00  0.00    -0.338 C  
HETATM   18  C   UNL     1     -10.350  10.576  66.100  1.00  0.00    -0.276 C  
ENDROOT
BRANCH   4  19
HETATM   19  C   UNL     1      -7.002   3.811  64.927  1.00  0.00    -0.053 C  
HETATM   20  C   UNL     1      -6.285   3.210  64.169  1.00  0.00    -0.022 C  
ENDBRANCH   4  19
BRANCH   4  21
HETATM   21  O   UNL     1      -9.222   4.176  65.407  1.00  0.00    -0.133 OA 
BRANCH  21  22
HETATM   22  C   UNL     1      -9.515   4.119  64.086  1.00  0.00    -0.156 C  
HETATM   23  O   UNL     1      -9.385   5.040  63.292  1.00  0.00     0.067 OA 
HETATM   24  C   UNL     1     -10.190   2.804  63.772  1.00  0.00    -0.166 C  
ENDBRANCH  21  22
ENDBRANCH   4  21
BRANCH  10  25
HETATM   25  O   UNL     1      -9.435  12.778  66.231  1.00  0.00    -0.243 OA 
BRANCH  25  26
HETATM   26  C   UNL     1      -9.739  13.694  67.198  1.00  0.00    -0.245 C  
HETATM   27  C   UNL     1     -11.180  14.090  67.109  1.00  0.00    -0.327 C  
HETATM   28  O   UNL     1      -8.980  14.090  68.074  1.00  0.00    -0.167 OA 
ENDBRANCH  25  26
ENDBRANCH  10  25
TORSDOF 5
ENDMDL
MODEL       77
REMARK 921   NORMALIZED FREE ENERGY PREDICTED BY IDOCK:   -3.06 KCAL/MOL
REMARK 922        TOTAL FREE ENERGY PREDICTED BY IDOCK:   -3.80 KCAL/MOL
REMARK 923 INTER-LIGAND FREE ENERGY PREDICTED BY IDOCK:   -3.72 KCAL/MOL
REMARK 924 INTRA-LIGAND FREE ENERGY PREDICTED BY IDOCK:   -0.08 KCAL/MOL
REMARK 927      BINDING AFFINITY PREDICTED BY RF-SCORE:    0.00 PKD
ROOT
HETATM    1  C   UNL     1      -8.969   6.869  69.699  1.00  0.00    -0.144 C  
HETATM    2  C   UNL     1      -9.154   6.450  68.359  1.00  0.00    -0.118 C  
HETATM    3  C   UNL     1      -7.872   7.136  68.659  1.00  0.00    -0.122 C  
HETATM    4  C   UNL     1      -7.448   7.440  70.658  1.00  0.00    -0.078 C  
HETATM    5  C   UNL     1      -9.278   8.686  69.794  1.00  0.00    -0.154 C  
HETATM    6  C   UNL     1      -9.852  12.399  67.630  1.00  0.00    -0.198 C  
HETATM    7  C   UNL     1      -7.060   6.442  69.801  1.00  0.00    -0.072 C  
HETATM    8  C   UNL     1      -6.535   5.039  69.895  1.00  0.00    -0.035 C  
HETATM    9  C   UNL     1      -5.844   7.690  69.096  1.00  0.00    -0.030 C  
HETATM   10  C   UNL     1      -8.716  13.269  67.126  1.00  0.00    -0.212 C  
HETATM   11  C   UNL     1     -10.658   9.079  69.203  1.00  0.00    -0.219 C  
HETATM   12  C   UNL     1      -6.474   9.266  69.213  1.00  0.00    -0.045 C  
HETATM   13  C   UNL     1     -10.920  10.599  69.045  1.00  0.00    -0.295 C  
HETATM   14  C   UNL     1      -9.744  11.455  68.593  1.00  0.00    -0.182 C  
HETATM   15  C   UNL     1      -8.114   9.637  69.093  1.00  0.00    -0.104 C  
HETATM   16  C   UNL     1      -8.411  11.152  69.266  1.00  0.00     0.099 C  
HETATM   17  C   UNL     1      -7.234  11.894  68.608  1.00  0.00    -0.109 C  
HETATM   18  C   UNL     1      -7.503  13.260  68.055  1.00  0.00    -0.138 C  
ENDROOT
BRANCH   4  19
HETATM   19  C   UNL     1      -8.102   6.668  71.867  1.00  0.00    -0.103 C  
HETATM   20  C   UNL     1      -8.675   6.104  72.764  1.00  0.00    -0.123 C  
ENDBRANCH   4  19
BRANCH   4  21
HETATM   21  O   UNL     1      -6.153   7.750  71.300  1.00  0.00    -0.035 OA 
BRANCH  21  22
HETATM   22  C   UNL     1      -6.108   8.266  72.551  1.00  0.00    -0.066 C  
HETATM   23  O   UNL     1      -6.666   9.293  72.912  1.00  0.00    -0.256 OA 
HETATM   24  C   UNL     1      -5.128   7.481  73.390  1.00  0.00    -0.041 C  
ENDBRANCH  21  22
ENDBRANCH   4  21
BRANCH  10  25
HETATM   25  O   UNL     1      -9.163  14.633  67.025  1.00  0.00    -0.216 OA 
BRANCH  25  26
HETATM   26  C   UNL     1     -10.344  14.791  66.357  1.00  0.00    -0.293 C  
HETATM   27  C   UNL     1     -11.160  15.876  66.988  1.00  0.00    -0.119 C  
HETATM   28  O   UNL     1     -10.677  14.198  65.339  1.00  0.00    -0.307 OA 
ENDBRANCH  25  26
ENDBRANCH  10  25
TORSDOF 5
ENDMDL
MODEL       78
REMARK 921   NORMALIZED FREE ENERGY PREDICTED BY IDOCK:   -2.82 KCAL/MOL
REMARK 922        TOTAL FREE ENERGY PREDICTED BY IDOCK:   -3.48 KCAL/MOL
REMARK 923 INTER-LIGAND FREE ENERGY PREDICTED BY IDOCK:   -3.83 KCAL/MOL
REMARK 924 INTRA-LIGAND FREE ENERGY PREDICTED BY IDOCK:    0.35 KCAL/MOL
REMARK 927      BINDING AFFINITY PREDICTED BY RF-SCORE:    0.00 PKD
ROOT
HETATM    1  C   UNL     1      -9.096   8.175  65.810  1.00  0.00    -0.139 C  
HETATM    2  C   UNL     1      -9.470   9.438  66.331  1.00  0.00    -0.259 C  
HETATM    3  C   UNL     1      -8.140   8.927  66.748  1.00  0.00    -0.111 C  
HETATM    4  C   UNL     1      -7.444   7.267  65.733  1.00  0.00    -0.084 C  
HETATM    5  C   UNL     1      -9.336   6.903  67.125  1.00  0.00    -0.162 C  
HETATM    6  C   UNL     1     -10.086   6.099  71.319  1.00  0.00    -0.227 C  
HETATM    7  C   UNL     1      -7.203   8.603  65.538  1.00  0.00    -0.084 C  
HETATM    8  C   UNL     1      -6.712   9.493  64.434  1.00  0.00    -0.100 C  
HETATM    9  C   UNL     1      -6.057   8.486  67.023  1.00  0.00    -0.055 C  
HETATM   10  C   UNL     1      -9.003   6.062  72.380  1.00  0.00    -0.137 C  
HETATM   11  C   UNL     1     -10.771   6.932  67.716  1.00  0.00    -0.321 C  
HETATM   12  C   UNL     1      -6.620   7.312  68.119  1.00  0.00    -0.050 C  
HETATM   13  C   UNL     1     -11.007   6.048  68.967  1.00  0.00    -0.409 C  
HETATM   14  C   UNL     1      -9.877   5.986  69.987  1.00  0.00    -0.215 C  
HETATM   15  C   UNL     1      -8.250   6.967  68.375  1.00  0.00    -0.120 C  
HETATM   16  C   UNL     1      -8.476   5.830  69.410  1.00  0.00    -0.112 C  
HETATM   17  C   UNL     1      -7.376   5.997  70.474  1.00  0.00    -0.085 C  
HETATM   18  C   UNL     1      -7.677   5.510  71.858  1.00  0.00    -0.104 C  
ENDROOT
BRANCH   4  19
HETATM   19  C   UNL     1      -7.953   6.764  64.328  1.00  0.00    -0.087 C  
HETATM   20  C   UNL     1      -8.269   6.403  63.224  1.00  0.00     0.034 C  
ENDBRANCH   4  19
BRANCH   4  21
HETATM   21  O   UNL     1      -6.067   6.738  65.644  1.00  0.00    -0.033 OA 
BRANCH  21  22
HETATM   22  C   UNL     1      -5.843   5.446  65.306  1.00  0.00    -0.021 C  
HETATM   23  O   UNL     1      -5.142   5.069  64.377  1.00  0.00    -0.009 OA 
HETATM   24  C   UNL     1      -6.724   4.544  66.138  1.00  0.00    -0.053 C  
ENDBRANCH  21  22
ENDBRANCH   4  21
BRANCH  10  25
HETATM   25  O   UNL     1      -9.419   5.212  73.464  1.00  0.00    -0.132 OA 
BRANCH  25  26
HETATM   26  C   UNL     1     -10.585   4.538  73.236  1.00  0.00    -0.216 C  
HETATM   27  C   UNL     1     -10.317   3.079  73.036  1.00  0.00    -0.244 C  
HETATM   28  O   UNL     1     -11.710   5.022  73.265  1.00  0.00    -0.292 OA 
ENDBRANCH  25  26
ENDBRANCH  10  25
TORSDOF 5
ENDMDL
MODEL       79
REMARK 921   NORMALIZED FREE ENERGY PREDICTED BY IDOCK:   -2.79 KCAL/MOL
REMARK 922        TOTAL FREE ENERGY PREDICTED BY IDOCK:   -3.44 KCAL/MOL
REMARK 923 INTER-LIGAND FREE ENERGY PREDICTED BY IDOCK:   -3.90 KCAL/MOL
REMARK 924 INTRA-LIGAND FREE ENERGY PREDICTED BY IDOCK:    0.46 KCAL/MOL
REMARK 927      BINDING AFFINITY PREDICTED BY RF-SCORE:    0.00 PKD
ROOT
HETATM    1  C   UNL     1     -10.593   6.014  69.539  1.00  0.00    -0.363 C  
HETATM    2  C   UNL     1     -10.879   5.700  68.188  1.00  0.00    -0.161 C  
HETATM    3  C   UNL     1      -9.466   5.536  68.613  1.00  0.00    -0.160 C  
HETATM    4  C   UNL     1      -9.107   5.658  70.645  1.00  0.00    -0.150 C  
HETATM    5  C   UNL     1      -9.797   7.678  69.599  1.00  0.00    -0.181 C  
HETATM    6  C   UNL     1      -7.933  10.903  67.382  1.00  0.00    -0.113 C  
HETATM    7  C   UNL     1      -9.303   4.570  69.833  1.00  0.00    -0.218 C  
HETATM    8  C   UNL     1      -9.700   3.130  69.982  1.00  0.00    -0.052 C  
HETATM    9  C   UNL     1      -7.536   4.842  69.251  1.00  0.00    -0.060 C  
HETATM   10  C   UNL     1      -6.467  10.926  66.993  1.00  0.00    -0.085 C  
HETATM   11  C   UNL     1     -10.640   8.759  68.872  1.00  0.00    -0.178 C  
HETATM   12  C   UNL     1      -7.142   6.497  69.301  1.00  0.00    -0.084 C  
HETATM   13  C   UNL     1      -9.957  10.139  68.686  1.00  0.00    -0.181 C  
HETATM   14  C   UNL     1      -8.471  10.129  68.353  1.00  0.00    -0.118 C  
HETATM   15  C   UNL     1      -8.246   7.738  69.017  1.00  0.00    -0.126 C  
HETATM   16  C   UNL     1      -7.620   9.153  69.156  1.00  0.00    -0.073 C  
HETATM   17  C   UNL     1      -6.183   9.039  68.618  1.00  0.00    -0.045 C  
HETATM   18  C   UNL     1      -5.564  10.273  68.039  1.00  0.00    -0.037 C  
ENDROOT
BRANCH   4  19
HETATM   19  C   UNL     1     -10.183   5.479  71.784  1.00  0.00    -0.256 C  
HETATM   20  C   UNL     1     -11.019   5.267  72.623  1.00  0.00    -0.316 C  
ENDBRANCH   4  19
BRANCH   4  21
HETATM   21  O   UNL     1      -7.930   5.201  71.413  1.00  0.00    -0.106 OA 
BRANCH  21  22
HETATM   22  C   UNL     1      -7.589   5.801  72.577  1.00  0.00    -0.101 C  
HETATM   23  O   UNL     1      -7.146   6.936  72.685  1.00  0.00    -0.073 OA 
HETATM   24  C   UNL     1      -7.674   4.803  73.708  1.00  0.00    -0.094 C  
ENDBRANCH  21  22
ENDBRANCH   4  21
BRANCH  10  25
HETATM   25  O   UNL     1      -6.029  12.288  66.845  1.00  0.00    -0.251 OA 
BRANCH  25  26
HETATM   26  C   UNL     1      -6.046  13.015  68.002  1.00  0.00    -0.112 C  
HETATM   27  C   UNL     1      -7.211  13.955  68.011  1.00  0.00    -0.141 C  
HETATM   28  O   UNL     1      -5.278  12.879  68.945  1.00  0.00    -0.066 OA 
ENDBRANCH  25  26
ENDBRANCH  10  25
TORSDOF 5
ENDMDL
MODEL       80
REMARK 921   NORMALIZED FREE ENERGY PREDICTED BY IDOCK:   -2.70 KCAL/MOL
REMARK 922        TOTAL FREE ENERGY PREDICTED BY IDOCK:   -3.33 KCAL/MOL
REMARK 923 INTER-LIGAND FREE ENERGY PREDICTED BY IDOCK:   -3.45 KCAL/MOL
REMARK 924 INTRA-LIGAND FREE ENERGY PREDICTED BY IDOCK:    0.12 KCAL/MOL
REMARK 927      BINDING AFFINITY PREDICTED BY RF-SCORE:    0.00 PKD
ROOT
HETATM    1  C   UNL     1      -9.189  10.274  68.698  1.00  0.00    -0.159 C  
HETATM    2  C   UNL     1      -8.067  10.078  69.539  1.00  0.00    -0.166 C  
HETATM    3  C   UNL     1      -7.796  10.716  68.226  1.00  0.00    -0.113 C  
HETATM    4  C   UNL     1      -9.453  11.315  67.147  1.00  0.00    -0.170 C  
HETATM    5  C   UNL     1      -9.181   8.966  67.395  1.00  0.00    -0.157 C  
HETATM    6  C   UNL     1      -6.966   5.801  65.428  1.00  0.00    -0.064 C  
HETATM    7  C   UNL     1      -8.634  12.016  67.994  1.00  0.00    -0.170 C  
HETATM    8  C   UNL     1      -8.691  13.283  68.798  1.00  0.00     0.143 C  
HETATM    9  C   UNL     1      -7.395  12.036  66.581  1.00  0.00     0.126 C  
HETATM   10  C   UNL     1      -5.986   6.033  64.294  1.00  0.00    -0.025 C  
HETATM   11  C   UNL     1      -9.095   7.539  67.996  1.00  0.00    -0.131 C  
HETATM   12  C   UNL     1      -7.553  10.632  65.632  1.00  0.00    -0.100 C  
HETATM   13  C   UNL     1      -8.870   6.388  66.981  1.00  0.00    -0.115 C  
HETATM   14  C   UNL     1      -7.925   6.671  65.821  1.00  0.00    -0.112 C  
HETATM   15  C   UNL     1      -8.000   9.126  66.243  1.00  0.00    -0.103 C  
HETATM   16  C   UNL     1      -8.093   8.028  65.148  1.00  0.00    -0.143 C  
HETATM   17  C   UNL     1      -6.970   8.333  64.141  1.00  0.00    -0.077 C  
HETATM   18  C   UNL     1      -6.402   7.180  63.373  1.00  0.00    -0.045 C  
ENDROOT
BRANCH   4  19
HETATM   19  C   UNL     1     -10.898  11.554  67.732  1.00  0.00    -0.270 C  
HETATM   20  C   UNL     1     -11.997  11.813  68.149  1.00  0.00    -0.214 C  
ENDBRANCH   4  19
BRANCH   4  21
HETATM   21  O   UNL     1      -9.538  12.267  66.020  1.00  0.00    -0.240 OA 
BRANCH  21  22
HETATM   22  C   UNL     1     -10.529  12.166  65.103  1.00  0.00    -0.281 C  
HETATM   23  O   UNL     1     -10.856  11.139  64.525  1.00  0.00    -0.326 OA 
HETATM   24  C   UNL     1     -11.057  13.542  64.772  1.00  0.00    -0.368 C  
ENDBRANCH  21  22
ENDBRANCH   4  21
BRANCH  10  25
HETATM   25  O   UNL     1      -5.899   4.848  63.482  1.00  0.00    -0.016 OA 
BRANCH  25  26
HETATM   26  C   UNL     1      -6.986   4.025  63.568  1.00  0.00    -0.045 C  
HETATM   27  C   UNL     1      -6.655   2.803  64.367  1.00  0.00    -0.031 C  
HETATM   28  O   UNL     1      -8.104   4.266  63.132  1.00  0.00    -0.078 OA 
ENDBRANCH  25  26
ENDBRANCH  10  25
TORSDOF 5
ENDMDL
MODEL       81
REMARK 921   NORMALIZED FREE ENERGY PREDICTED BY IDOCK:   -2.46 KCAL/MOL
REMARK 922        TOTAL FREE ENERGY PREDICTED BY IDOCK:   -3.02 KCAL/MOL
REMARK 923 INTER-LIGAND FREE ENERGY PREDICTED BY IDOCK:   -3.27 KCAL/MOL
REMARK 924 INTRA-LIGAND FREE ENERGY PREDICTED BY IDOCK:    0.25 KCAL/MOL
REMARK 927      BINDING AFFINITY PREDICTED BY RF-SCORE:    0.00 PKD
ROOT
HETATM    1  C   UNL     1      -7.834  11.448  69.227  1.00  0.00     0.098 C  
HETATM    2  C   UNL     1      -6.488  11.385  69.663  1.00  0.00    -0.133 C  
HETATM    3  C   UNL     1      -6.729  11.061  68.235  1.00  0.00    -0.059 C  
HETATM    4  C   UNL     1      -8.618  11.481  67.511  1.00  0.00    -0.143 C  
HETATM    5  C   UNL     1      -8.496   9.730  69.114  1.00  0.00    -0.143 C  
HETATM    6  C   UNL     1      -7.620   5.484  69.117  1.00  0.00    -0.086 C  
HETATM    7  C   UNL     1      -7.457  12.208  67.461  1.00  0.00    -0.148 C  
HETATM    8  C   UNL     1      -7.051  13.638  67.251  1.00  0.00     0.041 C  
HETATM    9  C   UNL     1      -6.924  11.031  66.096  1.00  0.00    -0.057 C  
HETATM   10  C   UNL     1      -7.184   4.709  67.889  1.00  0.00    -0.066 C  
HETATM   11  C   UNL     1      -8.306   8.939  70.436  1.00  0.00    -0.160 C  
HETATM   12  C   UNL     1      -7.598   9.488  66.345  1.00  0.00    -0.097 C  
HETATM   13  C   UNL     1      -8.637   7.425  70.374  1.00  0.00    -0.144 C  
HETATM   14  C   UNL     1      -8.238   6.687  69.103  1.00  0.00    -0.120 C  
HETATM   15  C   UNL     1      -7.893   8.822  67.865  1.00  0.00    -0.102 C  
HETATM   16  C   UNL     1      -8.540   7.412  67.796  1.00  0.00    -0.120 C  
HETATM   17  C   UNL     1      -7.915   6.714  66.575  1.00  0.00    -0.106 C  
HETATM   18  C   UNL     1      -7.832   5.219  66.602  1.00  0.00    -0.100 C  
ENDROOT
BRANCH   4  19
HETATM   19  C   UNL     1      -9.657  12.470  68.166  1.00  0.00    -0.215 C  
HETATM   20  C   UNL     1     -10.457  13.262  68.593  1.00  0.00    -0.242 C  
ENDBRANCH   4  19
BRANCH   4  21
HETATM   21  O   UNL     1      -9.072  11.617  66.112  1.00  0.00    -0.213 OA 
BRANCH  21  22
HETATM   22  C   UNL     1     -10.282  11.147  65.729  1.00  0.00    -0.257 C  
HETATM   23  O   UNL     1     -11.093  10.599  66.463  1.00  0.00    -0.114 OA 
HETATM   24  C   UNL     1     -10.412  11.241  64.227  1.00  0.00    -0.419 C  
ENDBRANCH  21  22
ENDBRANCH   4  21
BRANCH  10  25
HETATM   25  O   UNL     1      -7.558   3.327  68.033  1.00  0.00    -0.059 OA 
BRANCH  25  26
HETATM   26  C   UNL     1      -6.871   2.470  67.220  1.00  0.00    -0.040 C  
HETATM   27  C   UNL     1      -6.018   1.547  68.035  1.00  0.00    -0.023 C  
HETATM   28  O   UNL     1      -6.980   2.393  66.003  1.00  0.00    -0.042 OA 
ENDBRANCH  25  26
ENDBRANCH  10  25
TORSDOF 5
ENDMDL
MODEL       82
REMARK 921   NORMALIZED FREE ENERGY PREDICTED BY IDOCK:   -2.35 KCAL/MOL
REMARK 922        TOTAL FREE ENERGY PREDICTED BY IDOCK:   -2.88 KCAL/MOL
REMARK 923 INTER-LIGAND FREE ENERGY PREDICTED BY IDOCK:   -3.43 KCAL/MOL
REMARK 924 INTRA-LIGAND FREE ENERGY PREDICTED BY IDOCK:    0.55 KCAL/MOL
REMARK 927      BINDING AFFINITY PREDICTED BY RF-SCORE:    0.00 PKD
ROOT
HETATM    1  C   UNL     1      -9.086  15.537  68.976  1.00  0.00    -0.236 C  
HETATM    2  C   UNL     1      -8.438  16.246  67.935  1.00  0.00    -0.166 C  
HETATM    3  C   UNL     1      -9.408  15.205  67.512  1.00  0.00    -0.198 C  
HETATM    4  C   UNL     1     -10.600  14.412  69.002  1.00  0.00    -0.237 C  
HETATM    5  C   UNL     1      -8.288  13.882  69.144  1.00  0.00     0.312 C  
HETATM    6  C   UNL     1      -5.591  10.950  67.433  1.00  0.00    -0.045 C  
HETATM    7  C   UNL     1     -10.838  15.423  68.106  1.00  0.00    -0.285 C  
HETATM    8  C   UNL     1     -11.768  16.594  67.974  1.00  0.00     0.429 C  
HETATM    9  C   UNL     1     -11.097  14.066  66.831  1.00  0.00    -0.310 C  
HETATM   10  C   UNL     1      -6.002   9.931  66.387  1.00  0.00    -0.063 C  
HETATM   11  C   UNL     1      -6.750  13.987  69.325  1.00  0.00    -0.120 C  
HETATM   12  C   UNL     1     -10.123  12.718  67.192  1.00  0.00    -0.234 C  
HETATM   13  C   UNL     1      -5.967  12.650  69.264  1.00  0.00    -0.093 C  
HETATM   14  C   UNL     1      -6.441  11.624  68.242  1.00  0.00    -0.051 C  
HETATM   15  C   UNL     1      -8.603  12.819  67.912  1.00  0.00    -0.181 C  
HETATM   16  C   UNL     1      -7.949  11.429  68.152  1.00  0.00    -0.133 C  
HETATM   17  C   UNL     1      -8.363  10.551  66.958  1.00  0.00    -0.128 C  
HETATM   18  C   UNL     1      -7.438   9.440  66.567  1.00  0.00    -0.093 C  
ENDROOT
BRANCH   4  19
HETATM   19  C   UNL     1     -10.885  15.074  70.405  1.00  0.00    -0.182 C  
HETATM   20  C   UNL     1     -11.113  15.650  71.437  1.00  0.00    -0.293 C  
ENDBRANCH   4  19
BRANCH   4  21
HETATM   21  O   UNL     1     -11.864  13.655  68.881  1.00  0.00    -0.324 OA 
BRANCH  21  22
HETATM   22  C   UNL     1     -12.269  12.825  69.870  1.00  0.00    -0.175 C  
HETATM   23  O   UNL     1     -13.013  13.132  70.792  1.00  0.00    -0.145 OA 
HETATM   24  C   UNL     1     -11.530  11.511  69.765  1.00  0.00    -0.362 C  
ENDBRANCH  21  22
ENDBRANCH   4  21
BRANCH  10  25
HETATM   25  O   UNL     1      -5.145   8.778  66.475  1.00  0.00    -0.033 OA 
BRANCH  25  26
HETATM   26  C   UNL     1      -5.468   7.912  67.481  1.00  0.00    -0.036 C  
HETATM   27  C   UNL     1      -5.871   6.584  66.918  1.00  0.00    -0.014 C  
HETATM   28  O   UNL     1      -5.372   8.139  68.680  1.00  0.00    -0.030 OA 
ENDBRANCH  25  26
ENDBRANCH  10  25
TORSDOF 5
ENDMDL
MODEL       83
REMARK 921   NORMALIZED FREE ENERGY PREDICTED BY IDOCK:   -2.18 KCAL/MOL
REMARK 922        TOTAL FREE ENERGY PREDICTED BY IDOCK:   -2.66 KCAL/MOL
REMARK 923 INTER-LIGAND FREE ENERGY PREDICTED BY IDOCK:   -2.92 KCAL/MOL
REMARK 924 INTRA-LIGAND FREE ENERGY PREDICTED BY IDOCK:    0.26 KCAL/MOL
REMARK 927      BINDING AFFINITY PREDICTED BY RF-SCORE:    0.00 PKD
ROOT
HETATM    1  C   UNL     1      -7.591   8.716  65.295  1.00  0.00    -0.088 C  
HETATM    2  C   UNL     1      -8.755   8.003  64.920  1.00  0.00     0.085 C  
HETATM    3  C   UNL     1      -8.925   9.014  65.993  1.00  0.00    -0.227 C  
HETATM    4  C   UNL     1      -7.328  10.288  66.305  1.00  0.00    -0.118 C  
HETATM    5  C   UNL     1      -6.955   8.011  66.878  1.00  0.00    -0.074 C  
HETATM    6  C   UNL     1      -7.713   5.428  70.276  1.00  0.00    -0.077 C  
HETATM    7  C   UNL     1      -8.469  10.447  65.561  1.00  0.00    -0.171 C  
HETATM    8  C   UNL     1      -8.945  11.309  64.428  1.00  0.00     0.099 C  
HETATM    9  C   UNL     1      -9.346  10.742  67.197  1.00  0.00    -0.171 C  
HETATM   10  C   UNL     1      -8.466   5.863  71.518  1.00  0.00    -0.128 C  
HETATM   11  C   UNL     1      -6.746   6.476  66.796  1.00  0.00    -0.060 C  
HETATM   12  C   UNL     1      -8.600   9.852  68.441  1.00  0.00    -0.116 C  
HETATM   13  C   UNL     1      -6.418   5.763  68.133  1.00  0.00    -0.043 C  
HETATM   14  C   UNL     1      -7.148   6.262  69.373  1.00  0.00    -0.073 C  
HETATM   15  C   UNL     1      -7.872   8.348  68.217  1.00  0.00    -0.110 C  
HETATM   16  C   UNL     1      -7.244   7.776  69.519  1.00  0.00    -0.079 C  
HETATM   17  C   UNL     1      -8.178   8.202  70.666  1.00  0.00    -0.114 C  
HETATM   18  C   UNL     1      -8.221   7.327  71.880  1.00  0.00    -0.106 C  
ENDROOT
BRANCH   4  19
HETATM   19  C   UNL     1      -6.164  10.576  65.279  1.00  0.00    -0.095 C  
HETATM   20  C   UNL     1      -5.255  10.716  64.503  1.00  0.00    -0.143 C  
ENDBRANCH   4  19
BRANCH   4  21
HETATM   21  O   UNL     1      -7.294  11.586  67.010  1.00  0.00    -0.130 OA 
BRANCH  21  22
HETATM   22  C   UNL     1      -6.122  12.104  67.446  1.00  0.00    -0.143 C  
HETATM   23  O   UNL     1      -5.575  13.098  66.990  1.00  0.00    -0.281 OA 
HETATM   24  C   UNL     1      -5.503  11.176  68.465  1.00  0.00    -0.043 C  
ENDBRANCH  21  22
ENDBRANCH   4  21
BRANCH  10  25
HETATM   25  O   UNL     1      -8.040   5.071  72.642  1.00  0.00    -0.106 OA 
BRANCH  25  26
HETATM   26  C   UNL     1      -8.844   4.000  72.913  1.00  0.00    -0.099 C  
HETATM   27  C   UNL     1      -9.652   3.634  71.707  1.00  0.00    -0.221 C  
HETATM   28  O   UNL     1      -8.860   3.363  73.959  1.00  0.00    -0.087 OA 
ENDBRANCH  25  26
ENDBRANCH  10  25
TORSDOF 5
ENDMDL
MODEL       84
REMARK 921   NORMALIZED FREE ENERGY PREDICTED BY IDOCK:   -1.90 KCAL/MOL
REMARK 922        TOTAL FREE ENERGY PREDICTED BY IDOCK:   -2.30 KCAL/MOL
REMARK 923 INTER-LIGAND FREE ENERGY PREDICTED BY IDOCK:   -5.30 KCAL/MOL
REMARK 924 INTRA-LIGAND FREE ENERGY PREDICTED BY IDOCK:    3.00 KCAL/MOL
REMARK 927      BINDING AFFINITY PREDICTED BY RF-SCORE:    0.00 PKD
ROOT
HETATM    1  C   UNL     1     -10.937   9.114  69.159  1.00  0.00    -0.057 C  
HETATM    2  C   UNL     1     -10.955   8.713  67.801  1.00  0.00     0.080 C  
HETATM    3  C   UNL     1      -9.619   9.007  68.379  1.00  0.00    -0.163 C  
HETATM    4  C   UNL     1      -9.548   9.255  70.429  1.00  0.00    -0.244 C  
HETATM    5  C   UNL     1     -10.712  10.944  69.228  1.00  0.00    -0.271 C  
HETATM    6  C   UNL     1      -9.709  14.571  67.075  1.00  0.00    -0.247 C  
HETATM    7  C   UNL     1      -9.302   8.153  69.650  1.00  0.00    -0.159 C  
HETATM    8  C   UNL     1      -9.244   6.663  69.821  1.00  0.00    -0.146 C  
HETATM    9  C   UNL     1      -7.654   8.963  69.244  1.00  0.00    -0.082 C  
HETATM   10  C   UNL     1      -8.290  15.051  66.841  1.00  0.00    -0.212 C  
HETATM   11  C   UNL     1     -11.762  11.698  68.369  1.00  0.00    -0.374 C  
HETATM   12  C   UNL     1      -7.804  10.658  69.261  1.00  0.00    -0.140 C  
HETATM   13  C   UNL     1     -11.528  13.221  68.194  1.00  0.00    -0.347 C  
HETATM   14  C   UNL     1     -10.085  13.677  68.018  1.00  0.00    -0.250 C  
HETATM   15  C   UNL     1      -9.202  11.485  68.808  1.00  0.00    -0.076 C  
HETATM   16  C   UNL     1      -9.069  13.027  68.949  1.00  0.00     0.311 C  
HETATM   17  C   UNL     1      -7.616  13.366  68.569  1.00  0.00    -0.127 C  
HETATM   18  C   UNL     1      -7.352  14.727  68.003  1.00  0.00    -0.140 C  
ENDROOT
BRANCH   4  19
HETATM   19  C   UNL     1     -10.636   8.757  71.456  1.00  0.00    -0.379 C  
HETATM   20  C   UNL     1     -11.524   8.403  72.188  1.00  0.00    -0.442 C  
ENDBRANCH   4  19
BRANCH   4  21
HETATM   21  O   UNL     1      -8.382   9.200  71.335  1.00  0.00    -0.321 OA 
BRANCH  21  22
HETATM   22  C   UNL     1      -8.337   8.303  72.348  1.00  0.00    -0.170 C  
HETATM   23  O   UNL     1      -9.073   8.301  73.324  1.00  0.00    -0.255 OA 
HETATM   24  C   UNL     1      -7.130   7.409  72.182  1.00  0.00    -0.067 C  
ENDBRANCH  21  22
ENDBRANCH   4  21
BRANCH  10  25
HETATM   25  O   UNL     1      -8.285  16.481  66.678  1.00  0.00    -0.211 OA 
BRANCH  25  26
HETATM   26  C   UNL     1      -8.991  17.159  67.631  1.00  0.00    -0.226 C  
HETATM   27  C   UNL     1      -8.062  17.837  68.588  1.00  0.00    -0.277 C  
HETATM   28  O   UNL     1     -10.209  17.277  67.671  1.00  0.00    -0.307 OA 
ENDBRANCH  25  26
ENDBRANCH  10  25
TORSDOF 5
ENDMDL
MODEL       85
REMARK 921   NORMALIZED FREE ENERGY PREDICTED BY IDOCK:   -1.48 KCAL/MOL
REMARK 922        TOTAL FREE ENERGY PREDICTED BY IDOCK:   -1.75 KCAL/MOL
REMARK 923 INTER-LIGAND FREE ENERGY PREDICTED BY IDOCK:   -1.93 KCAL/MOL
REMARK 924 INTRA-LIGAND FREE ENERGY PREDICTED BY IDOCK:    0.17 KCAL/MOL
REMARK 927      BINDING AFFINITY PREDICTED BY RF-SCORE:    0.00 PKD
ROOT
HETATM    1  C   UNL     1      -8.850  15.679  69.724  1.00  0.00     0.020 C  
HETATM    2  C   UNL     1      -8.372  14.931  70.828  1.00  0.00     2.090 C  
HETATM    3  C   UNL     1      -7.564  14.853  69.585  1.00  0.00    -0.098 C  
HETATM    4  C   UNL     1      -8.055  16.196  68.093  1.00  0.00    -0.149 C  
HETATM    5  C   UNL     1      -9.682  14.524  68.549  1.00  0.00    -0.224 C  
HETATM    6  C   UNL     1     -10.417  10.410  67.395  1.00  0.00    -0.299 C  
HETATM    7  C   UNL     1      -7.095  16.254  69.071  1.00  0.00    -0.196 C  
HETATM    8  C   UNL     1      -6.268  17.304  69.754  1.00  0.00    -0.199 C  
HETATM    9  C   UNL     1      -6.117  15.049  68.010  1.00  0.00    -0.161 C  
HETATM   10  C   UNL     1      -9.478   9.595  66.526  1.00  0.00    -0.181 C  
HETATM   11  C   UNL     1     -10.775  13.667  69.241  1.00  0.00    -0.060 C  
HETATM   12  C   UNL     1      -7.169  14.032  67.142  1.00  0.00     0.215 C  
HETATM   13  C   UNL     1     -11.382  12.524  68.388  1.00  0.00    -0.333 C  
HETATM   14  C   UNL     1     -10.423  11.761  67.483  1.00  0.00    -0.228 C  
HETATM   15  C   UNL     1      -8.666  13.512  67.718  1.00  0.00    -0.189 C  
HETATM   16  C   UNL     1      -9.429  12.614  66.705  1.00  0.00    -0.244 C  
HETATM   17  C   UNL     1      -8.358  11.772  65.990  1.00  0.00     0.186 C  
HETATM   18  C   UNL     1      -8.773  10.434  65.461  1.00  0.00    -0.190 C  
ENDROOT
BRANCH   4  19
HETATM   19  C   UNL     1      -8.874  17.530  68.287  1.00  0.00    -0.274 C  
HETATM   20  C   UNL     1      -9.503  18.531  68.514  1.00  0.00    -0.375 C  
ENDBRANCH   4  19
BRANCH   4  21
HETATM   21  O   UNL     1      -7.260  16.622  66.923  1.00  0.00    -0.180 OA 
BRANCH  21  22
HETATM   22  C   UNL     1      -7.841  17.287  65.898  1.00  0.00    -0.019 C  
HETATM   23  O   UNL     1      -7.396  18.294  65.365  1.00  0.00    -0.531 OA 
HETATM   24  C   UNL     1      -9.207  16.704  65.623  1.00  0.00     0.160 C  
ENDBRANCH  21  22
ENDBRANCH   4  21
BRANCH  10  25
HETATM   25  O   UNL     1     -10.223   8.574  65.838  1.00  0.00     0.076 OA 
BRANCH  25  26
HETATM   26  C   UNL     1     -10.264   7.372  66.487  1.00  0.00    -0.078 C  
HETATM   27  C   UNL     1      -9.041   6.568  66.175  1.00  0.00    -0.146 C  
HETATM   28  O   UNL     1     -11.127   7.015  67.278  1.00  0.00    -0.318 OA 
ENDBRANCH  25  26
ENDBRANCH  10  25
TORSDOF 5
ENDMDL
MODEL       86
REMARK 921   NORMALIZED FREE ENERGY PREDICTED BY IDOCK:   -1.31 KCAL/MOL
REMARK 922        TOTAL FREE ENERGY PREDICTED BY IDOCK:   -1.54 KCAL/MOL
REMARK 923 INTER-LIGAND FREE ENERGY PREDICTED BY IDOCK:   -2.33 KCAL/MOL
REMARK 924 INTRA-LIGAND FREE ENERGY PREDICTED BY IDOCK:    0.80 KCAL/MOL
REMARK 927      BINDING AFFINITY PREDICTED BY RF-SCORE:    0.00 PKD
ROOT
HETATM    1  C   UNL     1      -7.877  12.957  68.030  1.00  0.00    -0.149 C  
HETATM    2  C   UNL     1      -6.790  12.766  67.142  1.00  0.00     0.012 C  
HETATM    3  C   UNL     1      -7.927  11.822  66.997  1.00  0.00    -0.164 C  
HETATM    4  C   UNL     1      -9.645  12.299  68.042  1.00  0.00    -0.206 C  
HETATM    5  C   UNL     1      -7.769  11.693  69.370  1.00  0.00     0.280 C  
HETATM    6  C   UNL     1      -5.926   8.030  70.778  1.00  0.00    -0.033 C  
HETATM    7  C   UNL     1      -9.291  12.542  66.739  1.00  0.00    -0.230 C  
HETATM    8  C   UNL     1      -9.695  13.474  65.634  1.00  0.00    -0.109 C  
HETATM    9  C   UNL     1      -9.685  10.731  66.424  1.00  0.00    -0.241 C  
HETATM   10  C   UNL     1      -6.397   6.642  70.388  1.00  0.00    -0.043 C  
HETATM   11  C   UNL     1      -6.384  11.695  70.070  1.00  0.00    -0.098 C  
HETATM   12  C   UNL     1      -9.359   9.801  67.811  1.00  0.00    -0.148 C  
HETATM   13  C   UNL     1      -6.124  10.533  71.062  1.00  0.00     0.091 C  
HETATM   14  C   UNL     1      -6.659   9.162  70.668  1.00  0.00    -0.071 C  
HETATM   15  C   UNL     1      -8.122  10.141  68.905  1.00  0.00    -0.117 C  
HETATM   16  C   UNL     1      -8.071   9.144  70.095  1.00  0.00    -0.145 C  
HETATM   17  C   UNL     1      -8.459   7.771  69.519  1.00  0.00    -0.131 C  
HETATM   18  C   UNL     1      -7.912   6.557  70.203  1.00  0.00    -0.112 C  
ENDROOT
BRANCH   4  19
HETATM   19  C   UNL     1     -10.016  13.724  68.606  1.00  0.00    -0.175 C  
HETATM   20  C   UNL     1     -10.240  14.843  68.988  1.00  0.00    -0.243 C  
ENDBRANCH   4  19
BRANCH   4  21
HETATM   21  O   UNL     1     -11.023  11.800  67.848  1.00  0.00    -0.198 OA 
BRANCH  21  22
HETATM   22  C   UNL     1     -11.763  11.388  68.904  1.00  0.00    -0.343 C  
HETATM   23  O   UNL     1     -12.899  10.941  68.840  1.00  0.00     0.007 OA 
HETATM   24  C   UNL     1     -11.045  11.724  70.190  1.00  0.00     0.316 C  
ENDBRANCH  21  22
ENDBRANCH   4  21
BRANCH  10  25
HETATM   25  O   UNL     1      -6.042   5.705  71.421  1.00  0.00    -0.031 OA 
BRANCH  25  26
HETATM   26  C   UNL     1      -6.265   4.397  71.095  1.00  0.00    -0.018 C  
HETATM   27  C   UNL     1      -5.457   4.012  69.894  1.00  0.00    -0.012 C  
HETATM   28  O   UNL     1      -6.958   3.609  71.726  1.00  0.00    -0.026 OA 
ENDBRANCH  25  26
ENDBRANCH  10  25
TORSDOF 5
ENDMDL
MODEL       87
REMARK 921   NORMALIZED FREE ENERGY PREDICTED BY IDOCK:   -0.74 KCAL/MOL
REMARK 922        TOTAL FREE ENERGY PREDICTED BY IDOCK:   -0.80 KCAL/MOL
REMARK 923 INTER-LIGAND FREE ENERGY PREDICTED BY IDOCK:   -3.68 KCAL/MOL
REMARK 924 INTRA-LIGAND FREE ENERGY PREDICTED BY IDOCK:    2.88 KCAL/MOL
REMARK 927      BINDING AFFINITY PREDICTED BY RF-SCORE:    0.00 PKD
ROOT
HETATM    1  C   UNL     1      -9.717  13.043  67.436  1.00  0.00    -0.213 C  
HETATM    2  C   UNL     1      -8.352  13.390  67.588  1.00  0.00    -0.179 C  
HETATM    3  C   UNL     1      -8.710  12.675  66.337  1.00  0.00     0.077 C  
HETATM    4  C   UNL     1     -10.730  12.472  65.950  1.00  0.00    -0.264 C  
HETATM    5  C   UNL     1      -9.912  11.248  67.816  1.00  0.00    -0.193 C  
HETATM    6  C   UNL     1      -7.957   7.440  68.506  1.00  0.00    -0.124 C  
HETATM    7  C   UNL     1      -9.823  13.403  65.513  1.00  0.00    -0.157 C  
HETATM    8  C   UNL     1      -9.844  14.788  64.936  1.00  0.00     0.080 C  
HETATM    9  C   UNL     1      -9.209  12.070  64.337  1.00  0.00     0.397 C  
HETATM   10  C   UNL     1      -7.522   6.500  67.398  1.00  0.00    -0.092 C  
HETATM   11  C   UNL     1      -9.324  10.873  69.203  1.00  0.00    -0.096 C  
HETATM   12  C   UNL     1      -9.407  10.529  65.030  1.00  0.00    -0.268 C  
HETATM   13  C   UNL     1      -9.250   9.358  69.522  1.00  0.00    -0.182 C  
HETATM   14  C   UNL     1      -8.866   8.433  68.373  1.00  0.00    -0.140 C  
HETATM   15  C   UNL     1      -9.285  10.214  66.681  1.00  0.00    -0.181 C  
HETATM   16  C   UNL     1      -9.540   8.724  67.038  1.00  0.00    -0.236 C  
HETATM   17  C   UNL     1      -8.944   7.901  65.883  1.00  0.00    -0.166 C  
HETATM   18  C   UNL     1      -8.466   6.516  66.197  1.00  0.00    -0.137 C  
ENDROOT
BRANCH   4  19
HETATM   19  C   UNL     1     -11.883  13.337  66.590  1.00  0.00    -0.447 C  
HETATM   20  C   UNL     1     -12.733  13.978  67.152  1.00  0.00     0.435 C  
ENDBRANCH   4  19
BRANCH   4  21
HETATM   21  O   UNL     1     -11.409  12.151  64.677  1.00  0.00    -0.311 OA 
BRANCH  21  22
HETATM   22  C   UNL     1     -12.576  12.751  64.346  1.00  0.00    -0.352 C  
HETATM   23  O   UNL     1     -13.643  12.178  64.179  1.00  0.00    -0.480 OA 
HETATM   24  C   UNL     1     -12.329  14.210  64.042  1.00  0.00    -0.315 C  
ENDBRANCH  21  22
ENDBRANCH   4  21
BRANCH  10  25
HETATM   25  O   UNL     1      -7.492   5.150  67.895  1.00  0.00    -0.074 OA 
BRANCH  25  26
HETATM   26  C   UNL     1      -6.241   4.605  67.972  1.00  0.00    -0.036 C  
HETATM   27  C   UNL     1      -5.252   5.461  67.244  1.00  0.00    -0.005 C  
HETATM   28  O   UNL     1      -5.934   3.603  68.606  1.00  0.00    -0.022 OA 
ENDBRANCH  25  26
ENDBRANCH  10  25
TORSDOF 5
ENDMDL
MODEL       88
REMARK 921   NORMALIZED FREE ENERGY PREDICTED BY IDOCK:   -0.65 KCAL/MOL
REMARK 922        TOTAL FREE ENERGY PREDICTED BY IDOCK:   -0.68 KCAL/MOL
REMARK 923 INTER-LIGAND FREE ENERGY PREDICTED BY IDOCK:   -5.15 KCAL/MOL
REMARK 924 INTRA-LIGAND FREE ENERGY PREDICTED BY IDOCK:    4.47 KCAL/MOL
REMARK 927      BINDING AFFINITY PREDICTED BY RF-SCORE:    0.00 PKD
ROOT
HETATM    1  C   UNL     1      -6.131  17.395  67.527  1.00  0.00    -0.165 C  
HETATM    2  C   UNL     1      -5.288  17.007  66.457  1.00  0.00    -0.116 C  
HETATM    3  C   UNL     1      -6.734  16.720  66.288  1.00  0.00     0.097 C  
HETATM    4  C   UNL     1      -8.002  17.582  67.673  1.00  0.00    -0.202 C  
HETATM    5  C   UNL     1      -6.555  15.895  68.514  1.00  0.00    -0.119 C  
HETATM    6  C   UNL     1      -6.525  11.566  68.752  1.00  0.00    -0.058 C  
HETATM    7  C   UNL     1      -7.631  17.995  66.419  1.00  0.00    -0.297 C  
HETATM    8  C   UNL     1      -7.611  19.272  65.631  1.00  0.00    -0.065 C  
HETATM    9  C   UNL     1      -8.819  16.689  65.773  1.00  0.00     0.062 C  
HETATM   10  C   UNL     1      -7.592  10.678  68.141  1.00  0.00    -0.092 C  
HETATM   11  C   UNL     1      -5.293  15.113  68.967  1.00  0.00    -0.098 C  
HETATM   12  C   UNL     1      -8.895  15.371  66.846  1.00  0.00    -0.281 C  
HETATM   13  C   UNL     1      -5.550  13.729  69.618  1.00  0.00    -0.094 C  
HETATM   14  C   UNL     1      -6.667  12.885  69.018  1.00  0.00    -0.095 C  
HETATM   15  C   UNL     1      -7.595  14.836  67.776  1.00  0.00    -0.174 C  
HETATM   16  C   UNL     1      -7.954  13.631  68.688  1.00  0.00    -0.083 C  
HETATM   17  C   UNL     1      -8.948  12.771  67.888  1.00  0.00    -0.186 C  
HETATM   18  C   UNL     1      -8.986  11.304  68.186  1.00  0.00    -0.166 C  
ENDROOT
BRANCH   4  19
HETATM   19  C   UNL     1      -7.659  18.815  68.595  1.00  0.00    -0.357 C  
HETATM   20  C   UNL     1      -7.323  19.757  69.265  1.00  0.00    -0.248 C  
ENDBRANCH   4  19
BRANCH   4  21
HETATM   21  O   UNL     1      -9.462  17.795  67.596  1.00  0.00    -0.251 OA 
BRANCH  21  22
HETATM   22  C   UNL     1      -9.968  19.010  67.279  1.00  0.00    -0.344 C  
HETATM   23  O   UNL     1     -10.096  19.449  66.145  1.00  0.00    -0.402 OA 
HETATM   24  C   UNL     1     -10.189  19.813  68.539  1.00  0.00    -0.547 C  
ENDBRANCH  21  22
ENDBRANCH   4  21
BRANCH  10  25
HETATM   25  O   UNL     1      -7.661   9.437  68.867  1.00  0.00    -0.074 OA 
BRANCH  25  26
HETATM   26  C   UNL     1      -7.915   9.579  70.202  1.00  0.00    -0.160 C  
HETATM   27  C   UNL     1      -9.382   9.452  70.472  1.00  0.00    -0.319 C  
HETATM   28  O   UNL     1      -7.073   9.711  71.081  1.00  0.00    -0.319 OA 
ENDBRANCH  25  26
ENDBRANCH  10  25
TORSDOF 5
ENDMDL
MODEL       89
REMARK 921   NORMALIZED FREE ENERGY PREDICTED BY IDOCK:   -0.20 KCAL/MOL
REMARK 922        TOTAL FREE ENERGY PREDICTED BY IDOCK:   -0.10 KCAL/MOL
REMARK 923 INTER-LIGAND FREE ENERGY PREDICTED BY IDOCK:   -2.16 KCAL/MOL
REMARK 924 INTRA-LIGAND FREE ENERGY PREDICTED BY IDOCK:    2.06 KCAL/MOL
REMARK 927      BINDING AFFINITY PREDICTED BY RF-SCORE:    0.00 PKD
ROOT
HETATM    1  C   UNL     1      -6.979   8.878  65.894  1.00  0.00    -0.080 C  
HETATM    2  C   UNL     1      -5.855   9.367  65.184  1.00  0.00    -0.060 C  
HETATM    3  C   UNL     1      -5.844   9.580  66.653  1.00  0.00    -0.055 C  
HETATM    4  C   UNL     1      -7.295   8.577  67.729  1.00  0.00    -0.093 C  
HETATM    5  C   UNL     1      -8.086  10.299  66.294  1.00  0.00    -0.129 C  
HETATM    6  C   UNL     1      -8.563  14.605  66.464  1.00  0.00    -0.023 C  
HETATM    7  C   UNL     1      -5.990   8.251  67.464  1.00  0.00    -0.047 C  
HETATM    8  C   UNL     1      -5.132   7.019  67.458  1.00  0.00    -0.015 C  
HETATM    9  C   UNL     1      -5.537   9.518  68.777  1.00  0.00    -0.036 C  
HETATM   10  C   UNL     1      -8.110  15.461  67.631  1.00  0.00    -0.150 C  
HETATM   11  C   UNL     1      -8.456  11.127  65.035  1.00  0.00     0.175 C  
HETATM   12  C   UNL     1      -6.685  10.774  68.813  1.00  0.00    -0.060 C  
HETATM   13  C   UNL     1      -9.207  12.459  65.296  1.00  0.00     0.356 C  
HETATM   14  C   UNL     1      -8.767  13.268  66.509  1.00  0.00     0.082 C  
HETATM   15  C   UNL     1      -7.513  11.333  67.456  1.00  0.00    -0.106 C  
HETATM   16  C   UNL     1      -8.522  12.468  67.783  1.00  0.00    -0.171 C  
HETATM   17  C   UNL     1      -7.872  13.310  68.895  1.00  0.00     0.104 C  
HETATM   18  C   UNL     1      -8.255  14.755  68.979  1.00  0.00    -0.141 C  
ENDROOT
BRANCH   4  19
HETATM   19  C   UNL     1      -8.108   7.320  67.233  1.00  0.00    -0.112 C  
HETATM   20  C   UNL     1      -8.789   6.411  66.834  1.00  0.00    -0.119 C  
ENDBRANCH   4  19
BRANCH   4  21
HETATM   21  O   UNL     1      -7.348   8.286  69.177  1.00  0.00    -0.077 OA 
BRANCH  21  22
HETATM   22  C   UNL     1      -8.519   7.961  69.774  1.00  0.00    -0.132 C  
HETATM   23  O   UNL     1      -9.211   6.992  69.494  1.00  0.00    -0.149 OA 
HETATM   24  C   UNL     1      -8.931   9.066  70.718  1.00  0.00    -0.286 C  
ENDBRANCH  21  22
ENDBRANCH   4  21
BRANCH  10  25
HETATM   25  O   UNL     1      -8.908  16.657  67.690  1.00  0.00    -0.198 OA 
BRANCH  25  26
HETATM   26  C   UNL     1     -10.241  16.435  67.894  1.00  0.00    -0.268 C  
HETATM   27  C   UNL     1     -10.889  17.652  68.478  1.00  0.00    -0.075 C  
HETATM   28  O   UNL     1     -10.856  15.425  67.578  1.00  0.00    -0.292 OA 
ENDBRANCH  25  26
ENDBRANCH  10  25
TORSDOF 5
ENDMDL
MODEL       90
REMARK 921   NORMALIZED FREE ENERGY PREDICTED BY IDOCK:    0.54 KCAL/MOL
REMARK 922        TOTAL FREE ENERGY PREDICTED BY IDOCK:    0.85 KCAL/MOL
REMARK 923 INTER-LIGAND FREE ENERGY PREDICTED BY IDOCK:    0.32 KCAL/MOL
REMARK 924 INTRA-LIGAND FREE ENERGY PREDICTED BY IDOCK:    0.53 KCAL/MOL
REMARK 927      BINDING AFFINITY PREDICTED BY RF-SCORE:    0.00 PKD
ROOT
HETATM    1  C   UNL     1     -11.489  10.625  67.466  1.00  0.00    -0.097 C  
HETATM    2  C   UNL     1     -10.515  10.129  66.566  1.00  0.00    -0.236 C  
HETATM    3  C   UNL     1      -9.998  10.787  67.792  1.00  0.00    -0.195 C  
HETATM    4  C   UNL     1     -11.392  11.201  69.260  1.00  0.00    -0.281 C  
HETATM    5  C   UNL     1     -11.610  12.453  67.252  1.00  0.00    -0.435 C  
HETATM    6  C   UNL     1      -9.876  16.041  65.543  1.00  0.00    -0.224 C  
HETATM    7  C   UNL     1     -10.538  10.138  69.108  1.00  0.00    -0.247 C  
HETATM    8  C   UNL     1     -10.424   8.726  69.604  1.00  0.00    -0.220 C  
HETATM    9  C   UNL     1      -9.187  11.296  69.714  1.00  0.00     1.091 C  
HETATM   10  C   UNL     1      -8.764  16.837  66.197  1.00  0.00    -0.264 C  
HETATM   11  C   UNL     1     -11.864  12.856  65.775  1.00  0.00    -0.469 C  
HETATM   12  C   UNL     1      -9.523  12.898  69.247  1.00  0.00     0.843 C  
HETATM   13  C   UNL     1     -11.771  14.372  65.460  1.00  0.00    -0.352 C  
HETATM   14  C   UNL     1     -10.680  15.156  66.177  1.00  0.00    -0.327 C  
HETATM   15  C   UNL     1     -10.314  13.317  67.819  1.00  0.00    -0.233 C  
HETATM   16  C   UNL     1     -10.513  14.850  67.660  1.00  0.00    -0.249 C  
HETATM   17  C   UNL     1      -9.259  15.508  68.263  1.00  0.00    -0.188 C  
HETATM   18  C   UNL     1      -8.855  16.844  67.723  1.00  0.00    -0.217 C  
ENDROOT
BRANCH   4  19
HETATM   19  C   UNL     1     -12.812  10.529  69.398  1.00  0.00     0.746 C  
HETATM   20  C   UNL     1     -13.859   9.943  69.497  1.00  0.00     3.313 C  
ENDBRANCH   4  19
BRANCH   4  21
HETATM   21  O   UNL     1     -11.178  11.505  70.690  1.00  0.00     0.293 OA 
BRANCH  21  22
HETATM   22  C   UNL     1     -12.139  12.122  71.417  1.00  0.00     0.512 C  
HETATM   23  O   UNL     1     -12.806  11.598  72.298  1.00  0.00    -0.161 OA 
HETATM   24  C   UNL     1     -12.387  13.505  70.861  1.00  0.00    -0.437 C  
ENDBRANCH  21  22
ENDBRANCH   4  21
BRANCH  10  25
HETATM   25  O   UNL     1      -8.832  18.207  65.762  1.00  0.00    -0.462 OA 
BRANCH  25  26
HETATM   26  C   UNL     1      -9.099  19.103  66.759  1.00  0.00    -0.318 C  
HETATM   27  C   UNL     1     -10.553  19.457  66.768  1.00  0.00    -0.574 C  
HETATM   28  O   UNL     1      -8.297  19.510  67.590  1.00  0.00    -0.290 OA 
ENDBRANCH  25  26
ENDBRANCH  10  25
TORSDOF 5
ENDMDL
MODEL       91
REMARK 921   NORMALIZED FREE ENERGY PREDICTED BY IDOCK:    1.67 KCAL/MOL
REMARK 922        TOTAL FREE ENERGY PREDICTED BY IDOCK:    2.32 KCAL/MOL
REMARK 923 INTER-LIGAND FREE ENERGY PREDICTED BY IDOCK:   -2.70 KCAL/MOL
REMARK 924 INTRA-LIGAND FREE ENERGY PREDICTED BY IDOCK:    5.02 KCAL/MOL
REMARK 927      BINDING AFFINITY PREDICTED BY RF-SCORE:    0.00 PKD
ROOT
HETATM    1  C   UNL     1      -8.848  12.875  67.929  1.00  0.00    -0.190 C  
HETATM    2  C   UNL     1      -7.519  12.751  67.456  1.00  0.00    -0.154 C  
HETATM    3  C   UNL     1      -8.553  11.994  66.707  1.00  0.00    -0.177 C  
HETATM    4  C   UNL     1     -10.518  12.435  67.170  1.00  0.00    -0.219 C  
HETATM    5  C   UNL     1      -9.275  11.355  68.885  1.00  0.00    -0.035 C  
HETATM    6  C   UNL     1      -8.188   7.293  69.939  1.00  0.00    -0.133 C  
HETATM    7  C   UNL     1      -9.706  12.903  66.168  1.00  0.00    -0.250 C  
HETATM    8  C   UNL     1      -9.651  14.085  65.245  1.00  0.00     0.116 C  
HETATM    9  C   UNL     1     -10.015  11.255  65.319  1.00  0.00    -0.301 C  
HETATM   10  C   UNL     1      -8.527   6.080  69.095  1.00  0.00    -0.114 C  
HETATM   11  C   UNL     1      -8.241  11.053  70.002  1.00  0.00     1.106 C  
HETATM   12  C   UNL     1     -10.246  10.025  66.472  1.00  0.00    -0.291 C  
HETATM   13  C   UNL     1      -8.397   9.688  70.719  1.00  0.00     0.062 C  
HETATM   14  C   UNL     1      -8.795   8.499  69.852  1.00  0.00    -0.137 C  
HETATM   15  C   UNL     1      -9.483   9.986  67.974  1.00  0.00    -0.150 C  
HETATM   16  C   UNL     1      -9.900   8.763  68.837  1.00  0.00    -0.183 C  
HETATM   17  C   UNL     1     -10.094   7.594  67.856  1.00  0.00    -0.231 C  
HETATM   18  C   UNL     1      -9.872   6.209  68.381  1.00  0.00    -0.142 C  
ENDROOT
BRANCH   4  19
HETATM   19  C   UNL     1     -11.024  13.745  67.890  1.00  0.00    -0.270 C  
HETATM   20  C   UNL     1     -11.406  14.782  68.367  1.00  0.00    -0.317 C  
ENDBRANCH   4  19
BRANCH   4  21
HETATM   21  O   UNL     1     -11.745  12.148  66.399  1.00  0.00    -0.489 OA 
BRANCH  21  22
HETATM   22  C   UNL     1     -12.270  13.076  65.564  1.00  0.00    -0.469 C  
HETATM   23  O   UNL     1     -11.886  13.300  64.425  1.00  0.00    -0.363 OA 
HETATM   24  C   UNL     1     -13.285  13.913  66.307  1.00  0.00     0.904 C  
ENDBRANCH  21  22
ENDBRANCH   4  21
BRANCH  10  25
HETATM   25  O   UNL     1      -8.602   4.914  69.935  1.00  0.00    -0.085 OA 
BRANCH  25  26
HETATM   26  C   UNL     1      -9.340   5.085  71.072  1.00  0.00    -0.152 C  
HETATM   27  C   UNL     1     -10.803   4.988  70.766  1.00  0.00     0.088 C  
HETATM   28  O   UNL     1      -8.892   5.220  72.203  1.00  0.00    -0.129 OA 
ENDBRANCH  25  26
ENDBRANCH  10  25
TORSDOF 5
ENDMDL
MODEL       92
REMARK 921   NORMALIZED FREE ENERGY PREDICTED BY IDOCK:    1.88 KCAL/MOL
REMARK 922        TOTAL FREE ENERGY PREDICTED BY IDOCK:    2.58 KCAL/MOL
REMARK 923 INTER-LIGAND FREE ENERGY PREDICTED BY IDOCK:    0.52 KCAL/MOL
REMARK 924 INTRA-LIGAND FREE ENERGY PREDICTED BY IDOCK:    2.06 KCAL/MOL
REMARK 927      BINDING AFFINITY PREDICTED BY RF-SCORE:    0.00 PKD
ROOT
HETATM    1  C   UNL     1      -6.503  17.807  70.136  1.00  0.00     0.357 C  
HETATM    2  C   UNL     1      -5.268  17.124  70.015  1.00  0.00    -0.202 C  
HETATM    3  C   UNL     1      -5.871  17.615  68.751  1.00  0.00    -0.174 C  
HETATM    4  C   UNL     1      -7.478  18.899  68.947  1.00  0.00    -0.303 C  
HETATM    5  C   UNL     1      -7.860  16.658  69.643  1.00  0.00     0.443 C  
HETATM    6  C   UNL     1      -8.950  12.898  67.781  1.00  0.00    -0.191 C  
HETATM    7  C   UNL     1      -6.144  19.155  68.761  1.00  0.00    -0.252 C  
HETATM    8  C   UNL     1      -5.195  20.301  68.962  1.00  0.00    -0.249 C  
HETATM    9  C   UNL     1      -6.428  18.674  66.967  1.00  0.00    -0.199 C  
HETATM   10  C   UNL     1      -9.120  12.712  66.286  1.00  0.00    -0.046 C  
HETATM   11  C   UNL     1      -7.810  15.319  70.424  1.00  0.00     0.875 C  
HETATM   12  C   UNL     1      -7.656  17.501  66.853  1.00  0.00    -0.245 C  
HETATM   13  C   UNL     1      -8.776  14.210  69.933  1.00  0.00     1.311 C  
HETATM   14  C   UNL     1      -8.970  14.086  68.427  1.00  0.00    -0.189 C  
HETATM   15  C   UNL     1      -7.944  16.321  68.022  1.00  0.00    -0.151 C  
HETATM   16  C   UNL     1      -9.145  15.399  67.674  1.00  0.00    -0.183 C  
HETATM   17  C   UNL     1      -9.113  15.214  66.147  1.00  0.00    -0.276 C  
HETATM   18  C   UNL     1      -9.691  13.949  65.593  1.00  0.00    -0.157 C  
ENDROOT
BRANCH   4  19
HETATM   19  C   UNL     1      -7.846  19.724  70.240  1.00  0.00     0.952 C  
HETATM   20  C   UNL     1      -8.135  20.283  71.266  1.00  0.00     1.925 C  
ENDBRANCH   4  19
BRANCH   4  21
HETATM   21  O   UNL     1      -8.062  19.822  67.952  1.00  0.00    -0.293 OA 
BRANCH  21  22
HETATM   22  C   UNL     1      -9.403  19.896  67.781  1.00  0.00    -0.347 C  
HETATM   23  O   UNL     1     -10.240  19.660  68.642  1.00  0.00    -0.433 OA 
HETATM   24  C   UNL     1      -9.717  20.146  66.325  1.00  0.00    -0.515 C  
ENDBRANCH  21  22
ENDBRANCH   4  21
BRANCH  10  25
HETATM   25  O   UNL     1     -10.031  11.627  66.035  1.00  0.00    -0.214 OA 
BRANCH  25  26
HETATM   26  C   UNL     1     -10.121  11.259  64.722  1.00  0.00    -0.285 C  
HETATM   27  C   UNL     1      -9.966  12.453  63.833  1.00  0.00    -0.262 C  
HETATM   28  O   UNL     1     -10.232  10.113  64.305  1.00  0.00    -0.177 OA 
ENDBRANCH  25  26
ENDBRANCH  10  25
TORSDOF 5
ENDMDL
MODEL       93
REMARK 921   NORMALIZED FREE ENERGY PREDICTED BY IDOCK:    2.44 KCAL/MOL
REMARK 922        TOTAL FREE ENERGY PREDICTED BY IDOCK:    3.32 KCAL/MOL
REMARK 923 INTER-LIGAND FREE ENERGY PREDICTED BY IDOCK:   -2.44 KCAL/MOL
REMARK 924 INTRA-LIGAND FREE ENERGY PREDICTED BY IDOCK:    5.76 KCAL/MOL
REMARK 927      BINDING AFFINITY PREDICTED BY RF-SCORE:    0.00 PKD
ROOT
HETATM    1  C   UNL     1      -6.510  10.195  67.691  1.00  0.00    -0.063 C  
HETATM    2  C   UNL     1      -6.099   9.445  66.563  1.00  0.00    -0.064 C  
HETATM    3  C   UNL     1      -7.520   9.295  66.965  1.00  0.00    -0.091 C  
HETATM    4  C   UNL     1      -8.211  10.632  68.381  1.00  0.00    -0.125 C  
HETATM    5  C   UNL     1      -6.596   9.065  69.148  1.00  0.00    -0.050 C  
HETATM    6  C   UNL     1      -6.575   4.976  70.589  1.00  0.00    -0.035 C  
HETATM    7  C   UNL     1      -8.289  10.656  67.012  1.00  0.00    -0.126 C  
HETATM    8  C   UNL     1      -8.518  11.672  65.931  1.00  0.00     0.137 C  
HETATM    9  C   UNL     1      -9.654   9.376  67.191  1.00  0.00    -0.202 C  
HETATM   10  C   UNL     1      -7.805   4.091  70.641  1.00  0.00    -0.051 C  
HETATM   11  C   UNL     1      -5.272   8.286  69.366  1.00  0.00    -0.030 C  
HETATM   12  C   UNL     1      -9.380   8.402  68.559  1.00  0.00    -0.139 C  
HETATM   13  C   UNL     1      -5.315   7.161  70.432  1.00  0.00    -0.023 C  
HETATM   14  C   UNL     1      -6.588   6.326  70.498  1.00  0.00    -0.048 C  
HETATM   15  C   UNL     1      -7.849   7.980  69.125  1.00  0.00    -0.108 C  
HETATM   16  C   UNL     1      -7.894   7.106  70.408  1.00  0.00    -0.100 C  
HETATM   17  C   UNL     1      -9.121   6.190  70.258  1.00  0.00    -0.158 C  
HETATM   18  C   UNL     1      -9.083   4.866  70.958  1.00  0.00    -0.181 C  
ENDROOT
BRANCH   4  19
HETATM   19  C   UNL     1      -7.544  12.014  68.747  1.00  0.00    -0.070 C  
HETATM   20  C   UNL     1      -7.014  13.036  69.098  1.00  0.00    -0.020 C  
ENDBRANCH   4  19
BRANCH   4  21
HETATM   21  O   UNL     1      -9.603  10.988  68.728  1.00  0.00    -0.189 OA 
BRANCH  21  22
HETATM   22  C   UNL     1     -10.287  11.896  67.993  1.00  0.00    -0.196 C  
HETATM   23  O   UNL     1     -10.441  11.853  66.781  1.00  0.00    -0.212 OA 
HETATM   24  C   UNL     1     -10.686  13.061  68.869  1.00  0.00    -0.201 C  
ENDBRANCH  21  22
ENDBRANCH   4  21
BRANCH  10  25
HETATM   25  O   UNL     1      -7.643   3.100  71.671  1.00  0.00    -0.046 OA 
BRANCH  25  26
HETATM   26  C   UNL     1      -6.509   2.347  71.555  1.00  0.00    -0.019 C  
HETATM   27  C   UNL     1      -6.079   2.266  70.124  1.00  0.00    -0.023 C  
HETATM   28  O   UNL     1      -5.871   1.865  72.483  1.00  0.00    -0.007 OA 
ENDBRANCH  25  26
ENDBRANCH  10  25
TORSDOF 5
ENDMDL
MODEL       94
REMARK 921   NORMALIZED FREE ENERGY PREDICTED BY IDOCK:    2.52 KCAL/MOL
REMARK 922        TOTAL FREE ENERGY PREDICTED BY IDOCK:    3.41 KCAL/MOL
REMARK 923 INTER-LIGAND FREE ENERGY PREDICTED BY IDOCK:    3.23 KCAL/MOL
REMARK 924 INTRA-LIGAND FREE ENERGY PREDICTED BY IDOCK:    0.18 KCAL/MOL
REMARK 927      BINDING AFFINITY PREDICTED BY RF-SCORE:    0.00 PKD
ROOT
HETATM    1  C   UNL     1      -6.524   9.617  66.870  1.00  0.00    -0.067 C  
HETATM    2  C   UNL     1      -5.634   9.859  67.945  1.00  0.00    -0.039 C  
HETATM    3  C   UNL     1      -6.501   8.660  68.070  1.00  0.00    -0.057 C  
HETATM    4  C   UNL     1      -7.544   8.110  66.373  1.00  0.00    -0.091 C  
HETATM    5  C   UNL     1      -8.215  10.159  67.374  1.00  0.00    -0.114 C  
HETATM    6  C   UNL     1     -10.824  11.412  70.601  1.00  0.00     1.458 C  
HETATM    7  C   UNL     1      -6.346   7.666  66.872  1.00  0.00    -0.053 C  
HETATM    8  C   UNL     1      -5.128   6.951  66.364  1.00  0.00    -0.018 C  
HETATM    9  C   UNL     1      -7.366   6.695  68.117  1.00  0.00    -0.090 C  
HETATM   10  C   UNL     1     -11.558  10.451  71.517  1.00  0.00     0.131 C  
HETATM   11  C   UNL     1      -8.235  11.625  67.882  1.00  0.00    -0.141 C  
HETATM   12  C   UNL     1      -8.810   7.519  68.476  1.00  0.00    -0.126 C  
HETATM   13  C   UNL     1      -9.563  12.102  68.524  1.00  0.00    -0.137 C  
HETATM   14  C   UNL     1     -10.306  11.095  69.392  1.00  0.00    -0.090 C  
HETATM   15  C   UNL     1      -8.955   9.199  68.505  1.00  0.00    -0.133 C  
HETATM   16  C   UNL     1     -10.395   9.680  68.833  1.00  0.00    -0.220 C  
HETATM   17  C   UNL     1     -10.958   8.675  69.854  1.00  0.00    -0.169 C  
HETATM   18  C   UNL     1     -12.000   9.172  70.807  1.00  0.00    -0.243 C  
ENDROOT
BRANCH   4  19
HETATM   19  C   UNL     1      -7.201   8.548  64.897  1.00  0.00    -0.084 C  
HETATM   20  C   UNL     1      -6.939   8.803  63.751  1.00  0.00    -0.088 C  
ENDBRANCH   4  19
BRANCH   4  21
HETATM   21  O   UNL     1      -8.186   6.818  66.051  1.00  0.00    -0.115 OA 
BRANCH  21  22
HETATM   22  C   UNL     1      -9.307   6.774  65.294  1.00  0.00     0.709 C  
HETATM   23  O   UNL     1     -10.305   7.460  65.466  1.00  0.00     1.607 OA 
HETATM   24  C   UNL     1      -9.212   5.632  64.310  1.00  0.00     0.595 C  
ENDBRANCH  21  22
ENDBRANCH   4  21
BRANCH  10  25
HETATM   25  O   UNL     1     -12.745  11.084  72.029  1.00  0.00    -0.305 OA 
BRANCH  25  26
HETATM   26  C   UNL     1     -13.214  12.110  71.257  1.00  0.00     0.028 C  
HETATM   27  C   UNL     1     -13.175  13.398  72.019  1.00  0.00    -0.531 C  
HETATM   28  O   UNL     1     -13.547  12.028  70.082  1.00  0.00     1.612 OA 
ENDBRANCH  25  26
ENDBRANCH  10  25
TORSDOF 5
ENDMDL
MODEL       95
REMARK 921   NORMALIZED FREE ENERGY PREDICTED BY IDOCK:    3.99 KCAL/MOL
REMARK 922        TOTAL FREE ENERGY PREDICTED BY IDOCK:    5.32 KCAL/MOL
REMARK 923 INTER-LIGAND FREE ENERGY PREDICTED BY IDOCK:    4.12 KCAL/MOL
REMARK 924 INTRA-LIGAND FREE ENERGY PREDICTED BY IDOCK:    1.19 KCAL/MOL
REMARK 927      BINDING AFFINITY PREDICTED BY RF-SCORE:    0.00 PKD
ROOT
HETATM    1  C   UNL     1      -7.966   8.560  68.637  1.00  0.00    -0.116 C  
HETATM    2  C   UNL     1      -8.474   8.225  69.916  1.00  0.00    -0.127 C  
HETATM    3  C   UNL     1      -9.468   8.300  68.815  1.00  0.00    -0.148 C  
HETATM    4  C   UNL     1      -8.700   8.446  66.903  1.00  0.00    -0.130 C  
HETATM    5  C   UNL     1      -8.345  10.335  68.301  1.00  0.00    -0.116 C  
HETATM    6  C   UNL     1     -10.556  13.872  69.483  1.00  0.00     0.111 C  
HETATM    7  C   UNL     1      -9.126   7.355  67.617  1.00  0.00    -0.126 C  
HETATM    8  C   UNL     1      -8.940   5.866  67.586  1.00  0.00    -0.107 C  
HETATM    9  C   UNL     1     -10.871   7.938  67.230  1.00  0.00    -0.189 C  
HETATM   10  C   UNL     1     -11.987  14.153  69.066  1.00  0.00    -0.340 C  
HETATM   11  C   UNL     1      -7.843  11.268  69.435  1.00  0.00     0.128 C  
HETATM   12  C   UNL     1     -10.918   9.635  67.108  1.00  0.00    -0.066 C  
HETATM   13  C   UNL     1      -8.298  12.747  69.347  1.00  0.00     1.100 C  
HETATM   14  C   UNL     1      -9.722  13.000  68.870  1.00  0.00     0.177 C  
HETATM   15  C   UNL     1      -9.941  10.672  68.009  1.00  0.00    -0.180 C  
HETATM   16  C   UNL     1     -10.175  12.171  67.674  1.00  0.00    -0.206 C  
HETATM   17  C   UNL     1     -11.680  12.316  67.390  1.00  0.00    -0.405 C  
HETATM   18  C   UNL     1     -12.308  13.648  67.660  1.00  0.00    -0.054 C  
ENDROOT
BRANCH   4  19
HETATM   19  C   UNL     1      -7.233   8.065  66.466  1.00  0.00    -0.080 C  
HETATM   20  C   UNL     1      -6.094   7.770  66.213  1.00  0.00    -0.045 C  
ENDBRANCH   4  19
BRANCH   4  21
HETATM   21  O   UNL     1      -9.364   8.185  65.608  1.00  0.00    -0.065 OA 
BRANCH  21  22
HETATM   22  C   UNL     1      -9.136   8.986  64.541  1.00  0.00     0.081 C  
HETATM   23  O   UNL     1      -8.363   9.934  64.521  1.00  0.00    -0.145 OA 
HETATM   24  C   UNL     1     -10.104   8.644  63.433  1.00  0.00     4.796 C  
ENDBRANCH  21  22
ENDBRANCH   4  21
BRANCH  10  25
HETATM   25  O   UNL     1     -12.219  15.573  69.070  1.00  0.00    -0.267 OA 
BRANCH  25  26
HETATM   26  C   UNL     1     -11.174  16.317  68.599  1.00  0.00    -0.354 C  
HETATM   27  C   UNL     1     -11.274  17.728  69.088  1.00  0.00     1.237 C  
HETATM   28  O   UNL     1     -10.234  15.894  67.938  1.00  0.00    -0.242 OA 
ENDBRANCH  25  26
ENDBRANCH  10  25
TORSDOF 5
ENDMDL
MODEL       96
REMARK 921   NORMALIZED FREE ENERGY PREDICTED BY IDOCK:    4.43 KCAL/MOL
REMARK 922        TOTAL FREE ENERGY PREDICTED BY IDOCK:    5.88 KCAL/MOL
REMARK 923 INTER-LIGAND FREE ENERGY PREDICTED BY IDOCK:    3.78 KCAL/MOL
REMARK 924 INTRA-LIGAND FREE ENERGY PREDICTED BY IDOCK:    2.10 KCAL/MOL
REMARK 927      BINDING AFFINITY PREDICTED BY RF-SCORE:    0.00 PKD
ROOT
HETATM    1  C   UNL     1      -8.759  15.313  68.796  1.00  0.00    -0.195 C  
HETATM    2  C   UNL     1      -9.128  15.861  70.049  1.00  0.00     0.502 C  
HETATM    3  C   UNL     1      -8.245  14.669  70.090  1.00  0.00     0.845 C  
HETATM    4  C   UNL     1      -7.429  14.076  68.287  1.00  0.00    -0.123 C  
HETATM    5  C   UNL     1      -9.783  13.809  68.489  1.00  0.00    -0.193 C  
HETATM    6  C   UNL     1     -12.516  10.870  70.128  1.00  0.00    -0.356 C  
HETATM    7  C   UNL     1      -6.917  14.862  69.287  1.00  0.00    -0.151 C  
HETATM    8  C   UNL     1      -5.834  15.889  69.447  1.00  0.00    -0.127 C  
HETATM    9  C   UNL     1      -6.629  13.261  70.229  1.00  0.00     0.325 C  
HETATM   10  C   UNL     1     -12.073   9.629  70.880  1.00  0.00    -0.300 C  
HETATM   11  C   UNL     1     -11.302  14.095  68.621  1.00  0.00    -0.306 C  
HETATM   12  C   UNL     1      -7.816  12.111  69.824  1.00  0.00     1.399 C  
HETATM   13  C   UNL     1     -12.231  12.854  68.590  1.00  0.00    -0.003 C  
HETATM   14  C   UNL     1     -11.732  11.605  69.306  1.00  0.00    -0.396 C  
HETATM   15  C   UNL     1      -9.409  12.498  69.432  1.00  0.00     1.177 C  
HETATM   16  C   UNL     1     -10.268  11.253  69.076  1.00  0.00    -0.169 C  
HETATM   17  C   UNL     1      -9.779  10.120  69.996  1.00  0.00    -0.144 C  
HETATM   18  C   UNL     1     -10.763   9.048  70.350  1.00  0.00    -0.267 C  
ENDROOT
BRANCH   4  19
HETATM   19  C   UNL     1      -7.298  14.971  66.995  1.00  0.00     0.048 C  
HETATM   20  C   UNL     1      -7.279  15.655  66.005  1.00  0.00     2.473 C  
ENDBRANCH   4  19
BRANCH   4  21
HETATM   21  O   UNL     1      -6.273  13.192  68.031  1.00  0.00    -0.088 OA 
BRANCH  21  22
HETATM   22  C   UNL     1      -6.436  12.003  67.407  1.00  0.00    -0.137 C  
HETATM   23  O   UNL     1      -5.569  11.152  67.266  1.00  0.00    -0.046 OA 
HETATM   24  C   UNL     1      -7.799  11.953  66.757  1.00  0.00    -0.070 C  
ENDBRANCH  21  22
ENDBRANCH   4  21
BRANCH  10  25
HETATM   25  O   UNL     1     -13.075   8.604  70.752  1.00  0.00     0.130 OA 
BRANCH  25  26
HETATM   26  C   UNL     1     -12.648   7.353  71.097  1.00  0.00    -0.293 C  
HETATM   27  C   UNL     1     -12.158   7.339  72.511  1.00  0.00    -0.078 C  
HETATM   28  O   UNL     1     -12.719   6.353  70.395  1.00  0.00     0.321 OA 
ENDBRANCH  25  26
ENDBRANCH  10  25
TORSDOF 5
ENDMDL
MODEL       97
REMARK 921   NORMALIZED FREE ENERGY PREDICTED BY IDOCK:    4.71 KCAL/MOL
REMARK 922        TOTAL FREE ENERGY PREDICTED BY IDOCK:    6.24 KCAL/MOL
REMARK 923 INTER-LIGAND FREE ENERGY PREDICTED BY IDOCK:    1.15 KCAL/MOL
REMARK 924 INTRA-LIGAND FREE ENERGY PREDICTED BY IDOCK:    5.09 KCAL/MOL
REMARK 927      BINDING AFFINITY PREDICTED BY RF-SCORE:    0.00 PKD
ROOT
HETATM    1  C   UNL     1     -10.090   8.549  69.601  1.00  0.00    -0.202 C  
HETATM    2  C   UNL     1     -11.060   8.448  68.574  1.00  0.00     0.317 C  
HETATM    3  C   UNL     1      -9.707   8.892  68.155  1.00  0.00    -0.180 C  
HETATM    4  C   UNL     1      -8.211   8.713  69.568  1.00  0.00    -0.115 C  
HETATM    5  C   UNL     1      -9.888  10.328  70.045  1.00  0.00    -0.082 C  
HETATM    6  C   UNL     1     -10.708  14.456  69.003  1.00  0.00    -0.261 C  
HETATM    7  C   UNL     1      -8.582   7.878  68.545  1.00  0.00    -0.128 C  
HETATM    8  C   UNL     1      -8.416   6.433  68.175  1.00  0.00    -0.115 C  
HETATM    9  C   UNL     1      -7.704   9.088  67.405  1.00  0.00    -0.092 C  
HETATM   10  C   UNL     1      -9.869  15.266  68.034  1.00  0.00    -0.216 C  
HETATM   11  C   UNL     1     -11.240  11.003  70.397  1.00  0.00    -0.102 C  
HETATM   12  C   UNL     1      -7.804  10.670  68.026  1.00  0.00    -0.105 C  
HETATM   13  C   UNL     1     -11.203  12.543  70.578  1.00  0.00     1.105 C  
HETATM   14  C   UNL     1     -10.306  13.324  69.625  1.00  0.00     0.760 C  
HETATM   15  C   UNL     1      -9.116  11.255  68.908  1.00  0.00    -0.064 C  
HETATM   16  C   UNL     1      -8.927  12.725  69.376  1.00  0.00     1.279 C  
HETATM   17  C   UNL     1      -8.167  13.439  68.245  1.00  0.00    -0.160 C  
HETATM   18  C   UNL     1      -8.384  14.913  68.092  1.00  0.00    -0.144 C  
ENDROOT
BRANCH   4  19
HETATM   19  C   UNL     1      -8.255   7.789  70.846  1.00  0.00    -0.107 C  
HETATM   20  C   UNL     1      -8.360   7.054  71.793  1.00  0.00    -0.110 C  
ENDBRANCH   4  19
BRANCH   4  21
HETATM   21  O   UNL     1      -6.745   8.719  69.381  1.00  0.00    -0.047 OA 
BRANCH  21  22
HETATM   22  C   UNL     1      -5.928   9.214  70.339  1.00  0.00    -0.041 C  
HETATM   23  O   UNL     1      -5.126   8.560  70.993  1.00  0.00    -0.028 OA 
HETATM   24  C   UNL     1      -6.273  10.660  70.604  1.00  0.00    -0.045 C  
ENDBRANCH  21  22
ENDBRANCH   4  21
BRANCH  10  25
HETATM   25  O   UNL     1      -9.985  16.665  68.349  1.00  0.00    -0.236 OA 
BRANCH  25  26
HETATM   26  C   UNL     1     -10.486  16.923  69.595  1.00  0.00    -0.158 C  
HETATM   27  C   UNL     1     -11.125  15.695  70.165  1.00  0.00    -0.347 C  
HETATM   28  O   UNL     1     -10.370  17.975  70.210  1.00  0.00     0.770 OA 
ENDBRANCH  25  26
ENDBRANCH  10  25
TORSDOF 5
ENDMDL
MODEL       98
REMARK 921   NORMALIZED FREE ENERGY PREDICTED BY IDOCK:    7.68 KCAL/MOL
REMARK 922        TOTAL FREE ENERGY PREDICTED BY IDOCK:   10.09 KCAL/MOL
REMARK 923 INTER-LIGAND FREE ENERGY PREDICTED BY IDOCK:    8.48 KCAL/MOL
REMARK 924 INTRA-LIGAND FREE ENERGY PREDICTED BY IDOCK:    1.60 KCAL/MOL
REMARK 927      BINDING AFFINITY PREDICTED BY RF-SCORE:    0.00 PKD
ROOT
HETATM    1  C   UNL     1     -11.127  11.959  66.880  1.00  0.00    -0.356 C  
HETATM    2  C   UNL     1     -11.882  11.946  68.078  1.00  0.00    -0.323 C  
HETATM    3  C   UNL     1     -11.800  13.248  67.370  1.00  0.00    -0.413 C  
HETATM    4  C   UNL     1     -11.001  13.201  65.465  1.00  0.00    -0.277 C  
HETATM    5  C   UNL     1      -9.483  12.721  67.230  1.00  0.00    -0.204 C  
HETATM    6  C   UNL     1      -7.032  14.970  70.010  1.00  0.00    -0.096 C  
HETATM    7  C   UNL     1     -12.304  13.173  65.891  1.00  0.00    -0.462 C  
HETATM    8  C   UNL     1     -13.641  12.760  65.348  1.00  0.00     2.242 C  
HETATM    9  C   UNL     1     -12.114  15.018  66.195  1.00  0.00     0.149 C  
HETATM   10  C   UNL     1      -7.035  16.484  70.108  1.00  0.00     0.749 C  
HETATM   11  C   UNL     1      -8.757  12.033  68.417  1.00  0.00    -0.147 C  
HETATM   12  C   UNL     1     -10.510  15.388  66.626  1.00  0.00    -0.293 C  
HETATM   13  C   UNL     1      -7.469  12.732  68.922  1.00  0.00     0.022 C  
HETATM   14  C   UNL     1      -7.483  14.255  68.954  1.00  0.00    -0.123 C  
HETATM   15  C   UNL     1      -9.508  14.355  67.504  1.00  0.00    -0.207 C  
HETATM   16  C   UNL     1      -8.084  14.936  67.730  1.00  0.00    -0.162 C  
HETATM   17  C   UNL     1      -8.267  16.451  67.925  1.00  0.00    -0.170 C  
HETATM   18  C   UNL     1      -7.248  17.167  68.757  1.00  0.00    -0.232 C  
ENDROOT
BRANCH   4  19
HETATM   19  C   UNL     1     -10.874  11.923  64.550  1.00  0.00    -0.368 C  
HETATM   20  C   UNL     1     -10.732  10.913  63.910  1.00  0.00    -0.186 C  
ENDBRANCH   4  19
BRANCH   4  21
HETATM   21  O   UNL     1     -11.101  14.206  64.386  1.00  0.00    -0.350 OA 
BRANCH  21  22
HETATM   22  C   UNL     1     -11.100  13.827  63.087  1.00  0.00     1.894 C  
HETATM   23  O   UNL     1     -10.103  13.572  62.425  1.00  0.00     5.475 OA 
HETATM   24  C   UNL     1     -12.498  13.933  62.525  1.00  0.00     2.440 C  
ENDBRANCH  21  22
ENDBRANCH   4  21
BRANCH  10  25
HETATM   25  O   UNL     1      -5.768  16.937  70.617  1.00  0.00    -0.134 OA 
BRANCH  25  26
HETATM   26  C   UNL     1      -5.594  18.291  70.571  1.00  0.00    -0.191 C  
HETATM   27  C   UNL     1      -5.827  18.894  71.921  1.00  0.00     0.391 C  
HETATM   28  O   UNL     1      -5.223  18.934  69.597  1.00  0.00    -0.183 OA 
ENDBRANCH  25  26
ENDBRANCH  10  25
TORSDOF 5
ENDMDL
MODEL       99
REMARK 921   NORMALIZED FREE ENERGY PREDICTED BY IDOCK:   10.25 KCAL/MOL
REMARK 922        TOTAL FREE ENERGY PREDICTED BY IDOCK:   13.41 KCAL/MOL
REMARK 923 INTER-LIGAND FREE ENERGY PREDICTED BY IDOCK:   11.24 KCAL/MOL
REMARK 924 INTRA-LIGAND FREE ENERGY PREDICTED BY IDOCK:    2.17 KCAL/MOL
REMARK 927      BINDING AFFINITY PREDICTED BY RF-SCORE:    0.00 PKD
ROOT
HETATM    1  C   UNL     1      -9.653   8.385  67.025  1.00  0.00    -0.248 C  
HETATM    2  C   UNL     1     -10.972   8.897  67.082  1.00  0.00     0.119 C  
HETATM    3  C   UNL     1     -10.019   9.637  66.216  1.00  0.00    -0.335 C  
HETATM    4  C   UNL     1      -8.207   8.710  65.858  1.00  0.00    -0.123 C  
HETATM    5  C   UNL     1      -8.571   9.429  68.095  1.00  0.00    -0.120 C  
HETATM    6  C   UNL     1      -8.145  13.102  70.358  1.00  0.00     4.131 C  
HETATM    7  C   UNL     1      -9.363   8.735  65.120  1.00  0.00     0.077 C  
HETATM    8  C   UNL     1     -10.001   7.925  64.029  1.00  0.00     5.161 C  
HETATM    9  C   UNL     1      -8.857  10.474  64.616  1.00  0.00    -0.211 C  
HETATM   10  C   UNL     1      -7.731  14.428  69.749  1.00  0.00     0.318 C  
HETATM   11  C   UNL     1      -9.125   9.565  69.537  1.00  0.00    -0.193 C  
HETATM   12  C   UNL     1      -7.981  11.224  65.867  1.00  0.00     0.083 C  
HETATM   13  C   UNL     1      -8.402  10.590  70.448  1.00  0.00     1.115 C  
HETATM   14  C   UNL     1      -7.947  11.888  69.794  1.00  0.00     1.373 C  
HETATM   15  C   UNL     1      -8.252  10.946  67.507  1.00  0.00    -0.116 C  
HETATM   16  C   UNL     1      -7.288  11.743  68.428  1.00  0.00    -0.094 C  
HETATM   17  C   UNL     1      -7.058  13.098  67.734  1.00  0.00    -0.148 C  
HETATM   18  C   UNL     1      -6.730  14.271  68.606  1.00  0.00    -0.092 C  
ENDROOT
BRANCH   4  19
HETATM   19  C   UNL     1      -7.906   7.173  66.039  1.00  0.00    -0.107 C  
HETATM   20  C   UNL     1      -7.749   5.984  66.144  1.00  0.00    -0.102 C  
ENDBRANCH   4  19
BRANCH   4  21
HETATM   21  O   UNL     1      -7.214   8.981  64.797  1.00  0.00    -0.093 OA 
BRANCH  21  22
HETATM   22  C   UNL     1      -5.891   8.830  65.035  1.00  0.00    -0.058 C  
HETATM   23  O   UNL     1      -5.359   7.811  65.454  1.00  0.00    -0.028 OA 
HETATM   24  C   UNL     1      -5.189  10.158  64.872  1.00  0.00    -0.085 C  
ENDBRANCH  21  22
ENDBRANCH   4  21
BRANCH  10  25
HETATM   25  O   UNL     1      -7.103  15.244  70.754  1.00  0.00     0.466 OA 
BRANCH  25  26
HETATM   26  C   UNL     1      -6.230  14.572  71.562  1.00  0.00     0.296 C  
HETATM   27  C   UNL     1      -5.243  15.520  72.169  1.00  0.00     0.135 C  
HETATM   28  O   UNL     1      -6.276  13.378  71.830  1.00  0.00     0.121 OA 
ENDBRANCH  25  26
ENDBRANCH  10  25
TORSDOF 5
ENDMDL
MODEL      100
REMARK 921   NORMALIZED FREE ENERGY PREDICTED BY IDOCK:   11.35 KCAL/MOL
REMARK 922        TOTAL FREE ENERGY PREDICTED BY IDOCK:   14.83 KCAL/MOL
REMARK 923 INTER-LIGAND FREE ENERGY PREDICTED BY IDOCK:    5.02 KCAL/MOL
REMARK 924 INTRA-LIGAND FREE ENERGY PREDICTED BY IDOCK:    9.80 KCAL/MOL
REMARK 927      BINDING AFFINITY PREDICTED BY RF-SCORE:    0.00 PKD
ROOT
HETATM    1  C   UNL     1     -11.279   8.221  71.827  1.00  0.00    -0.346 C  
HETATM    2  C   UNL     1     -12.480   7.699  71.288  1.00  0.00    -0.324 C  
HETATM    3  C   UNL     1     -11.321   6.773  71.322  1.00  0.00    -0.333 C  
HETATM    4  C   UNL     1      -9.681   7.404  72.409  1.00  0.00    -0.155 C  
HETATM    5  C   UNL     1     -10.145   8.643  70.434  1.00  0.00    -0.213 C  
HETATM    6  C   UNL     1      -9.300   8.294  66.196  1.00  0.00    -0.254 C  
HETATM    7  C   UNL     1     -10.727   6.587  72.757  1.00  0.00    -0.269 C  
HETATM    8  C   UNL     1     -11.382   6.096  74.015  1.00  0.00     1.165 C  
HETATM    9  C   UNL     1      -9.861   5.257  71.750  1.00  0.00    -0.222 C  
HETATM   10  C   UNL     1      -8.587   7.111  65.570  1.00  0.00    -0.080 C  
HETATM   11  C   UNL     1     -10.816   9.574  69.391  1.00  0.00    -0.226 C  
HETATM   12  C   UNL     1      -9.001   5.954  70.458  1.00  0.00    -0.151 C  
HETATM   13  C   UNL     1     -10.020   9.813  68.083  1.00  0.00    -0.179 C  
HETATM   14  C   UNL     1      -9.268   8.619  67.509  1.00  0.00    -0.151 C  
HETATM   15  C   UNL     1      -9.493   7.343  69.638  1.00  0.00    -0.156 C  
HETATM   16  C   UNL     1      -8.503   7.773  68.520  1.00  0.00    -0.129 C  
HETATM   17  C   UNL     1      -7.957   6.470  67.910  1.00  0.00    -0.109 C  
HETATM   18  C   UNL     1      -7.515   6.512  66.479  1.00  0.00    -0.086 C  
ENDROOT
BRANCH   4  19
HETATM   19  C   UNL     1      -9.687   8.522  73.522  1.00  0.00     0.696 C  
HETATM   20  C   UNL     1      -9.748   9.331  74.411  1.00  0.00     7.301 C  
ENDBRANCH   4  19
BRANCH   4  21
HETATM   21  O   UNL     1      -8.548   6.612  72.932  1.00  0.00    -0.119 OA 
BRANCH  21  22
HETATM   22  C   UNL     1      -8.761   5.435  73.565  1.00  0.00    -0.114 C  
HETATM   23  O   UNL     1      -9.837   4.858  73.642  1.00  0.00    -0.141 OA 
HETATM   24  C   UNL     1      -7.513   5.026  74.311  1.00  0.00    -0.086 C  
ENDBRANCH  21  22
ENDBRANCH   4  21
BRANCH  10  25
HETATM   25  O   UNL     1      -7.932   7.528  64.359  1.00  0.00    -0.135 OA 
BRANCH  25  26
HETATM   26  C   UNL     1      -7.231   6.539  63.728  1.00  0.00    -0.064 C  
HETATM   27  C   UNL     1      -6.327   7.122  62.687  1.00  0.00    -0.053 C  
HETATM   28  O   UNL     1      -7.261   5.348  64.010  1.00  0.00    -0.048 OA 
ENDBRANCH  25  26
ENDBRANCH  10  25
TORSDOF 5
ENDMDL
MODEL      101
REMARK 921   NORMALIZED FREE ENERGY PREDICTED BY IDOCK:   11.50 KCAL/MOL
REMARK 922        TOTAL FREE ENERGY PREDICTED BY IDOCK:   15.02 KCAL/MOL
REMARK 923 INTER-LIGAND FREE ENERGY PREDICTED BY IDOCK:    0.76 KCAL/MOL
REMARK 924 INTRA-LIGAND FREE ENERGY PREDICTED BY IDOCK:   14.26 KCAL/MOL
REMARK 927      BINDING AFFINITY PREDICTED BY RF-SCORE:    0.00 PKD
ROOT
HETATM    1  C   UNL     1      -8.336  12.589  68.407  1.00  0.00    -0.132 C  
HETATM    2  C   UNL     1      -8.044  11.983  67.161  1.00  0.00    -0.177 C  
HETATM    3  C   UNL     1      -9.379  11.684  67.736  1.00  0.00    -0.178 C  
HETATM    4  C   UNL     1      -9.944  12.823  69.366  1.00  0.00     0.826 C  
HETATM    5  C   UNL     1      -8.138  11.323  69.736  1.00  0.00     0.809 C  
HETATM    6  C   UNL     1      -7.643   7.131  70.724  1.00  0.00    -0.089 C  
HETATM    7  C   UNL     1     -10.220  12.970  68.030  1.00  0.00    -0.233 C  
HETATM    8  C   UNL     1     -10.668  14.062  67.103  1.00  0.00    -0.283 C  
HETATM    9  C   UNL     1     -11.459  11.575  68.260  1.00  0.00    -0.368 C  
HETATM   10  C   UNL     1      -8.793   6.150  70.851  1.00  0.00    -0.136 C  
HETATM   11  C   UNL     1      -6.748  10.634  69.688  1.00  0.00    -0.116 C  
HETATM   12  C   UNL     1     -10.928  10.500  69.468  1.00  0.00    -0.312 C  
HETATM   13  C   UNL     1      -6.564   9.413  70.626  1.00  0.00    -0.087 C  
HETATM   14  C   UNL     1      -7.757   8.478  70.777  1.00  0.00    -0.087 C  
HETATM   15  C   UNL     1      -9.308  10.149  69.771  1.00  0.00    -0.183 C  
HETATM   16  C   UNL     1      -9.110   9.157  70.950  1.00  0.00    -0.316 C  
HETATM   17  C   UNL     1     -10.284   8.165  70.874  1.00  0.00    -0.216 C  
HETATM   18  C   UNL     1     -10.059   6.788  71.420  1.00  0.00    -0.198 C  
ENDROOT
BRANCH   4  19
HETATM   19  C   UNL     1      -9.323  14.212  69.779  1.00  0.00     1.026 C  
HETATM   20  C   UNL     1      -8.849  15.293  70.016  1.00  0.00     0.334 C  
ENDBRANCH   4  19
BRANCH   4  21
HETATM   21  O   UNL     1     -11.292  13.032  69.935  1.00  0.00    -0.126 OA 
BRANCH  21  22
HETATM   22  C   UNL     1     -12.399  12.828  69.183  1.00  0.00     0.154 C  
HETATM   23  O   UNL     1     -13.296  12.039  69.445  1.00  0.00     1.636 OA 
HETATM   24  C   UNL     1     -12.280  13.591  67.885  1.00  0.00    -0.168 C  
ENDBRANCH  21  22
ENDBRANCH   4  21
BRANCH  10  25
HETATM   25  O   UNL     1      -8.420   5.082  71.740  1.00  0.00    -0.120 OA 
BRANCH  25  26
HETATM   26  C   UNL     1      -9.474   4.461  72.348  1.00  0.00    -0.139 C  
HETATM   27  C   UNL     1      -9.841   3.211  71.612  1.00  0.00    -0.216 C  
HETATM   28  O   UNL     1     -10.008   4.814  73.392  1.00  0.00    -0.147 OA 
ENDBRANCH  25  26
ENDBRANCH  10  25
TORSDOF 5
ENDMDL
MODEL      102
REMARK 921   NORMALIZED FREE ENERGY PREDICTED BY IDOCK:   12.10 KCAL/MOL
REMARK 922        TOTAL FREE ENERGY PREDICTED BY IDOCK:   15.79 KCAL/MOL
REMARK 923 INTER-LIGAND FREE ENERGY PREDICTED BY IDOCK:   13.84 KCAL/MOL
REMARK 924 INTRA-LIGAND FREE ENERGY PREDICTED BY IDOCK:    1.95 KCAL/MOL
REMARK 927      BINDING AFFINITY PREDICTED BY RF-SCORE:    0.00 PKD
ROOT
HETATM    1  C   UNL     1      -7.268   8.216  65.743  1.00  0.00    -0.068 C  
HETATM    2  C   UNL     1      -6.285   7.290  66.170  1.00  0.00    -0.041 C  
HETATM    3  C   UNL     1      -7.482   7.421  67.038  1.00  0.00    -0.098 C  
HETATM    4  C   UNL     1      -9.061   8.500  66.256  1.00  0.00    -0.185 C  
HETATM    5  C   UNL     1      -7.103   9.753  66.749  1.00  0.00    -0.089 C  
HETATM    6  C   UNL     1      -5.343  11.658  70.223  1.00  0.00    -0.111 C  
HETATM    7  C   UNL     1      -8.822   7.149  66.279  1.00  0.00    -0.166 C  
HETATM    8  C   UNL     1      -9.278   5.928  65.534  1.00  0.00     0.056 C  
HETATM    9  C   UNL     1      -9.347   7.212  68.083  1.00  0.00    -0.129 C  
HETATM   10  C   UNL     1      -5.927  11.575  71.621  1.00  0.00     1.188 C  
HETATM   11  C   UNL     1      -5.659  10.321  66.723  1.00  0.00    -0.047 C  
HETATM   12  C   UNL     1      -8.941   8.715  68.769  1.00  0.00    -0.138 C  
HETATM   13  C   UNL     1      -5.370  11.487  67.703  1.00  0.00    -0.054 C  
HETATM   14  C   UNL     1      -6.018  11.402  69.079  1.00  0.00    -0.051 C  
HETATM   15  C   UNL     1      -7.587   9.617  68.329  1.00  0.00    -0.078 C  
HETATM   16  C   UNL     1      -7.477  10.964  69.096  1.00  0.00    -0.130 C  
HETATM   17  C   UNL     1      -7.996  10.689  70.518  1.00  0.00     1.474 C  
HETATM   18  C   UNL     1      -7.455  11.538  71.626  1.00  0.00     7.671 C  
ENDROOT
BRANCH   4  19
HETATM   19  C   UNL     1      -9.294   8.818  64.729  1.00  0.00     0.377 C  
HETATM   20  C   UNL     1      -9.435   9.133  63.576  1.00  0.00     0.914 C  
ENDBRANCH   4  19
BRANCH   4  21
HETATM   21  O   UNL     1     -10.477   8.520  66.679  1.00  0.00    -0.289 OA 
BRANCH  21  22
HETATM   22  C   UNL     1     -11.248   9.611  66.460  1.00  0.00     0.892 C  
HETATM   23  O   UNL     1     -11.881   9.835  65.437  1.00  0.00     3.919 OA 
HETATM   24  C   UNL     1     -11.074  10.593  67.594  1.00  0.00    -0.385 C  
ENDBRANCH  21  22
ENDBRANCH   4  21
BRANCH  10  25
HETATM   25  O   UNL     1      -5.528  12.730  72.380  1.00  0.00    -0.355 OA 
BRANCH  25  26
HETATM   26  C   UNL     1      -5.467  13.887  71.655  1.00  0.00    -0.229 C  
HETATM   27  C   UNL     1      -5.389  15.072  72.567  1.00  0.00     0.093 C  
HETATM   28  O   UNL     1      -5.402  13.966  70.435  1.00  0.00    -0.099 OA 
ENDBRANCH  25  26
ENDBRANCH  10  25
TORSDOF 5
ENDMDL
MODEL      103
REMARK 921   NORMALIZED FREE ENERGY PREDICTED BY IDOCK:   13.13 KCAL/MOL
REMARK 922        TOTAL FREE ENERGY PREDICTED BY IDOCK:   17.13 KCAL/MOL
REMARK 923 INTER-LIGAND FREE ENERGY PREDICTED BY IDOCK:   14.55 KCAL/MOL
REMARK 924 INTRA-LIGAND FREE ENERGY PREDICTED BY IDOCK:    2.57 KCAL/MOL
REMARK 927      BINDING AFFINITY PREDICTED BY RF-SCORE:    0.00 PKD
ROOT
HETATM    1  C   UNL     1      -7.385  16.846  70.577  1.00  0.00     2.607 C  
HETATM    2  C   UNL     1      -6.087  17.202  70.138  1.00  0.00    -0.020 C  
HETATM    3  C   UNL     1      -7.001  16.656  69.104  1.00  0.00    -0.227 C  
HETATM    4  C   UNL     1      -8.983  16.459  69.653  1.00  0.00     0.330 C  
HETATM    5  C   UNL     1      -7.460  15.012  70.763  1.00  0.00     1.215 C  
HETATM    6  C   UNL     1      -5.562  11.194  69.978  1.00  0.00    -0.087 C  
HETATM    7  C   UNL     1      -8.335  17.463  68.979  1.00  0.00    -0.066 C  
HETATM    8  C   UNL     1      -8.559  18.913  68.664  1.00  0.00    -0.376 C  
HETATM    9  C   UNL     1      -8.375  16.319  67.488  1.00  0.00    -0.174 C  
HETATM   10  C   UNL     1      -5.714  10.424  68.680  1.00  0.00    -0.041 C  
HETATM   11  C   UNL     1      -6.324  14.466  71.668  1.00  0.00     0.518 C  
HETATM   12  C   UNL     1      -8.301  14.693  67.984  1.00  0.00    -0.146 C  
HETATM   13  C   UNL     1      -6.175  12.923  71.715  1.00  0.00     1.937 C  
HETATM   14  C   UNL     1      -6.391  12.174  70.406  1.00  0.00     0.260 C  
HETATM   15  C   UNL     1      -7.457  14.159  69.342  1.00  0.00     0.080 C  
HETATM   16  C   UNL     1      -7.584  12.628  69.574  1.00  0.00     0.717 C  
HETATM   17  C   UNL     1      -7.609  11.985  68.176  1.00  0.00    -0.120 C  
HETATM   18  C   UNL     1      -7.098  10.582  68.053  1.00  0.00    -0.086 C  
ENDROOT
BRANCH   4  19
HETATM   19  C   UNL     1      -9.685  17.201  70.854  1.00  0.00     3.806 C  
HETATM   20  C   UNL     1     -10.149  17.804  71.787  1.00  0.00     5.575 C  
ENDBRANCH   4  19
BRANCH   4  21
HETATM   21  O   UNL     1     -10.177  16.299  68.796  1.00  0.00    -0.225 OA 
BRANCH  21  22
HETATM   22  C   UNL     1     -10.809  15.106  68.708  1.00  0.00    -0.247 C  
HETATM   23  O   UNL     1     -10.775  14.223  69.554  1.00  0.00    -0.183 OA 
HETATM   24  C   UNL     1     -11.421  14.955  67.335  1.00  0.00    -0.354 C  
ENDBRANCH  21  22
ENDBRANCH   4  21
BRANCH  10  25
HETATM   25  O   UNL     1      -5.518   9.020  68.926  1.00  0.00    -0.036 OA 
BRANCH  25  26
HETATM   26  C   UNL     1      -5.690   8.226  67.827  1.00  0.00    -0.039 C  
HETATM   27  C   UNL     1      -5.423   9.002  66.575  1.00  0.00    -0.038 C  
HETATM   28  O   UNL     1      -5.947   7.029  67.841  1.00  0.00    -0.026 OA 
ENDBRANCH  25  26
ENDBRANCH  10  25
TORSDOF 5
ENDMDL
MODEL      104
REMARK 921   NORMALIZED FREE ENERGY PREDICTED BY IDOCK:   14.32 KCAL/MOL
REMARK 922        TOTAL FREE ENERGY PREDICTED BY IDOCK:   18.67 KCAL/MOL
REMARK 923 INTER-LIGAND FREE ENERGY PREDICTED BY IDOCK:   14.05 KCAL/MOL
REMARK 924 INTRA-LIGAND FREE ENERGY PREDICTED BY IDOCK:    4.63 KCAL/MOL
REMARK 927      BINDING AFFINITY PREDICTED BY RF-SCORE:    0.00 PKD
ROOT
HETATM    1  C   UNL     1      -9.405  17.014  69.113  1.00  0.00    -0.088 C  
HETATM    2  C   UNL     1      -9.282  17.073  70.523  1.00  0.00     3.315 C  
HETATM    3  C   UNL     1      -8.046  16.740  69.771  1.00  0.00     0.889 C  
HETATM    4  C   UNL     1      -8.131  16.987  67.722  1.00  0.00    -0.190 C  
HETATM    5  C   UNL     1      -9.482  15.242  68.604  1.00  0.00    -0.204 C  
HETATM    6  C   UNL     1      -8.957  11.097  69.762  1.00  0.00     0.942 C  
HETATM    7  C   UNL     1      -7.667  17.821  68.706  1.00  0.00    -0.252 C  
HETATM    8  C   UNL     1      -7.379  19.284  68.878  1.00  0.00    -0.392 C  
HETATM    9  C   UNL     1      -6.151  16.710  68.760  1.00  0.00    -0.144 C  
HETATM   10  C   UNL     1      -7.622  10.377  69.746  1.00  0.00    -0.133 C  
HETATM   11  C   UNL     1     -10.589  14.461  69.360  1.00  0.00    -0.140 C  
HETATM   12  C   UNL     1      -6.573  15.109  68.368  1.00  0.00    -0.101 C  
HETATM   13  C   UNL     1     -10.594  12.924  69.158  1.00  0.00     0.009 C  
HETATM   14  C   UNL     1      -9.236  12.237  69.089  1.00  0.00     0.593 C  
HETATM   15  C   UNL     1      -8.057  14.406  68.745  1.00  0.00    -0.127 C  
HETATM   16  C   UNL     1      -8.183  12.941  68.242  1.00  0.00    -0.153 C  
HETATM   17  C   UNL     1      -6.785  12.316  68.397  1.00  0.00    -0.064 C  
HETATM   18  C   UNL     1      -6.712  10.835  68.608  1.00  0.00    -0.058 C  
ENDROOT
BRANCH   4  19
HETATM   19  C   UNL     1      -9.181  17.869  66.942  1.00  0.00    -0.267 C  
HETATM   20  C   UNL     1      -9.990  18.481  66.294  1.00  0.00    -0.384 C  
ENDBRANCH   4  19
BRANCH   4  21
HETATM   21  O   UNL     1      -7.024  17.093  66.748  1.00  0.00    -0.178 OA 
BRANCH  21  22
HETATM   22  C   UNL     1      -6.555  15.993  66.114  1.00  0.00     1.939 C  
HETATM   23  O   UNL     1      -5.404  15.582  66.169  1.00  0.00     1.992 OA 
HETATM   24  C   UNL     1      -7.618  15.445  65.191  1.00  0.00     7.578 C  
ENDBRANCH  21  22
ENDBRANCH   4  21
BRANCH  10  25
HETATM   25  O   UNL     1      -7.838   8.965  69.574  1.00  0.00    -0.088 OA 
BRANCH  25  26
HETATM   26  C   UNL     1      -7.187   8.421  68.502  1.00  0.00    -0.081 C  
HETATM   27  C   UNL     1      -8.010   7.332  67.888  1.00  0.00    -0.119 C  
HETATM   28  O   UNL     1      -6.120   8.806  68.042  1.00  0.00    -0.049 OA 
ENDBRANCH  25  26
ENDBRANCH  10  25
TORSDOF 5
ENDMDL
MODEL      105
REMARK 921   NORMALIZED FREE ENERGY PREDICTED BY IDOCK:   15.08 KCAL/MOL
REMARK 922        TOTAL FREE ENERGY PREDICTED BY IDOCK:   19.64 KCAL/MOL
REMARK 923 INTER-LIGAND FREE ENERGY PREDICTED BY IDOCK:   17.76 KCAL/MOL
REMARK 924 INTRA-LIGAND FREE ENERGY PREDICTED BY IDOCK:    1.88 KCAL/MOL
REMARK 927      BINDING AFFINITY PREDICTED BY RF-SCORE:    0.00 PKD
ROOT
HETATM    1  C   UNL     1     -11.254   5.776  69.241  1.00  0.00    -0.083 C  
HETATM    2  C   UNL     1     -12.278   5.756  68.263  1.00  0.00     5.027 C  
HETATM    3  C   UNL     1     -10.949   5.255  67.830  1.00  0.00     0.408 C  
HETATM    4  C   UNL     1      -9.555   4.960  69.326  1.00  0.00    -0.171 C  
HETATM    5  C   UNL     1     -10.156   7.222  68.912  1.00  0.00    -0.180 C  
HETATM    6  C   UNL     1      -8.999  10.360  66.153  1.00  0.00    -0.175 C  
HETATM    7  C   UNL     1     -10.418   4.083  68.719  1.00  0.00     1.134 C  
HETATM    8  C   UNL     1     -11.025   2.742  69.010  1.00  0.00     5.773 C  
HETATM    9  C   UNL     1      -9.224   4.107  67.267  1.00  0.00    -0.178 C  
HETATM   10  C   UNL     1      -8.010  10.167  65.019  1.00  0.00    -0.146 C  
HETATM   11  C   UNL     1     -10.949   8.552  68.812  1.00  0.00     0.120 C  
HETATM   12  C   UNL     1      -8.459   5.623  67.151  1.00  0.00    -0.110 C  
HETATM   13  C   UNL     1     -10.145   9.787  68.330  1.00  0.00    -0.189 C  
HETATM   14  C   UNL     1      -9.118   9.550  67.230  1.00  0.00    -0.146 C  
HETATM   15  C   UNL     1      -9.190   7.083  67.571  1.00  0.00    -0.128 C  
HETATM   16  C   UNL     1      -8.251   8.307  67.393  1.00  0.00    -0.121 C  
HETATM   17  C   UNL     1      -7.399   8.013  66.146  1.00  0.00    -0.074 C  
HETATM   18  C   UNL     1      -6.890   9.186  65.366  1.00  0.00    -0.073 C  
ENDROOT
BRANCH   4  19
HETATM   19  C   UNL     1      -9.872   4.799  70.863  1.00  0.00    -0.279 C  
HETATM   20  C   UNL     1     -10.036   4.654  72.046  1.00  0.00    -0.251 C  
ENDBRANCH   4  19
BRANCH   4  21
HETATM   21  O   UNL     1      -8.311   4.163  69.298  1.00  0.00    -0.068 OA 
BRANCH  21  22
HETATM   22  C   UNL     1      -7.148   4.681  69.757  1.00  0.00    -0.053 C  
HETATM   23  O   UNL     1      -6.467   5.516  69.177  1.00  0.00    -0.035 OA 
HETATM   24  C   UNL     1      -6.726   3.950  71.010  1.00  0.00    -0.031 C  
ENDBRANCH  21  22
ENDBRANCH   4  21
BRANCH  10  25
HETATM   25  O   UNL     1      -7.388  11.426  64.703  1.00  0.00     1.013 OA 
BRANCH  25  26
HETATM   26  C   UNL     1      -6.117  11.563  65.185  1.00  0.00     1.580 C  
HETATM   27  C   UNL     1      -5.939  12.909  65.816  1.00  0.00     5.321 C  
HETATM   28  O   UNL     1      -5.253  10.695  65.185  1.00  0.00    -0.119 OA 
ENDBRANCH  25  26
ENDBRANCH  10  25
TORSDOF 5
ENDMDL
MODEL      106
REMARK 921   NORMALIZED FREE ENERGY PREDICTED BY IDOCK:   17.16 KCAL/MOL
REMARK 922        TOTAL FREE ENERGY PREDICTED BY IDOCK:   22.33 KCAL/MOL
REMARK 923 INTER-LIGAND FREE ENERGY PREDICTED BY IDOCK:   17.68 KCAL/MOL
REMARK 924 INTRA-LIGAND FREE ENERGY PREDICTED BY IDOCK:    4.65 KCAL/MOL
REMARK 927      BINDING AFFINITY PREDICTED BY RF-SCORE:    0.00 PKD
ROOT
HETATM    1  C   UNL     1      -6.203  17.876  70.620  1.00  0.00     0.713 C  
HETATM    2  C   UNL     1      -5.148  17.333  69.846  1.00  0.00    -0.184 C  
HETATM    3  C   UNL     1      -6.299  17.885  69.088  1.00  0.00    -0.236 C  
HETATM    4  C   UNL     1      -7.670  18.978  70.182  1.00  0.00     1.152 C  
HETATM    5  C   UNL     1      -7.584  16.654  70.670  1.00  0.00     3.215 C  
HETATM    6  C   UNL     1      -9.275  13.005  69.050  1.00  0.00     0.467 C  
HETATM    7  C   UNL     1      -6.596  19.382  69.430  1.00  0.00    -0.364 C  
HETATM    8  C   UNL     1      -5.713  20.590  69.315  1.00  0.00    -0.386 C  
HETATM    9  C   UNL     1      -7.679  19.053  67.930  1.00  0.00    -0.295 C  
HETATM   10  C   UNL     1     -10.128  12.951  67.797  1.00  0.00    -0.229 C  
HETATM   11  C   UNL     1      -7.114  15.255  71.150  1.00  0.00     1.608 C  
HETATM   12  C   UNL     1      -8.765  17.782  68.247  1.00  0.00    -0.277 C  
HETATM   13  C   UNL     1      -8.153  14.111  71.025  1.00  0.00     4.028 C  
HETATM   14  C   UNL     1      -9.034  14.117  69.782  1.00  0.00     1.089 C  
HETATM   15  C   UNL     1      -8.414  16.471  69.247  1.00  0.00    -0.056 C  
HETATM   16  C   UNL     1      -9.599  15.474  69.381  1.00  0.00    -0.279 C  
HETATM   17  C   UNL     1     -10.289  15.444  68.005  1.00  0.00    -0.249 C  
HETATM   18  C   UNL     1     -11.009  14.188  67.623  1.00  0.00    -0.278 C  
ENDROOT
BRANCH   4  19
HETATM   19  C   UNL     1      -7.412  19.633  71.593  1.00  0.00     2.277 C  
HETATM   20  C   UNL     1      -7.148  20.085  72.677  1.00  0.00     2.309 C  
ENDBRANCH   4  19
BRANCH   4  21
HETATM   21  O   UNL     1      -8.693  19.933  69.707  1.00  0.00     0.328 OA 
BRANCH  21  22
HETATM   22  C   UNL     1      -9.822  20.147  70.421  1.00  0.00     1.058 C  
HETATM   23  O   UNL     1      -9.903  20.119  71.642  1.00  0.00     1.702 OA 
HETATM   24  C   UNL     1     -11.003  20.254  69.486  1.00  0.00     1.268 C  
ENDBRANCH  21  22
ENDBRANCH   4  21
BRANCH  10  25
HETATM   25  O   UNL     1     -11.004  11.812  67.859  1.00  0.00    -0.198 OA 
BRANCH  25  26
HETATM   26  C   UNL     1     -12.037  11.942  68.745  1.00  0.00    -0.124 C  
HETATM   27  C   UNL     1     -12.070  13.328  69.309  1.00  0.00    -0.291 C  
HETATM   28  O   UNL     1     -12.876  11.087  68.997  1.00  0.00    -0.086 OA 
ENDBRANCH  25  26
ENDBRANCH  10  25
TORSDOF 5
ENDMDL
MODEL      107
REMARK 921   NORMALIZED FREE ENERGY PREDICTED BY IDOCK:   17.27 KCAL/MOL
REMARK 922        TOTAL FREE ENERGY PREDICTED BY IDOCK:   22.48 KCAL/MOL
REMARK 923 INTER-LIGAND FREE ENERGY PREDICTED BY IDOCK:    3.71 KCAL/MOL
REMARK 924 INTRA-LIGAND FREE ENERGY PREDICTED BY IDOCK:   18.77 KCAL/MOL
REMARK 927      BINDING AFFINITY PREDICTED BY RF-SCORE:    0.00 PKD
ROOT
HETATM    1  C   UNL     1      -9.138   7.633  63.819  1.00  0.00     1.544 C  
HETATM    2  C   UNL     1      -8.856   8.324  62.615  1.00  0.00     0.277 C  
HETATM    3  C   UNL     1      -7.841   8.445  63.692  1.00  0.00    -0.152 C  
HETATM    4  C   UNL     1      -8.072   7.176  65.306  1.00  0.00    -0.134 C  
HETATM    5  C   UNL     1      -9.742   8.850  65.067  1.00  0.00     0.549 C  
HETATM    6  C   UNL     1     -10.234  13.021  66.144  1.00  0.00    -0.288 C  
HETATM    7  C   UNL     1      -7.299   7.061  64.179  1.00  0.00    -0.090 C  
HETATM    8  C   UNL     1      -6.612   5.970  63.410  1.00  0.00    -0.033 C  
HETATM    9  C   UNL     1      -6.142   8.296  64.996  1.00  0.00    -0.045 C  
HETATM   10  C   UNL     1      -9.152  13.859  66.796  1.00  0.00    -0.223 C  
HETATM   11  C   UNL     1     -10.933   9.692  64.539  1.00  0.00     4.013 C  
HETATM   12  C   UNL     1      -7.018   9.366  65.988  1.00  0.00    -0.090 C  
HETATM   13  C   UNL     1     -11.373  10.880  65.432  1.00  0.00     0.364 C  
HETATM   14  C   UNL     1     -10.265  11.668  66.120  1.00  0.00    -0.263 C  
HETATM   15  C   UNL     1      -8.589   9.882  65.661  1.00  0.00    -0.157 C  
HETATM   16  C   UNL     1      -9.156  10.835  66.749  1.00  0.00    -0.167 C  
HETATM   17  C   UNL     1      -7.970  11.692  67.227  1.00  0.00    -0.157 C  
HETATM   18  C   UNL     1      -8.276  13.057  67.758  1.00  0.00    -0.168 C  
ENDROOT
BRANCH   4  19
HETATM   19  C   UNL     1      -8.921   5.847  65.321  1.00  0.00     0.031 C  
HETATM   20  C   UNL     1      -9.498   4.791  65.334  1.00  0.00    -0.159 C  
ENDBRANCH   4  19
BRANCH   4  21
HETATM   21  O   UNL     1      -7.086   6.790  66.338  1.00  0.00    -0.067 OA 
BRANCH  21  22
HETATM   22  C   UNL     1      -5.832   7.299  66.319  1.00  0.00    -0.036 C  
HETATM   23  O   UNL     1      -5.193   7.642  67.305  1.00  0.00    -0.024 OA 
HETATM   24  C   UNL     1      -5.403   7.544  64.892  1.00  0.00    -0.029 C  
ENDBRANCH  21  22
ENDBRANCH   4  21
BRANCH  10  25
HETATM   25  O   UNL     1      -9.757  14.920  67.557  1.00  0.00    -0.211 OA 
BRANCH  25  26
HETATM   26  C   UNL     1     -11.079  15.128  67.281  1.00  0.00    -0.332 C  
HETATM   27  C   UNL     1     -11.233  15.911  66.015  1.00  0.00     0.090 C  
HETATM   28  O   UNL     1     -12.023  14.679  67.919  1.00  0.00    -0.337 OA 
ENDBRANCH  25  26
ENDBRANCH  10  25
TORSDOF 5
ENDMDL
MODEL      108
REMARK 921   NORMALIZED FREE ENERGY PREDICTED BY IDOCK:   18.03 KCAL/MOL
REMARK 922        TOTAL FREE ENERGY PREDICTED BY IDOCK:   23.46 KCAL/MOL
REMARK 923 INTER-LIGAND FREE ENERGY PREDICTED BY IDOCK:   13.35 KCAL/MOL
REMARK 924 INTRA-LIGAND FREE ENERGY PREDICTED BY IDOCK:   10.11 KCAL/MOL
REMARK 927      BINDING AFFINITY PREDICTED BY RF-SCORE:    0.00 PKD
ROOT
HETATM    1  C   UNL     1      -8.673  19.261  67.000  1.00  0.00    -0.319 C  
HETATM    2  C   UNL     1      -7.513  19.419  67.797  1.00  0.00    -0.296 C  
HETATM    3  C   UNL     1      -7.809  18.038  67.339  1.00  0.00    -0.223 C  
HETATM    4  C   UNL     1      -9.286  17.851  65.907  1.00  0.00     0.126 C  
HETATM    5  C   UNL     1     -10.018  18.564  68.053  1.00  0.00    -0.385 C  
HETATM    6  C   UNL     1     -11.102  16.707  71.817  1.00  0.00     0.677 C  
HETATM    7  C   UNL     1      -7.922  17.921  65.784  1.00  0.00     0.088 C  
HETATM    8  C   UNL     1      -6.919  18.250  64.717  1.00  0.00     1.670 C  
HETATM    9  C   UNL     1      -7.902  16.131  66.357  1.00  0.00    -0.197 C  
HETATM   10  C   UNL     1     -10.998  15.218  72.087  1.00  0.00     0.224 C  
HETATM   11  C   UNL     1     -10.255  19.403  69.336  1.00  0.00    -0.027 C  
HETATM   12  C   UNL     1      -9.196  15.833  67.421  1.00  0.00    -0.208 C  
HETATM   13  C   UNL     1     -11.215  18.785  70.384  1.00  0.00     4.119 C  
HETATM   14  C   UNL     1     -11.126  17.278  70.591  1.00  0.00     1.116 C  
HETATM   15  C   UNL     1      -9.822  16.977  68.489  1.00  0.00    -0.290 C  
HETATM   16  C   UNL     1     -11.020  16.442  69.321  1.00  0.00    -0.322 C  
HETATM   17  C   UNL     1     -10.713  14.962  69.610  1.00  0.00    -0.245 C  
HETATM   18  C   UNL     1     -11.298  14.367  70.854  1.00  0.00     0.014 C  
ENDROOT
BRANCH   4  19
HETATM   19  C   UNL     1      -9.811  19.003  64.967  1.00  0.00     2.283 C  
HETATM   20  C   UNL     1     -10.284  19.878  64.289  1.00  0.00     4.899 C  
ENDBRANCH   4  19
BRANCH   4  21
HETATM   21  O   UNL     1      -9.571  16.716  65.004  1.00  0.00     0.188 OA 
BRANCH  21  22
HETATM   22  C   UNL     1      -9.898  15.501  65.503  1.00  0.00    -0.313 C  
HETATM   23  O   UNL     1      -9.204  14.496  65.432  1.00  0.00     0.202 OA 
HETATM   24  C   UNL     1     -11.321  15.526  66.009  1.00  0.00    -0.018 C  
ENDBRANCH  21  22
ENDBRANCH   4  21
BRANCH  10  25
HETATM   25  O   UNL     1     -11.949  14.844  73.101  1.00  0.00    -0.290 OA 
BRANCH  25  26
HETATM   26  C   UNL     1     -13.198  15.369  72.923  1.00  0.00    -0.518 C  
HETATM   27  C   UNL     1     -13.129  16.861  72.828  1.00  0.00     1.821 C  
HETATM   28  O   UNL     1     -14.231  14.727  72.779  1.00  0.00    -0.422 OA 
ENDBRANCH  25  26
ENDBRANCH  10  25
TORSDOF 5
ENDMDL
MODEL      109
REMARK 921   NORMALIZED FREE ENERGY PREDICTED BY IDOCK:   29.36 KCAL/MOL
REMARK 922        TOTAL FREE ENERGY PREDICTED BY IDOCK:   38.10 KCAL/MOL
REMARK 923 INTER-LIGAND FREE ENERGY PREDICTED BY IDOCK:   35.13 KCAL/MOL
REMARK 924 INTRA-LIGAND FREE ENERGY PREDICTED BY IDOCK:    2.98 KCAL/MOL
REMARK 927      BINDING AFFINITY PREDICTED BY RF-SCORE:    0.00 PKD
ROOT
HETATM    1  C   UNL     1     -10.493  19.535  69.035  1.00  0.00     0.014 C  
HETATM    2  C   UNL     1     -11.887  19.777  69.105  1.00  0.00     5.069 C  
HETATM    3  C   UNL     1     -11.383  18.620  69.887  1.00  0.00     4.064 C  
HETATM    4  C   UNL     1      -9.330  18.467  70.067  1.00  0.00     1.537 C  
HETATM    5  C   UNL     1     -10.199  18.125  67.881  1.00  0.00    -0.391 C  
HETATM    6  C   UNL     1     -11.922  14.848  65.626  1.00  0.00    -0.068 C  
HETATM    7  C   UNL     1     -10.266  19.012  70.909  1.00  0.00     2.222 C  
HETATM    8  C   UNL     1     -10.300  19.991  72.046  1.00  0.00     3.777 C  
HETATM    9  C   UNL     1     -10.690  17.243  71.382  1.00  0.00     2.028 C  
HETATM   10  C   UNL     1     -12.202  13.476  66.207  1.00  0.00    -0.416 C  
HETATM   11  C   UNL     1     -10.863  18.350  66.497  1.00  0.00    -0.066 C  
HETATM   12  C   UNL     1     -10.435  16.197  70.063  1.00  0.00    -0.215 C  
HETATM   13  C   UNL     1     -10.852  17.135  65.534  1.00  0.00    -0.058 C  
HETATM   14  C   UNL     1     -11.079  15.764  66.157  1.00  0.00    -0.078 C  
HETATM   15  C   UNL     1     -10.661  16.639  68.452  1.00  0.00    -0.343 C  
HETATM   16  C   UNL     1     -10.327  15.496  67.455  1.00  0.00    -0.266 C  
HETATM   17  C   UNL     1     -10.772  14.190  68.138  1.00  0.00    -0.251 C  
HETATM   18  C   UNL     1     -11.171  13.051  67.252  1.00  0.00    -0.325 C  
ENDROOT
BRANCH   4  19
HETATM   19  C   UNL     1      -8.295  19.636  69.843  1.00  0.00     0.773 C  
HETATM   20  C   UNL     1      -7.533  20.534  69.596  1.00  0.00     0.831 C  
ENDBRANCH   4  19
BRANCH   4  21
HETATM   21  O   UNL     1      -8.535  17.683  71.035  1.00  0.00     5.872 OA 
BRANCH  21  22
HETATM   22  C   UNL     1      -7.268  18.046  71.342  1.00  0.00     5.529 C  
HETATM   23  O   UNL     1      -6.929  18.646  72.353  1.00  0.00     3.642 OA 
HETATM   24  C   UNL     1      -6.357  17.754  70.173  1.00  0.00     0.211 C  
ENDBRANCH  21  22
ENDBRANCH   4  21
BRANCH  10  25
HETATM   25  O   UNL     1     -12.172  12.492  65.158  1.00  0.00    -0.447 OA 
BRANCH  25  26
HETATM   26  C   UNL     1     -12.621  12.944  63.949  1.00  0.00    -0.247 C  
HETATM   27  C   UNL     1     -13.582  14.076  64.138  1.00  0.00     2.886 C  
HETATM   28  O   UNL     1     -12.244  12.551  62.852  1.00  0.00    -0.154 OA 
ENDBRANCH  25  26
ENDBRANCH  10  25
TORSDOF 5
ENDMDL
MODEL      110
REMARK 921   NORMALIZED FREE ENERGY PREDICTED BY IDOCK:   31.96 KCAL/MOL
REMARK 922        TOTAL FREE ENERGY PREDICTED BY IDOCK:   41.46 KCAL/MOL
REMARK 923 INTER-LIGAND FREE ENERGY PREDICTED BY IDOCK:   37.58 KCAL/MOL
REMARK 924 INTRA-LIGAND FREE ENERGY PREDICTED BY IDOCK:    3.88 KCAL/MOL
REMARK 927      BINDING AFFINITY PREDICTED BY RF-SCORE:    0.00 PKD
ROOT
HETATM    1  C   UNL     1      -8.961  17.206  68.260  1.00  0.00    -0.248 C  
HETATM    2  C   UNL     1      -7.584  17.052  67.966  1.00  0.00    -0.183 C  
HETATM    3  C   UNL     1      -8.519  16.207  67.182  1.00  0.00    -0.218 C  
HETATM    4  C   UNL     1     -10.527  16.666  67.356  1.00  0.00    -0.314 C  
HETATM    5  C   UNL     1      -9.499  15.788  69.311  1.00  0.00    -0.270 C  
HETATM    6  C   UNL     1      -8.541  11.873  70.909  1.00  0.00     8.366 C  
HETATM    7  C   UNL     1      -9.600  17.038  66.416  1.00  0.00    -0.301 C  
HETATM    8  C   UNL     1      -9.435  18.119  65.387  1.00  0.00     1.244 C  
HETATM    9  C   UNL     1      -9.801  15.307  65.713  1.00  0.00    -0.395 C  
HETATM   10  C   UNL     1      -8.773  10.574  70.162  1.00  0.00     0.706 C  
HETATM   11  C   UNL     1      -8.608  15.618  70.570  1.00  0.00     1.663 C  
HETATM   12  C   UNL     1     -10.168  14.200  66.952  1.00  0.00    -0.267 C  
HETATM   13  C   UNL     1      -8.847  14.332  71.403  1.00  0.00     5.847 C  
HETATM   14  C   UNL     1      -9.135  13.055  70.624  1.00  0.00     7.286 C  
HETATM   15  C   UNL     1      -9.593  14.328  68.531  1.00  0.00    -0.220 C  
HETATM   16  C   UNL     1     -10.110  13.196  69.461  1.00  0.00     0.853 C  
HETATM   17  C   UNL     1     -10.181  11.928  68.591  1.00  0.00    -0.202 C  
HETATM   18  C   UNL     1     -10.022  10.609  69.282  1.00  0.00    -0.215 C  
ENDROOT
BRANCH   4  19
HETATM   19  C   UNL     1     -11.118  18.035  67.868  1.00  0.00     0.098 C  
HETATM   20  C   UNL     1     -11.644  19.052  68.241  1.00  0.00     1.844 C  
ENDBRANCH   4  19
BRANCH   4  21
HETATM   21  O   UNL     1     -11.651  16.283  66.477  1.00  0.00     0.472 OA 
BRANCH  21  22
HETATM   22  C   UNL     1     -12.173  17.169  65.597  1.00  0.00     4.192 C  
HETATM   23  O   UNL     1     -11.785  18.318  65.436  1.00  0.00     1.473 OA 
HETATM   24  C   UNL     1     -13.416  16.587  64.966  1.00  0.00     5.977 C  
ENDBRANCH  21  22
ENDBRANCH   4  21
BRANCH  10  25
HETATM   25  O   UNL     1      -8.948   9.501  71.104  1.00  0.00    -0.249 OA 
BRANCH  25  26
HETATM   26  C   UNL     1      -7.785   8.898  71.493  1.00  0.00    -0.053 C  
HETATM   27  C   UNL     1      -7.528   9.148  72.946  1.00  0.00     0.743 C  
HETATM   28  O   UNL     1      -7.079   8.183  70.793  1.00  0.00    -0.046 OA 
ENDBRANCH  25  26
ENDBRANCH  10  25
TORSDOF 5
ENDMDL
MODEL      111
REMARK 921   NORMALIZED FREE ENERGY PREDICTED BY IDOCK:   33.31 KCAL/MOL
REMARK 922        TOTAL FREE ENERGY PREDICTED BY IDOCK:   43.20 KCAL/MOL
REMARK 923 INTER-LIGAND FREE ENERGY PREDICTED BY IDOCK:   40.59 KCAL/MOL
REMARK 924 INTRA-LIGAND FREE ENERGY PREDICTED BY IDOCK:    2.61 KCAL/MOL
REMARK 927      BINDING AFFINITY PREDICTED BY RF-SCORE:    0.00 PKD
ROOT
HETATM    1  C   UNL     1      -6.277  16.793  70.776  1.00  0.00     0.933 C  
HETATM    2  C   UNL     1      -5.246  17.072  69.846  1.00  0.00    -0.181 C  
HETATM    3  C   UNL     1      -6.635  17.299  69.372  1.00  0.00    -0.218 C  
HETATM    4  C   UNL     1      -8.113  17.228  70.814  1.00  0.00     5.234 C  
HETATM    5  C   UNL     1      -7.030  15.164  70.347  1.00  0.00     0.235 C  
HETATM    6  C   UNL     1      -7.393  11.977  67.430  1.00  0.00    -0.150 C  
HETATM    7  C   UNL     1      -7.435  18.292  70.277  1.00  0.00     1.910 C  
HETATM    8  C   UNL     1      -7.138  19.718  70.642  1.00  0.00     0.526 C  
HETATM    9  C   UNL     1      -8.543  18.081  68.774  1.00  0.00    -0.212 C  
HETATM   10  C   UNL     1      -8.359  12.006  66.262  1.00  0.00     0.145 C  
HETATM   11  C   UNL     1      -5.969  14.037  70.237  1.00  0.00    -0.158 C  
HETATM   12  C   UNL     1      -8.964  16.444  68.570  1.00  0.00    -0.224 C  
HETATM   13  C   UNL     1      -6.474  12.683  69.676  1.00  0.00    -0.050 C  
HETATM   14  C   UNL     1      -7.488  12.745  68.540  1.00  0.00    -0.120 C  
HETATM   15  C   UNL     1      -7.955  15.155  68.971  1.00  0.00    -0.188 C  
HETATM   16  C   UNL     1      -8.604  13.769  68.708  1.00  0.00     0.029 C  
HETATM   17  C   UNL     1      -9.454  13.931  67.435  1.00  0.00    -0.226 C  
HETATM   18  C   UNL     1      -9.673  12.712  66.592  1.00  0.00    -0.249 C  
ENDROOT
BRANCH   4  19
HETATM   19  C   UNL     1      -7.893  17.384  72.368  1.00  0.00    13.841 C  
HETATM   20  C   UNL     1      -7.646  17.511  73.539  1.00  0.00    13.220 C  
ENDBRANCH   4  19
BRANCH   4  21
HETATM   21  O   UNL     1      -9.496  17.745  70.758  1.00  0.00     3.400 OA 
BRANCH  21  22
HETATM   22  C   UNL     1     -10.546  16.899  70.637  1.00  0.00     0.805 C  
HETATM   23  O   UNL     1     -10.605  15.772  71.111  1.00  0.00     0.015 OA 
HETATM   24  C   UNL     1     -11.562  17.483  69.685  1.00  0.00     2.388 C  
ENDBRANCH  21  22
ENDBRANCH   4  21
BRANCH  10  25
HETATM   25  O   UNL     1      -8.687  10.660  65.874  1.00  0.00    -0.164 OA 
BRANCH  25  26
HETATM   26  C   UNL     1      -9.489  10.570  64.771  1.00  0.00    -0.259 C  
HETATM   27  C   UNL     1      -9.382  11.814  63.945  1.00  0.00     0.062 C  
HETATM   28  O   UNL     1     -10.148   9.593  64.441  1.00  0.00     0.250 OA 
ENDBRANCH  25  26
ENDBRANCH  10  25
TORSDOF 5
ENDMDL
MODEL      112
REMARK 921   NORMALIZED FREE ENERGY PREDICTED BY IDOCK:   38.07 KCAL/MOL
REMARK 922        TOTAL FREE ENERGY PREDICTED BY IDOCK:   49.36 KCAL/MOL
REMARK 923 INTER-LIGAND FREE ENERGY PREDICTED BY IDOCK:   45.10 KCAL/MOL
REMARK 924 INTRA-LIGAND FREE ENERGY PREDICTED BY IDOCK:    4.25 KCAL/MOL
REMARK 927      BINDING AFFINITY PREDICTED BY RF-SCORE:    0.00 PKD
ROOT
HETATM    1  C   UNL     1      -8.846  17.198  67.865  1.00  0.00    -0.226 C  
HETATM    2  C   UNL     1      -7.664  16.727  68.486  1.00  0.00    -0.223 C  
HETATM    3  C   UNL     1      -7.953  16.186  67.134  1.00  0.00    -0.232 C  
HETATM    4  C   UNL     1      -9.473  17.116  66.087  1.00  0.00    -0.201 C  
HETATM    5  C   UNL     1     -10.147  15.898  68.014  1.00  0.00    -0.230 C  
HETATM    6  C   UNL     1     -11.083  11.782  69.001  1.00  0.00    -0.301 C  
HETATM    7  C   UNL     1      -8.114  17.302  66.050  1.00  0.00    -0.187 C  
HETATM    8  C   UNL     1      -7.151  18.367  65.612  1.00  0.00    -0.200 C  
HETATM    9  C   UNL     1      -8.049  15.718  65.040  1.00  0.00     5.536 C  
HETATM   10  C   UNL     1     -10.948  10.627  68.027  1.00  0.00    -0.282 C  
HETATM   11  C   UNL     1     -10.355  15.440  69.481  1.00  0.00    -0.269 C  
HETATM   12  C   UNL     1      -9.305  14.667  65.502  1.00  0.00     0.207 C  
HETATM   13  C   UNL     1     -11.272  14.207  69.684  1.00  0.00    -0.241 C  
HETATM   14  C   UNL     1     -11.154  13.088  68.656  1.00  0.00    -0.305 C  
HETATM   15  C   UNL     1      -9.913  14.556  67.070  1.00  0.00    -0.255 C  
HETATM   16  C   UNL     1     -11.076  13.534  67.201  1.00  0.00    -0.308 C  
HETATM   17  C   UNL     1     -10.737  12.376  66.245  1.00  0.00    -0.287 C  
HETATM   18  C   UNL     1     -11.273  11.021  66.587  1.00  0.00    -0.124 C  
ENDROOT
BRANCH   4  19
HETATM   19  C   UNL     1     -10.045  18.557  66.377  1.00  0.00    -0.430 C  
HETATM   20  C   UNL     1     -10.528  19.649  66.532  1.00  0.00    -0.612 C  
ENDBRANCH   4  19
BRANCH   4  21
HETATM   21  O   UNL     1      -9.769  17.075  64.640  1.00  0.00     1.517 OA 
BRANCH  21  22
HETATM   22  C   UNL     1      -9.301  18.038  63.811  1.00  0.00    14.065 C  
HETATM   23  O   UNL     1      -8.630  19.002  64.154  1.00  0.00     5.830 OA 
HETATM   24  C   UNL     1      -9.874  17.840  62.428  1.00  0.00    22.064 C  
ENDBRANCH  21  22
ENDBRANCH   4  21
BRANCH  10  25
HETATM   25  O   UNL     1     -11.860   9.576  68.396  1.00  0.00     0.612 OA 
BRANCH  25  26
HETATM   26  C   UNL     1     -11.357   8.686  69.302  1.00  0.00     0.417 C  
HETATM   27  C   UNL     1     -12.107   8.776  70.595  1.00  0.00    -0.011 C  
HETATM   28  O   UNL     1     -10.473   7.866  69.087  1.00  0.00    -0.218 OA 
ENDBRANCH  25  26
ENDBRANCH  10  25
TORSDOF 5
ENDMDL
