MODEL        1
REMARK 921   NORMALIZED FREE ENERGY PREDICTED BY IDOCK:   -4.90 KCAL/MOL
REMARK 922        TOTAL FREE ENERGY PREDICTED BY IDOCK:   -5.99 KCAL/MOL
REMARK 923 INTER-LIGAND FREE ENERGY PREDICTED BY IDOCK:   -5.76 KCAL/MOL
REMARK 924 INTRA-LIGAND FREE ENERGY PREDICTED BY IDOCK:   -0.23 KCAL/MOL
REMARK 927      BINDING AFFINITY PREDICTED BY RF-SCORE:    0.00 PKD
ROOT
HETATM    1  C   UNL     1     -11.667  14.535  70.747  1.00  0.00    -0.325 C  
HETATM    2  C   UNL     1     -12.138  13.337  69.942  1.00  0.00    -0.308 C  
ENDROOT
BRANCH   2   3
HETATM    3  O   UNL     1     -11.148  13.055  68.946  1.00  0.00    -0.252 OA 
BRANCH   3   4
HETATM    4  C   UNL     1     -11.616  12.536  67.786  1.00  0.00    -0.343 C  
HETATM    5  O   UNL     1     -12.048  11.407  67.619  1.00  0.00    -0.630 OA 
BRANCH   4   6
HETATM    6  C   UNL     1     -11.627  13.589  66.734  1.00  0.00    -0.397 A  
HETATM    7  C   UNL     1     -10.747  14.673  66.868  1.00  0.00    -0.294 A  
HETATM    8  C   UNL     1     -10.688  15.654  65.877  1.00  0.00    -0.336 A  
HETATM    9  C   UNL     1     -11.502  15.543  64.753  1.00  0.00    -0.313 A  
HETATM   10  O   UNL     1     -11.482  16.480  63.764  1.00  0.00    -1.615 OA 
HETATM   11  C   UNL     1     -12.368  14.470  64.602  1.00  0.00    -0.419 A  
HETATM   12  C   UNL     1     -12.435  13.490  65.593  1.00  0.00    -0.528 A  
HETATM   13  H   UNL     1     -12.037  16.405  62.997  1.00  0.00     0.000 HD 
ENDBRANCH   4   6
ENDBRANCH   3   4
ENDBRANCH   2   3
TORSDOF 3
ENDMDL
MODEL        2
REMARK 921   NORMALIZED FREE ENERGY PREDICTED BY IDOCK:   -4.88 KCAL/MOL
REMARK 922        TOTAL FREE ENERGY PREDICTED BY IDOCK:   -5.97 KCAL/MOL
REMARK 923 INTER-LIGAND FREE ENERGY PREDICTED BY IDOCK:   -5.69 KCAL/MOL
REMARK 924 INTRA-LIGAND FREE ENERGY PREDICTED BY IDOCK:   -0.28 KCAL/MOL
REMARK 927      BINDING AFFINITY PREDICTED BY RF-SCORE:    0.00 PKD
ROOT
HETATM    1  C   UNL     1     -11.820  12.652  69.627  1.00  0.00    -0.379 C  
HETATM    2  C   UNL     1     -11.731  11.307  68.930  1.00  0.00    -0.341 C  
ENDROOT
BRANCH   2   3
HETATM    3  O   UNL     1     -12.061  11.500  67.549  1.00  0.00    -0.614 OA 
BRANCH   3   4
HETATM    4  C   UNL     1     -11.008  11.600  66.703  1.00  0.00    -0.299 C  
HETATM    5  O   UNL     1     -10.129  10.769  66.540  1.00  0.00    -0.212 OA 
BRANCH   4   6
HETATM    6  C   UNL     1     -11.123  12.849  65.904  1.00  0.00    -0.310 A  
HETATM    7  C   UNL     1     -12.294  13.059  65.162  1.00  0.00    -0.536 A  
HETATM    8  C   UNL     1     -12.465  14.242  64.442  1.00  0.00    -0.328 A  
HETATM    9  C   UNL     1     -11.468  15.213  64.472  1.00  0.00    -0.316 A  
HETATM   10  O   UNL     1     -11.590  16.380  63.779  1.00  0.00    -1.605 OA 
HETATM   11  C   UNL     1     -10.309  15.024  65.211  1.00  0.00    -0.424 A  
HETATM   12  C   UNL     1     -10.132  13.840  65.928  1.00  0.00    -0.325 A  
HETATM   13  H   UNL     1     -10.909  17.043  63.799  1.00  0.00     0.000 HD 
ENDBRANCH   4   6
ENDBRANCH   3   4
ENDBRANCH   2   3
TORSDOF 3
ENDMDL
MODEL        3
REMARK 921   NORMALIZED FREE ENERGY PREDICTED BY IDOCK:   -4.84 KCAL/MOL
REMARK 922        TOTAL FREE ENERGY PREDICTED BY IDOCK:   -5.92 KCAL/MOL
REMARK 923 INTER-LIGAND FREE ENERGY PREDICTED BY IDOCK:   -5.63 KCAL/MOL
REMARK 924 INTRA-LIGAND FREE ENERGY PREDICTED BY IDOCK:   -0.28 KCAL/MOL
REMARK 927      BINDING AFFINITY PREDICTED BY RF-SCORE:    0.00 PKD
ROOT
HETATM    1  C   UNL     1      -9.793  10.051  65.034  1.00  0.00    -0.374 C  
HETATM    2  C   UNL     1      -9.614  10.066  66.541  1.00  0.00    -0.187 C  
ENDROOT
BRANCH   2   3
HETATM    3  O   UNL     1      -9.774  11.416  66.993  1.00  0.00    -0.187 OA 
BRANCH   3   4
HETATM    4  C   UNL     1     -11.051  11.864  67.059  1.00  0.00    -0.302 C  
HETATM    5  O   UNL     1     -11.947  11.399  67.745  1.00  0.00    -0.637 OA 
BRANCH   4   6
HETATM    6  C   UNL     1     -11.193  13.096  66.238  1.00  0.00    -0.328 A  
HETATM    7  C   UNL     1     -10.249  14.120  66.404  1.00  0.00    -0.292 A  
HETATM    8  C   UNL     1     -10.314  15.269  65.615  1.00  0.00    -0.389 A  
HETATM    9  C   UNL     1     -11.320  15.388  64.659  1.00  0.00    -0.355 A  
HETATM   10  O   UNL     1     -11.426  16.494  63.871  1.00  0.00    -1.608 OA 
HETATM   11  C   UNL     1     -12.253  14.378  64.476  1.00  0.00    -0.483 A  
HETATM   12  C   UNL     1     -12.195  13.230  65.267  1.00  0.00    -0.492 A  
HETATM   13  H   UNL     1     -12.112  16.575  63.219  1.00  0.00     0.000 HD 
ENDBRANCH   4   6
ENDBRANCH   3   4
ENDBRANCH   2   3
TORSDOF 3
ENDMDL
MODEL        4
REMARK 921   NORMALIZED FREE ENERGY PREDICTED BY IDOCK:   -4.80 KCAL/MOL
REMARK 922        TOTAL FREE ENERGY PREDICTED BY IDOCK:   -5.87 KCAL/MOL
REMARK 923 INTER-LIGAND FREE ENERGY PREDICTED BY IDOCK:   -5.55 KCAL/MOL
REMARK 924 INTRA-LIGAND FREE ENERGY PREDICTED BY IDOCK:   -0.32 KCAL/MOL
REMARK 927      BINDING AFFINITY PREDICTED BY RF-SCORE:    0.00 PKD
ROOT
HETATM    1  C   UNL     1     -10.408  10.301  66.188  1.00  0.00    -0.253 C  
HETATM    2  C   UNL     1     -10.791  10.689  67.604  1.00  0.00    -0.292 C  
ENDROOT
BRANCH   2   3
HETATM    3  O   UNL     1     -11.992  11.468  67.541  1.00  0.00    -0.629 OA 
BRANCH   3   4
HETATM    4  C   UNL     1     -11.905  12.721  68.050  1.00  0.00    -0.336 C  
HETATM    5  O   UNL     1     -11.824  13.019  69.231  1.00  0.00    -0.302 OA 
BRANCH   4   6
HETATM    6  C   UNL     1     -11.817  13.708  66.941  1.00  0.00    -0.451 A  
HETATM    7  C   UNL     1     -10.955  14.804  67.091  1.00  0.00    -0.320 A  
HETATM    8  C   UNL     1     -10.803  15.723  66.052  1.00  0.00    -0.256 A  
HETATM    9  C   UNL     1     -11.508  15.540  64.865  1.00  0.00    -0.279 A  
HETATM   10  O   UNL     1     -11.395  16.415  63.828  1.00  0.00    -1.487 OA 
HETATM   11  C   UNL     1     -12.355  14.454  64.699  1.00  0.00    -0.435 A  
HETATM   12  C   UNL     1     -12.515  13.535  65.737  1.00  0.00    -0.514 A  
HETATM   13  H   UNL     1     -11.876  16.291  63.018  1.00  0.00     0.000 HD 
ENDBRANCH   4   6
ENDBRANCH   3   4
ENDBRANCH   2   3
TORSDOF 3
ENDMDL
MODEL        5
REMARK 921   NORMALIZED FREE ENERGY PREDICTED BY IDOCK:   -4.77 KCAL/MOL
REMARK 922        TOTAL FREE ENERGY PREDICTED BY IDOCK:   -5.84 KCAL/MOL
REMARK 923 INTER-LIGAND FREE ENERGY PREDICTED BY IDOCK:   -5.67 KCAL/MOL
REMARK 924 INTRA-LIGAND FREE ENERGY PREDICTED BY IDOCK:   -0.16 KCAL/MOL
REMARK 927      BINDING AFFINITY PREDICTED BY RF-SCORE:    0.00 PKD
ROOT
HETATM    1  C   UNL     1     -12.277  13.394  66.031  1.00  0.00    -0.491 C  
HETATM    2  C   UNL     1     -11.346  13.820  67.152  1.00  0.00    -0.324 C  
ENDROOT
BRANCH   2   3
HETATM    3  O   UNL     1     -12.149  14.182  68.282  1.00  0.00    -0.340 OA 
BRANCH   3   4
HETATM    4  C   UNL     1     -12.000  13.402  69.379  1.00  0.00    -0.315 C  
HETATM    5  O   UNL     1     -11.573  12.258  69.404  1.00  0.00    -0.284 OA 
BRANCH   4   6
HETATM    6  C   UNL     1     -12.341  14.182  70.599  1.00  0.00    -0.435 A  
HETATM    7  C   UNL     1     -13.272  13.642  71.497  1.00  0.00    -0.409 A  
HETATM    8  C   UNL     1     -13.579  14.317  72.680  1.00  0.00    -0.601 A  
HETATM    9  C   UNL     1     -12.948  15.526  72.963  1.00  0.00    -0.499 A  
HETATM   10  O   UNL     1     -13.221  16.221  74.102  1.00  0.00    -0.954 OA 
HETATM   11  C   UNL     1     -12.016  16.066  72.089  1.00  0.00    -0.629 A  
HETATM   12  C   UNL     1     -11.710  15.397  70.903  1.00  0.00    -0.395 A  
HETATM   13  H   UNL     1     -12.791  17.046  74.295  1.00  0.00     0.000 HD 
ENDBRANCH   4   6
ENDBRANCH   3   4
ENDBRANCH   2   3
TORSDOF 3
ENDMDL
MODEL        6
REMARK 921   NORMALIZED FREE ENERGY PREDICTED BY IDOCK:   -4.76 KCAL/MOL
REMARK 922        TOTAL FREE ENERGY PREDICTED BY IDOCK:   -5.82 KCAL/MOL
REMARK 923 INTER-LIGAND FREE ENERGY PREDICTED BY IDOCK:   -5.55 KCAL/MOL
REMARK 924 INTRA-LIGAND FREE ENERGY PREDICTED BY IDOCK:   -0.27 KCAL/MOL
REMARK 927      BINDING AFFINITY PREDICTED BY RF-SCORE:    0.00 PKD
ROOT
HETATM    1  C   UNL     1     -12.429  15.507  74.275  1.00  0.00    -0.792 C  
HETATM    2  C   UNL     1     -13.305  15.925  73.108  1.00  0.00    -0.587 C  
ENDROOT
BRANCH   2   3
HETATM    3  O   UNL     1     -13.692  14.742  72.398  1.00  0.00    -0.403 OA 
BRANCH   3   4
HETATM    4  C   UNL     1     -13.058  14.532  71.219  1.00  0.00    -0.350 C  
HETATM    5  O   UNL     1     -12.699  15.388  70.427  1.00  0.00    -0.404 OA 
BRANCH   4   6
HETATM    6  C   UNL     1     -12.760  13.083  71.062  1.00  0.00    -0.347 A  
HETATM    7  C   UNL     1     -13.313  12.185  71.986  1.00  0.00    -0.470 A  
HETATM    8  C   UNL     1     -13.103  10.813  71.842  1.00  0.00    -0.557 A  
HETATM    9  C   UNL     1     -12.346  10.344  70.771  1.00  0.00    -0.367 A  
HETATM   10  O   UNL     1     -12.110   9.014  70.596  1.00  0.00    -0.461 OA 
HETATM   11  C   UNL     1     -11.803  11.220  69.843  1.00  0.00    -0.436 A  
HETATM   12  C   UNL     1     -12.006  12.593  69.986  1.00  0.00    -0.377 A  
HETATM   13  H   UNL     1     -11.594   8.694  69.866  1.00  0.00     0.000 HD 
ENDBRANCH   4   6
ENDBRANCH   3   4
ENDBRANCH   2   3
TORSDOF 3
ENDMDL
MODEL        7
REMARK 921   NORMALIZED FREE ENERGY PREDICTED BY IDOCK:   -4.71 KCAL/MOL
REMARK 922        TOTAL FREE ENERGY PREDICTED BY IDOCK:   -5.77 KCAL/MOL
REMARK 923 INTER-LIGAND FREE ENERGY PREDICTED BY IDOCK:   -5.64 KCAL/MOL
REMARK 924 INTRA-LIGAND FREE ENERGY PREDICTED BY IDOCK:   -0.13 KCAL/MOL
REMARK 927      BINDING AFFINITY PREDICTED BY RF-SCORE:    0.00 PKD
ROOT
HETATM    1  C   UNL     1     -12.528  13.964  65.983  1.00  0.00    -0.501 C  
HETATM    2  C   UNL     1     -11.785  13.267  67.108  1.00  0.00    -0.376 C  
ENDROOT
BRANCH   2   3
HETATM    3  O   UNL     1     -12.137  13.913  68.338  1.00  0.00    -0.365 OA 
BRANCH   3   4
HETATM    4  C   UNL     1     -11.904  13.196  69.463  1.00  0.00    -0.322 C  
HETATM    5  O   UNL     1     -11.365  12.103  69.528  1.00  0.00    -0.257 OA 
BRANCH   4   6
HETATM    6  C   UNL     1     -12.315  13.986  70.655  1.00  0.00    -0.446 A  
HETATM    7  C   UNL     1     -11.638  15.183  70.926  1.00  0.00    -0.380 A  
HETATM    8  C   UNL     1     -12.028  15.981  72.003  1.00  0.00    -0.622 A  
HETATM    9  C   UNL     1     -13.098  15.582  72.799  1.00  0.00    -0.480 A  
HETATM   10  O   UNL     1     -13.509  16.326  73.864  1.00  0.00    -0.934 OA 
HETATM   11  C   UNL     1     -13.785  14.406  72.535  1.00  0.00    -0.589 A  
HETATM   12  C   UNL     1     -13.395  13.602  71.464  1.00  0.00    -0.372 A  
HETATM   13  H   UNL     1     -14.239  16.054  74.407  1.00  0.00     0.000 HD 
ENDBRANCH   4   6
ENDBRANCH   3   4
ENDBRANCH   2   3
TORSDOF 3
ENDMDL
MODEL        8
REMARK 921   NORMALIZED FREE ENERGY PREDICTED BY IDOCK:   -4.70 KCAL/MOL
REMARK 922        TOTAL FREE ENERGY PREDICTED BY IDOCK:   -5.76 KCAL/MOL
REMARK 923 INTER-LIGAND FREE ENERGY PREDICTED BY IDOCK:   -5.52 KCAL/MOL
REMARK 924 INTRA-LIGAND FREE ENERGY PREDICTED BY IDOCK:   -0.24 KCAL/MOL
REMARK 927      BINDING AFFINITY PREDICTED BY RF-SCORE:    0.00 PKD
ROOT
HETATM    1  C   UNL     1     -10.661  18.609  67.315  1.00  0.00    -0.480 C  
HETATM    2  C   UNL     1     -10.608  18.389  65.814  1.00  0.00    -0.210 C  
ENDROOT
BRANCH   2   3
HETATM    3  O   UNL     1     -10.237  17.026  65.578  1.00  0.00    -0.589 OA 
BRANCH   3   4
HETATM    4  C   UNL     1     -11.158  16.272  64.930  1.00  0.00    -0.290 C  
HETATM    5  O   UNL     1     -11.695  16.539  63.868  1.00  0.00    -1.148 OA 
BRANCH   4   6
HETATM    6  C   UNL     1     -11.358  14.990  65.658  1.00  0.00    -0.297 A  
HETATM    7  C   UNL     1     -11.365  15.013  67.060  1.00  0.00    -0.319 A  
HETATM    8  C   UNL     1     -11.603  13.842  67.780  1.00  0.00    -0.381 A  
HETATM    9  C   UNL     1     -11.840  12.653  67.096  1.00  0.00    -0.330 A  
HETATM   10  O   UNL     1     -12.071  11.485  67.758  1.00  0.00    -0.626 OA 
HETATM   11  C   UNL     1     -11.848  12.617  65.709  1.00  0.00    -0.497 A  
HETATM   12  C   UNL     1     -11.605  13.785  64.985  1.00  0.00    -0.350 A  
HETATM   13  H   UNL     1     -12.233  10.674  67.291  1.00  0.00     0.000 HD 
ENDBRANCH   4   6
ENDBRANCH   3   4
ENDBRANCH   2   3
TORSDOF 3
ENDMDL
MODEL        9
REMARK 921   NORMALIZED FREE ENERGY PREDICTED BY IDOCK:   -4.65 KCAL/MOL
REMARK 922        TOTAL FREE ENERGY PREDICTED BY IDOCK:   -5.70 KCAL/MOL
REMARK 923 INTER-LIGAND FREE ENERGY PREDICTED BY IDOCK:   -5.44 KCAL/MOL
REMARK 924 INTRA-LIGAND FREE ENERGY PREDICTED BY IDOCK:   -0.26 KCAL/MOL
REMARK 927      BINDING AFFINITY PREDICTED BY RF-SCORE:    0.00 PKD
ROOT
HETATM    1  C   UNL     1      -9.214   9.776  64.827  1.00  0.00    -0.319 C  
HETATM    2  C   UNL     1     -10.074   9.747  66.078  1.00  0.00    -0.251 C  
ENDROOT
BRANCH   2   3
HETATM    3  O   UNL     1     -10.017  11.044  66.685  1.00  0.00    -0.198 OA 
BRANCH   3   4
HETATM    4  C   UNL     1     -11.210  11.663  66.856  1.00  0.00    -0.313 C  
HETATM    5  O   UNL     1     -12.093  11.334  67.632  1.00  0.00    -0.600 OA 
BRANCH   4   6
HETATM    6  C   UNL     1     -11.261  12.892  66.020  1.00  0.00    -0.325 A  
HETATM    7  C   UNL     1     -12.469  13.217  65.386  1.00  0.00    -0.543 A  
HETATM    8  C   UNL     1     -12.575  14.390  64.637  1.00  0.00    -0.256 A  
HETATM    9  C   UNL     1     -11.475  15.236  64.530  1.00  0.00    -0.315 A  
HETATM   10  O   UNL     1     -11.531  16.388  63.804  1.00  0.00    -1.590 OA 
HETATM   11  C   UNL     1     -10.277  14.933  65.161  1.00  0.00    -0.409 A  
HETATM   12  C   UNL     1     -10.165  13.759  65.906  1.00  0.00    -0.322 A  
HETATM   13  H   UNL     1     -10.780  16.965  63.730  1.00  0.00     0.000 HD 
ENDBRANCH   4   6
ENDBRANCH   3   4
ENDBRANCH   2   3
TORSDOF 3
ENDMDL
MODEL       10
REMARK 921   NORMALIZED FREE ENERGY PREDICTED BY IDOCK:   -4.59 KCAL/MOL
REMARK 922        TOTAL FREE ENERGY PREDICTED BY IDOCK:   -5.63 KCAL/MOL
REMARK 923 INTER-LIGAND FREE ENERGY PREDICTED BY IDOCK:   -5.37 KCAL/MOL
REMARK 924 INTRA-LIGAND FREE ENERGY PREDICTED BY IDOCK:   -0.26 KCAL/MOL
REMARK 927      BINDING AFFINITY PREDICTED BY RF-SCORE:    0.00 PKD
ROOT
HETATM    1  C   UNL     1     -11.143  11.870  63.504  1.00  0.00    -0.506 C  
HETATM    2  C   UNL     1     -12.643  12.102  63.522  1.00  0.00    -0.506 C  
ENDROOT
BRANCH   2   3
HETATM    3  O   UNL     1     -12.970  12.795  64.732  1.00  0.00    -0.768 OA 
BRANCH   3   4
HETATM    4  C   UNL     1     -12.477  14.052  64.840  1.00  0.00    -0.396 C  
HETATM    5  O   UNL     1     -12.629  14.961  64.040  1.00  0.00    -0.832 OA 
BRANCH   4   6
HETATM    6  C   UNL     1     -11.789  14.210  66.149  1.00  0.00    -0.420 A  
HETATM    7  C   UNL     1     -10.886  15.272  66.304  1.00  0.00    -0.312 A  
HETATM    8  C   UNL     1     -10.261  15.488  67.533  1.00  0.00    -0.254 A  
HETATM    9  C   UNL     1     -10.546  14.645  68.604  1.00  0.00    -0.252 A  
HETATM   10  O   UNL     1      -9.955  14.814  69.820  1.00  0.00    -0.430 OA 
HETATM   11  C   UNL     1     -11.446  13.598  68.469  1.00  0.00    -0.347 A  
HETATM   12  C   UNL     1     -12.069  13.375  67.240  1.00  0.00    -0.352 A  
HETATM   13  H   UNL     1     -10.149  14.240  70.550  1.00  0.00     0.000 HD 
ENDBRANCH   4   6
ENDBRANCH   3   4
ENDBRANCH   2   3
TORSDOF 3
ENDMDL
MODEL       11
REMARK 921   NORMALIZED FREE ENERGY PREDICTED BY IDOCK:   -4.59 KCAL/MOL
REMARK 922        TOTAL FREE ENERGY PREDICTED BY IDOCK:   -5.63 KCAL/MOL
REMARK 923 INTER-LIGAND FREE ENERGY PREDICTED BY IDOCK:   -5.44 KCAL/MOL
REMARK 924 INTRA-LIGAND FREE ENERGY PREDICTED BY IDOCK:   -0.19 KCAL/MOL
REMARK 927      BINDING AFFINITY PREDICTED BY RF-SCORE:    0.00 PKD
ROOT
HETATM    1  C   UNL     1     -10.607  19.344  67.323  1.00  0.00    -0.599 C  
HETATM    2  C   UNL     1     -10.481  18.687  65.960  1.00  0.00    -0.414 C  
ENDROOT
BRANCH   2   3
HETATM    3  O   UNL     1     -10.380  17.272  66.158  1.00  0.00    -0.341 OA 
BRANCH   3   4
HETATM    4  C   UNL     1     -11.036  16.506  65.254  1.00  0.00    -0.162 C  
HETATM    5  O   UNL     1     -11.303  16.811  64.103  1.00  0.00    -1.194 OA 
BRANCH   4   6
HETATM    6  C   UNL     1     -11.307  15.164  65.837  1.00  0.00    -0.225 A  
HETATM    7  C   UNL     1     -12.020  14.234  65.067  1.00  0.00    -0.412 A  
HETATM    8  C   UNL     1     -12.249  12.947  65.555  1.00  0.00    -0.527 A  
HETATM    9  C   UNL     1     -11.756  12.592  66.808  1.00  0.00    -0.384 A  
HETATM   10  O   UNL     1     -11.961  11.349  67.326  1.00  0.00    -0.580 OA 
HETATM   11  C   UNL     1     -11.039  13.497  67.576  1.00  0.00    -0.293 A  
HETATM   12  C   UNL     1     -10.813  14.787  67.094  1.00  0.00    -0.311 A  
HETATM   13  H   UNL     1     -11.625  11.106  68.181  1.00  0.00     0.000 HD 
ENDBRANCH   4   6
ENDBRANCH   3   4
ENDBRANCH   2   3
TORSDOF 3
ENDMDL
MODEL       12
REMARK 921   NORMALIZED FREE ENERGY PREDICTED BY IDOCK:   -4.58 KCAL/MOL
REMARK 922        TOTAL FREE ENERGY PREDICTED BY IDOCK:   -5.61 KCAL/MOL
REMARK 923 INTER-LIGAND FREE ENERGY PREDICTED BY IDOCK:   -5.35 KCAL/MOL
REMARK 924 INTRA-LIGAND FREE ENERGY PREDICTED BY IDOCK:   -0.26 KCAL/MOL
REMARK 927      BINDING AFFINITY PREDICTED BY RF-SCORE:    0.00 PKD
ROOT
HETATM    1  C   UNL     1     -12.109  11.749  70.295  1.00  0.00    -0.426 C  
HETATM    2  C   UNL     1     -11.559  10.585  69.490  1.00  0.00    -0.260 C  
ENDROOT
BRANCH   2   3
HETATM    3  O   UNL     1     -11.996  10.738  68.134  1.00  0.00    -0.527 OA 
BRANCH   3   4
HETATM    4  C   UNL     1     -11.012  10.828  67.208  1.00  0.00    -0.297 C  
HETATM    5  O   UNL     1     -10.022  10.118  67.131  1.00  0.00    -0.179 OA 
BRANCH   4   6
HETATM    6  C   UNL     1     -11.358  11.874  66.209  1.00  0.00    -0.394 A  
HETATM    7  C   UNL     1     -10.972  11.676  64.876  1.00  0.00    -0.345 A  
HETATM    8  C   UNL     1     -11.324  12.607  63.898  1.00  0.00    -0.501 A  
HETATM    9  C   UNL     1     -12.067  13.729  64.255  1.00  0.00    -0.440 A  
HETATM   10  O   UNL     1     -12.428  14.667  63.335  1.00  0.00    -1.035 OA 
HETATM   11  C   UNL     1     -12.466  13.932  65.568  1.00  0.00    -0.541 A  
HETATM   12  C   UNL     1     -12.111  13.007  66.550  1.00  0.00    -0.410 A  
HETATM   13  H   UNL     1     -12.935  15.432  63.579  1.00  0.00     0.000 HD 
ENDBRANCH   4   6
ENDBRANCH   3   4
ENDBRANCH   2   3
TORSDOF 3
ENDMDL
MODEL       13
REMARK 921   NORMALIZED FREE ENERGY PREDICTED BY IDOCK:   -4.56 KCAL/MOL
REMARK 922        TOTAL FREE ENERGY PREDICTED BY IDOCK:   -5.59 KCAL/MOL
REMARK 923 INTER-LIGAND FREE ENERGY PREDICTED BY IDOCK:   -5.35 KCAL/MOL
REMARK 924 INTRA-LIGAND FREE ENERGY PREDICTED BY IDOCK:   -0.24 KCAL/MOL
REMARK 927      BINDING AFFINITY PREDICTED BY RF-SCORE:    0.00 PKD
ROOT
HETATM    1  C   UNL     1     -11.238  10.487  69.718  1.00  0.00    -0.361 C  
HETATM    2  C   UNL     1     -11.146  11.715  68.830  1.00  0.00    -0.232 C  
ENDROOT
BRANCH   2   3
HETATM    3  O   UNL     1     -12.061  12.696  69.333  1.00  0.00    -0.264 OA 
BRANCH   3   4
HETATM    4  C   UNL     1     -11.561  13.947  69.470  1.00  0.00    -0.301 C  
HETATM    5  O   UNL     1     -10.901  14.559  68.645  1.00  0.00    -0.236 OA 
BRANCH   4   6
HETATM    6  C   UNL     1     -12.021  14.533  70.758  1.00  0.00    -0.388 A  
HETATM    7  C   UNL     1     -12.900  13.784  71.554  1.00  0.00    -0.445 A  
HETATM    8  C   UNL     1     -13.313  14.273  72.794  1.00  0.00    -0.621 A  
HETATM    9  C   UNL     1     -12.840  15.506  73.236  1.00  0.00    -0.517 A  
HETATM   10  O   UNL     1     -13.221  16.025  74.437  1.00  0.00    -0.839 OA 
HETATM   11  C   UNL     1     -11.961  16.252  72.465  1.00  0.00    -0.648 A  
HETATM   12  C   UNL     1     -11.550  15.769  71.222  1.00  0.00    -0.499 A  
HETATM   13  H   UNL     1     -12.899  16.865  74.739  1.00  0.00     0.000 HD 
ENDBRANCH   4   6
ENDBRANCH   3   4
ENDBRANCH   2   3
TORSDOF 3
ENDMDL
MODEL       14
REMARK 921   NORMALIZED FREE ENERGY PREDICTED BY IDOCK:   -4.55 KCAL/MOL
REMARK 922        TOTAL FREE ENERGY PREDICTED BY IDOCK:   -5.58 KCAL/MOL
REMARK 923 INTER-LIGAND FREE ENERGY PREDICTED BY IDOCK:   -5.41 KCAL/MOL
REMARK 924 INTRA-LIGAND FREE ENERGY PREDICTED BY IDOCK:   -0.17 KCAL/MOL
REMARK 927      BINDING AFFINITY PREDICTED BY RF-SCORE:    0.00 PKD
ROOT
HETATM    1  C   UNL     1     -11.915  10.206  70.618  1.00  0.00    -0.423 C  
HETATM    2  C   UNL     1     -11.943  11.463  69.769  1.00  0.00    -0.353 C  
ENDROOT
BRANCH   2   3
HETATM    3  O   UNL     1     -12.076  11.070  68.398  1.00  0.00    -0.594 OA 
BRANCH   3   4
HETATM    4  C   UNL     1     -10.995  11.300  67.614  1.00  0.00    -0.259 C  
HETATM    5  O   UNL     1      -9.851  10.937  67.834  1.00  0.00    -0.167 OA 
BRANCH   4   6
HETATM    6  C   UNL     1     -11.418  11.986  66.364  1.00  0.00    -0.417 A  
HETATM    7  C   UNL     1     -12.081  13.217  66.472  1.00  0.00    -0.435 A  
HETATM    8  C   UNL     1     -12.447  13.920  65.323  1.00  0.00    -0.504 A  
HETATM    9  C   UNL     1     -12.142  13.392  64.071  1.00  0.00    -0.449 A  
HETATM   10  O   UNL     1     -12.486  14.040  62.923  1.00  0.00    -1.028 OA 
HETATM   11  C   UNL     1     -11.476  12.181  63.949  1.00  0.00    -0.519 A  
HETATM   12  C   UNL     1     -11.114  11.473  65.096  1.00  0.00    -0.260 A  
HETATM   13  H   UNL     1     -12.278  13.680  62.069  1.00  0.00     0.000 HD 
ENDBRANCH   4   6
ENDBRANCH   3   4
ENDBRANCH   2   3
TORSDOF 3
ENDMDL
MODEL       15
REMARK 921   NORMALIZED FREE ENERGY PREDICTED BY IDOCK:   -4.55 KCAL/MOL
REMARK 922        TOTAL FREE ENERGY PREDICTED BY IDOCK:   -5.58 KCAL/MOL
REMARK 923 INTER-LIGAND FREE ENERGY PREDICTED BY IDOCK:   -5.35 KCAL/MOL
REMARK 924 INTRA-LIGAND FREE ENERGY PREDICTED BY IDOCK:   -0.23 KCAL/MOL
REMARK 927      BINDING AFFINITY PREDICTED BY RF-SCORE:    0.00 PKD
ROOT
HETATM    1  C   UNL     1     -11.889  16.010  72.119  1.00  0.00    -0.623 C  
HETATM    2  C   UNL     1     -13.192  15.672  71.417  1.00  0.00    -0.465 C  
ENDROOT
BRANCH   2   3
HETATM    3  O   UNL     1     -13.073  14.352  70.874  1.00  0.00    -0.354 OA 
BRANCH   3   4
HETATM    4  C   UNL     1     -13.379  13.340  71.721  1.00  0.00    -0.393 C  
HETATM    5  O   UNL     1     -14.108  13.408  72.697  1.00  0.00    -0.767 OA 
BRANCH   4   6
HETATM    6  C   UNL     1     -12.771  12.074  71.230  1.00  0.00    -0.382 A  
HETATM    7  C   UNL     1     -13.130  10.874  71.862  1.00  0.00    -0.537 A  
HETATM    8  C   UNL     1     -12.625   9.659  71.398  1.00  0.00    -0.463 A  
HETATM    9  C   UNL     1     -11.768   9.647  70.300  1.00  0.00    -0.155 A  
HETATM   10  O   UNL     1     -11.246   8.485  69.817  1.00  0.00    -0.434 OA 
HETATM   11  C   UNL     1     -11.415  10.825  69.658  1.00  0.00    -0.376 A  
HETATM   12  C   UNL     1     -11.913  12.043  70.123  1.00  0.00    -0.401 A  
HETATM   13  H   UNL     1     -10.662   8.477  69.068  1.00  0.00     0.000 HD 
ENDBRANCH   4   6
ENDBRANCH   3   4
ENDBRANCH   2   3
TORSDOF 3
ENDMDL
MODEL       16
REMARK 921   NORMALIZED FREE ENERGY PREDICTED BY IDOCK:   -4.51 KCAL/MOL
REMARK 922        TOTAL FREE ENERGY PREDICTED BY IDOCK:   -5.53 KCAL/MOL
REMARK 923 INTER-LIGAND FREE ENERGY PREDICTED BY IDOCK:   -5.24 KCAL/MOL
REMARK 924 INTRA-LIGAND FREE ENERGY PREDICTED BY IDOCK:   -0.29 KCAL/MOL
REMARK 927      BINDING AFFINITY PREDICTED BY RF-SCORE:    0.00 PKD
ROOT
HETATM    1  C   UNL     1      -9.761  10.460  64.348  1.00  0.00    -0.396 C  
HETATM    2  C   UNL     1     -10.555  11.503  63.582  1.00  0.00    -0.429 C  
ENDROOT
BRANCH   2   3
HETATM    3  O   UNL     1     -10.775  12.620  64.451  1.00  0.00    -0.314 OA 
BRANCH   3   4
HETATM    4  C   UNL     1     -11.986  12.659  65.058  1.00  0.00    -0.419 C  
HETATM    5  O   UNL     1     -13.067  12.448  64.534  1.00  0.00    -0.823 OA 
BRANCH   4   6
HETATM    6  C   UNL     1     -11.807  12.903  66.515  1.00  0.00    -0.473 A  
HETATM    7  C   UNL     1     -11.999  14.205  67.001  1.00  0.00    -0.471 A  
HETATM    8  C   UNL     1     -11.895  14.465  68.368  1.00  0.00    -0.354 A  
HETATM    9  C   UNL     1     -11.606  13.422  69.245  1.00  0.00    -0.310 A  
HETATM   10  O   UNL     1     -11.489  13.632  70.586  1.00  0.00    -0.502 OA 
HETATM   11  C   UNL     1     -11.426  12.128  68.779  1.00  0.00    -0.359 A  
HETATM   12  C   UNL     1     -11.524  11.864  67.412  1.00  0.00    -0.393 A  
HETATM   13  H   UNL     1     -11.292  12.921  71.184  1.00  0.00     0.000 HD 
ENDBRANCH   4   6
ENDBRANCH   3   4
ENDBRANCH   2   3
TORSDOF 3
ENDMDL
MODEL       17
REMARK 921   NORMALIZED FREE ENERGY PREDICTED BY IDOCK:   -4.49 KCAL/MOL
REMARK 922        TOTAL FREE ENERGY PREDICTED BY IDOCK:   -5.51 KCAL/MOL
REMARK 923 INTER-LIGAND FREE ENERGY PREDICTED BY IDOCK:   -5.34 KCAL/MOL
REMARK 924 INTRA-LIGAND FREE ENERGY PREDICTED BY IDOCK:   -0.17 KCAL/MOL
REMARK 927      BINDING AFFINITY PREDICTED BY RF-SCORE:    0.00 PKD
ROOT
HETATM    1  C   UNL     1     -12.068   9.669  71.176  1.00  0.00    -0.448 C  
HETATM    2  C   UNL     1     -11.330  10.557  70.191  1.00  0.00    -0.323 C  
ENDROOT
BRANCH   2   3
HETATM    3  O   UNL     1     -12.260  11.518  69.678  1.00  0.00    -0.286 OA 
BRANCH   3   4
HETATM    4  C   UNL     1     -11.779  12.776  69.527  1.00  0.00    -0.318 C  
HETATM    5  O   UNL     1     -11.161  13.205  68.567  1.00  0.00    -0.241 OA 
BRANCH   4   6
HETATM    6  C   UNL     1     -12.204  13.617  70.679  1.00  0.00    -0.434 A  
HETATM    7  C   UNL     1     -11.705  14.924  70.769  1.00  0.00    -0.364 A  
HETATM    8  C   UNL     1     -12.121  15.763  71.804  1.00  0.00    -0.541 A  
HETATM    9  C   UNL     1     -13.040  15.294  72.740  1.00  0.00    -0.461 A  
HETATM   10  O   UNL     1     -13.469  16.077  73.769  1.00  0.00    -0.860 OA 
HETATM   11  C   UNL     1     -13.551  14.008  72.655  1.00  0.00    -0.623 A  
HETATM   12  C   UNL     1     -13.133  13.163  71.626  1.00  0.00    -0.444 A  
HETATM   13  H   UNL     1     -14.096  15.757  74.407  1.00  0.00     0.000 HD 
ENDBRANCH   4   6
ENDBRANCH   3   4
ENDBRANCH   2   3
TORSDOF 3
ENDMDL
MODEL       18
REMARK 921   NORMALIZED FREE ENERGY PREDICTED BY IDOCK:   -4.48 KCAL/MOL
REMARK 922        TOTAL FREE ENERGY PREDICTED BY IDOCK:   -5.50 KCAL/MOL
REMARK 923 INTER-LIGAND FREE ENERGY PREDICTED BY IDOCK:   -5.35 KCAL/MOL
REMARK 924 INTRA-LIGAND FREE ENERGY PREDICTED BY IDOCK:   -0.15 KCAL/MOL
REMARK 927      BINDING AFFINITY PREDICTED BY RF-SCORE:    0.00 PKD
ROOT
HETATM    1  C   UNL     1     -14.383   7.456  71.694  1.00  0.00    -0.614 C  
HETATM    2  C   UNL     1     -13.154   8.281  72.030  1.00  0.00    -0.327 C  
ENDROOT
BRANCH   2   3
HETATM    3  O   UNL     1     -13.351   9.602  71.514  1.00  0.00    -0.371 OA 
BRANCH   3   4
HETATM    4  C   UNL     1     -12.222  10.309  71.264  1.00  0.00    -0.395 C  
HETATM    5  O   UNL     1     -11.117   9.849  71.026  1.00  0.00    -0.337 OA 
BRANCH   4   6
HETATM    6  C   UNL     1     -12.540  11.762  71.218  1.00  0.00    -0.401 A  
HETATM    7  C   UNL     1     -11.958  12.539  70.207  1.00  0.00    -0.364 A  
HETATM    8  C   UNL     1     -12.272  13.894  70.096  1.00  0.00    -0.425 A  
HETATM    9  C   UNL     1     -13.172  14.465  70.992  1.00  0.00    -0.333 A  
HETATM   10  O   UNL     1     -13.503  15.785  70.924  1.00  0.00    -0.716 OA 
HETATM   11  C   UNL     1     -13.765  13.705  71.990  1.00  0.00    -0.583 A  
HETATM   12  C   UNL     1     -13.449  12.351  72.108  1.00  0.00    -0.481 A  
HETATM   13  H   UNL     1     -14.117  16.175  71.535  1.00  0.00     0.000 HD 
ENDBRANCH   4   6
ENDBRANCH   3   4
ENDBRANCH   2   3
TORSDOF 3
ENDMDL
MODEL       19
REMARK 921   NORMALIZED FREE ENERGY PREDICTED BY IDOCK:   -4.48 KCAL/MOL
REMARK 922        TOTAL FREE ENERGY PREDICTED BY IDOCK:   -5.49 KCAL/MOL
REMARK 923 INTER-LIGAND FREE ENERGY PREDICTED BY IDOCK:   -5.34 KCAL/MOL
REMARK 924 INTRA-LIGAND FREE ENERGY PREDICTED BY IDOCK:   -0.15 KCAL/MOL
REMARK 927      BINDING AFFINITY PREDICTED BY RF-SCORE:    0.00 PKD
ROOT
HETATM    1  C   UNL     1     -12.993  15.465  71.409  1.00  0.00    -0.532 C  
HETATM    2  C   UNL     1     -11.717  15.869  70.693  1.00  0.00    -0.384 C  
ENDROOT
BRANCH   2   3
HETATM    3  O   UNL     1     -11.924  15.696  69.287  1.00  0.00    -0.365 OA 
BRANCH   3   4
HETATM    4  C   UNL     1     -10.985  14.962  68.642  1.00  0.00    -0.257 C  
HETATM    5  O   UNL     1      -9.999  14.446  69.143  1.00  0.00    -0.180 OA 
BRANCH   4   6
HETATM    6  C   UNL     1     -11.380  14.780  67.220  1.00  0.00    -0.366 A  
HETATM    7  C   UNL     1     -10.858  15.664  66.265  1.00  0.00    -0.262 A  
HETATM    8  C   UNL     1     -11.160  15.495  64.913  1.00  0.00    -0.428 A  
HETATM    9  C   UNL     1     -11.978  14.438  64.520  1.00  0.00    -0.472 A  
HETATM   10  O   UNL     1     -12.304  14.239  63.213  1.00  0.00    -1.118 OA 
HETATM   11  C   UNL     1     -12.491  13.549  65.453  1.00  0.00    -0.540 A  
HETATM   12  C   UNL     1     -12.196  13.718  66.806  1.00  0.00    -0.440 A  
HETATM   13  H   UNL     1     -12.862  13.518  62.945  1.00  0.00     0.000 HD 
ENDBRANCH   4   6
ENDBRANCH   3   4
ENDBRANCH   2   3
TORSDOF 3
ENDMDL
MODEL       20
REMARK 921   NORMALIZED FREE ENERGY PREDICTED BY IDOCK:   -4.46 KCAL/MOL
REMARK 922        TOTAL FREE ENERGY PREDICTED BY IDOCK:   -5.47 KCAL/MOL
REMARK 923 INTER-LIGAND FREE ENERGY PREDICTED BY IDOCK:   -5.29 KCAL/MOL
REMARK 924 INTRA-LIGAND FREE ENERGY PREDICTED BY IDOCK:   -0.18 KCAL/MOL
REMARK 927      BINDING AFFINITY PREDICTED BY RF-SCORE:    0.00 PKD
ROOT
HETATM    1  C   UNL     1     -12.719  11.882  63.560  1.00  0.00    -0.530 C  
HETATM    2  C   UNL     1     -11.796  13.083  63.664  1.00  0.00    -0.516 C  
ENDROOT
BRANCH   2   3
HETATM    3  O   UNL     1     -12.558  14.186  64.168  1.00  0.00    -0.684 OA 
BRANCH   3   4
HETATM    4  C   UNL     1     -11.847  15.297  64.475  1.00  0.00    -0.295 C  
HETATM    5  O   UNL     1     -11.860  16.356  63.869  1.00  0.00    -1.034 OA 
BRANCH   4   6
HETATM    6  C   UNL     1     -11.104  15.082  65.746  1.00  0.00    -0.346 A  
HETATM    7  C   UNL     1      -9.766  15.494  65.813  1.00  0.00    -0.383 A  
HETATM    8  C   UNL     1      -9.049  15.359  67.003  1.00  0.00    -0.247 A  
HETATM    9  C   UNL     1      -9.676  14.820  68.123  1.00  0.00    -0.217 A  
HETATM   10  O   UNL     1      -9.014  14.665  69.304  1.00  0.00    -0.371 OA 
HETATM   11  C   UNL     1     -11.003  14.420  68.075  1.00  0.00    -0.268 A  
HETATM   12  C   UNL     1     -11.722  14.547  66.885  1.00  0.00    -0.399 A  
HETATM   13  H   UNL     1      -9.441  14.297  70.068  1.00  0.00     0.000 HD 
ENDBRANCH   4   6
ENDBRANCH   3   4
ENDBRANCH   2   3
TORSDOF 3
ENDMDL
MODEL       21
REMARK 921   NORMALIZED FREE ENERGY PREDICTED BY IDOCK:   -4.43 KCAL/MOL
REMARK 922        TOTAL FREE ENERGY PREDICTED BY IDOCK:   -5.44 KCAL/MOL
REMARK 923 INTER-LIGAND FREE ENERGY PREDICTED BY IDOCK:   -5.24 KCAL/MOL
REMARK 924 INTRA-LIGAND FREE ENERGY PREDICTED BY IDOCK:   -0.20 KCAL/MOL
REMARK 927      BINDING AFFINITY PREDICTED BY RF-SCORE:    0.00 PKD
ROOT
HETATM    1  C   UNL     1      -9.823  20.195  67.185  1.00  0.00    -0.586 C  
HETATM    2  C   UNL     1     -10.781  19.061  66.866  1.00  0.00    -0.399 C  
ENDROOT
BRANCH   2   3
HETATM    3  O   UNL     1     -10.056  18.057  66.147  1.00  0.00    -0.426 OA 
BRANCH   3   4
HETATM    4  C   UNL     1      -9.805  16.914  66.830  1.00  0.00    -0.279 C  
HETATM    5  O   UNL     1      -9.070  16.794  67.797  1.00  0.00    -0.217 OA 
BRANCH   4   6
HETATM    6  C   UNL     1     -10.646  15.812  66.290  1.00  0.00    -0.313 A  
HETATM    7  C   UNL     1     -11.198  14.892  67.192  1.00  0.00    -0.345 A  
HETATM    8  C   UNL     1     -12.036  13.875  66.732  1.00  0.00    -0.476 A  
HETATM    9  C   UNL     1     -12.325  13.788  65.373  1.00  0.00    -0.475 A  
HETATM   10  O   UNL     1     -13.134  12.809  64.879  1.00  0.00    -0.833 OA 
HETATM   11  C   UNL     1     -11.796  14.699  64.470  1.00  0.00    -0.442 A  
HETATM   12  C   UNL     1     -10.952  15.713  64.925  1.00  0.00    -0.447 A  
HETATM   13  H   UNL     1     -13.331  12.749  63.952  1.00  0.00     0.000 HD 
ENDBRANCH   4   6
ENDBRANCH   3   4
ENDBRANCH   2   3
TORSDOF 3
ENDMDL
MODEL       22
REMARK 921   NORMALIZED FREE ENERGY PREDICTED BY IDOCK:   -4.41 KCAL/MOL
REMARK 922        TOTAL FREE ENERGY PREDICTED BY IDOCK:   -5.41 KCAL/MOL
REMARK 923 INTER-LIGAND FREE ENERGY PREDICTED BY IDOCK:   -5.26 KCAL/MOL
REMARK 924 INTRA-LIGAND FREE ENERGY PREDICTED BY IDOCK:   -0.15 KCAL/MOL
REMARK 927      BINDING AFFINITY PREDICTED BY RF-SCORE:    0.00 PKD
ROOT
HETATM    1  C   UNL     1     -10.795   7.992  72.589  1.00  0.00    -0.436 C  
HETATM    2  C   UNL     1     -11.519   8.380  71.312  1.00  0.00    -0.280 C  
ENDROOT
BRANCH   2   3
HETATM    3  O   UNL     1     -11.636   9.807  71.286  1.00  0.00    -0.345 OA 
BRANCH   3   4
HETATM    4  C   UNL     1     -12.826  10.305  71.700  1.00  0.00    -0.463 C  
HETATM    5  O   UNL     1     -13.718   9.683  72.254  1.00  0.00    -0.417 OA 
BRANCH   4   6
HETATM    6  C   UNL     1     -12.861  11.775  71.473  1.00  0.00    -0.450 A  
HETATM    7  C   UNL     1     -12.135  12.300  70.395  1.00  0.00    -0.385 A  
HETATM    8  C   UNL     1     -12.184  13.666  70.115  1.00  0.00    -0.413 A  
HETATM    9  C   UNL     1     -12.966  14.501  70.910  1.00  0.00    -0.361 A  
HETATM   10  O   UNL     1     -13.039  15.842  70.677  1.00  0.00    -0.637 OA 
HETATM   11  C   UNL     1     -13.700  13.993  71.972  1.00  0.00    -0.569 A  
HETATM   12  C   UNL     1     -13.648  12.629  72.259  1.00  0.00    -0.508 A  
HETATM   13  H   UNL     1     -13.572  16.411  71.219  1.00  0.00     0.000 HD 
ENDBRANCH   4   6
ENDBRANCH   3   4
ENDBRANCH   2   3
TORSDOF 3
ENDMDL
MODEL       23
REMARK 921   NORMALIZED FREE ENERGY PREDICTED BY IDOCK:   -4.38 KCAL/MOL
REMARK 922        TOTAL FREE ENERGY PREDICTED BY IDOCK:   -5.38 KCAL/MOL
REMARK 923 INTER-LIGAND FREE ENERGY PREDICTED BY IDOCK:   -5.21 KCAL/MOL
REMARK 924 INTRA-LIGAND FREE ENERGY PREDICTED BY IDOCK:   -0.17 KCAL/MOL
REMARK 927      BINDING AFFINITY PREDICTED BY RF-SCORE:    0.00 PKD
ROOT
HETATM    1  C   UNL     1     -11.623  12.862  65.978  1.00  0.00    -0.424 C  
HETATM    2  C   UNL     1     -11.728  13.005  67.485  1.00  0.00    -0.370 C  
ENDROOT
BRANCH   2   3
HETATM    3  O   UNL     1     -11.957  11.704  68.039  1.00  0.00    -0.577 OA 
BRANCH   3   4
HETATM    4  C   UNL     1     -11.019  11.265  68.912  1.00  0.00    -0.223 C  
HETATM    5  O   UNL     1      -9.812  11.419  68.817  1.00  0.00    -0.205 OA 
BRANCH   4   6
HETATM    6  C   UNL     1     -11.681  10.640  70.088  1.00  0.00    -0.417 A  
HETATM    7  C   UNL     1     -12.455  11.454  70.928  1.00  0.00    -0.478 A  
HETATM    8  C   UNL     1     -13.137  10.898  72.010  1.00  0.00    -0.462 A  
HETATM    9  C   UNL     1     -13.049   9.528  72.246  1.00  0.00    -0.408 A  
HETATM   10  O   UNL     1     -13.693   8.943  73.294  1.00  0.00    -1.085 OA 
HETATM   11  C   UNL     1     -12.297   8.709  71.416  1.00  0.00    -0.344 A  
HETATM   12  C   UNL     1     -11.609   9.262  70.336  1.00  0.00    -0.215 A  
HETATM   13  H   UNL     1     -13.633   8.009  73.455  1.00  0.00     0.000 HD 
ENDBRANCH   4   6
ENDBRANCH   3   4
ENDBRANCH   2   3
TORSDOF 3
ENDMDL
MODEL       24
REMARK 921   NORMALIZED FREE ENERGY PREDICTED BY IDOCK:   -4.37 KCAL/MOL
REMARK 922        TOTAL FREE ENERGY PREDICTED BY IDOCK:   -5.37 KCAL/MOL
REMARK 923 INTER-LIGAND FREE ENERGY PREDICTED BY IDOCK:   -5.10 KCAL/MOL
REMARK 924 INTRA-LIGAND FREE ENERGY PREDICTED BY IDOCK:   -0.27 KCAL/MOL
REMARK 927      BINDING AFFINITY PREDICTED BY RF-SCORE:    0.00 PKD
ROOT
HETATM    1  C   UNL     1     -11.041   9.905  69.830  1.00  0.00    -0.318 C  
HETATM    2  C   UNL     1     -11.795  11.221  69.757  1.00  0.00    -0.364 C  
ENDROOT
BRANCH   2   3
HETATM    3  O   UNL     1     -12.268  11.387  68.416  1.00  0.00    -0.571 OA 
BRANCH   3   4
HETATM    4  C   UNL     1     -11.695  12.392  67.712  1.00  0.00    -0.350 C  
HETATM    5  O   UNL     1     -11.421  13.505  68.130  1.00  0.00    -0.266 OA 
BRANCH   4   6
HETATM    6  C   UNL     1     -11.341  11.912  66.349  1.00  0.00    -0.400 A  
HETATM    7  C   UNL     1     -11.951  12.527  65.247  1.00  0.00    -0.490 A  
HETATM    8  C   UNL     1     -11.607  12.143  63.950  1.00  0.00    -0.532 A  
HETATM    9  C   UNL     1     -10.649  11.150  63.761  1.00  0.00    -0.356 A  
HETATM   10  O   UNL     1     -10.286  10.739  62.513  1.00  0.00    -0.748 OA 
HETATM   11  C   UNL     1     -10.028  10.541  64.842  1.00  0.00    -0.401 A  
HETATM   12  C   UNL     1     -10.374  10.918  66.140  1.00  0.00    -0.305 A  
HETATM   13  H   UNL     1      -9.633  10.062  62.384  1.00  0.00     0.000 HD 
ENDBRANCH   4   6
ENDBRANCH   3   4
ENDBRANCH   2   3
TORSDOF 3
ENDMDL
MODEL       25
REMARK 921   NORMALIZED FREE ENERGY PREDICTED BY IDOCK:   -4.34 KCAL/MOL
REMARK 922        TOTAL FREE ENERGY PREDICTED BY IDOCK:   -5.34 KCAL/MOL
REMARK 923 INTER-LIGAND FREE ENERGY PREDICTED BY IDOCK:   -5.22 KCAL/MOL
REMARK 924 INTRA-LIGAND FREE ENERGY PREDICTED BY IDOCK:   -0.12 KCAL/MOL
REMARK 927      BINDING AFFINITY PREDICTED BY RF-SCORE:    0.00 PKD
ROOT
HETATM    1  C   UNL     1     -12.183  10.450  71.004  1.00  0.00    -0.498 C  
HETATM    2  C   UNL     1     -11.295  10.642  69.788  1.00  0.00    -0.301 C  
ENDROOT
BRANCH   2   3
HETATM    3  O   UNL     1     -12.123  11.056  68.696  1.00  0.00    -0.551 OA 
BRANCH   3   4
HETATM    4  C   UNL     1     -11.780  12.230  68.113  1.00  0.00    -0.349 C  
HETATM    5  O   UNL     1     -11.674  13.312  68.668  1.00  0.00    -0.299 OA 
BRANCH   4   6
HETATM    6  C   UNL     1     -11.442  12.000  66.682  1.00  0.00    -0.411 A  
HETATM    7  C   UNL     1     -10.433  11.076  66.377  1.00  0.00    -0.312 A  
HETATM    8  C   UNL     1     -10.122  10.791  65.046  1.00  0.00    -0.377 A  
HETATM    9  C   UNL     1     -10.827  11.425  64.027  1.00  0.00    -0.383 A  
HETATM   10  O   UNL     1     -10.554  11.182  62.714  1.00  0.00    -0.754 OA 
HETATM   11  C   UNL     1     -11.837  12.332  64.314  1.00  0.00    -0.482 A  
HETATM   12  C   UNL     1     -12.146  12.625  65.643  1.00  0.00    -0.502 A  
HETATM   13  H   UNL     1     -11.035  11.615  62.019  1.00  0.00     0.000 HD 
ENDBRANCH   4   6
ENDBRANCH   3   4
ENDBRANCH   2   3
TORSDOF 3
ENDMDL
MODEL       26
REMARK 921   NORMALIZED FREE ENERGY PREDICTED BY IDOCK:   -4.32 KCAL/MOL
REMARK 922        TOTAL FREE ENERGY PREDICTED BY IDOCK:   -5.32 KCAL/MOL
REMARK 923 INTER-LIGAND FREE ENERGY PREDICTED BY IDOCK:   -5.04 KCAL/MOL
REMARK 924 INTRA-LIGAND FREE ENERGY PREDICTED BY IDOCK:   -0.28 KCAL/MOL
REMARK 927      BINDING AFFINITY PREDICTED BY RF-SCORE:    0.00 PKD
ROOT
HETATM    1  C   UNL     1     -11.493  10.945  69.941  1.00  0.00    -0.402 C  
HETATM    2  C   UNL     1     -10.276  10.313  69.289  1.00  0.00    -0.227 C  
ENDROOT
BRANCH   2   3
HETATM    3  O   UNL     1     -10.008  11.018  68.072  1.00  0.00    -0.166 OA 
BRANCH   3   4
HETATM    4  C   UNL     1     -10.399  10.393  66.935  1.00  0.00    -0.240 C  
HETATM    5  O   UNL     1     -10.404   9.189  66.735  1.00  0.00    -0.258 OA 
BRANCH   4   6
HETATM    6  C   UNL     1     -10.931  11.393  65.971  1.00  0.00    -0.286 A  
HETATM    7  C   UNL     1     -10.508  11.322  64.635  1.00  0.00    -0.387 A  
HETATM    8  C   UNL     1     -11.025  12.206  63.688  1.00  0.00    -0.527 A  
HETATM    9  C   UNL     1     -11.968  13.154  64.078  1.00  0.00    -0.460 A  
HETATM   10  O   UNL     1     -12.494  14.042  63.188  1.00  0.00    -1.137 OA 
HETATM   11  C   UNL     1     -12.404  13.228  65.392  1.00  0.00    -0.528 A  
HETATM   12  C   UNL     1     -11.885  12.350  66.344  1.00  0.00    -0.421 A  
HETATM   13  H   UNL     1     -13.137  14.688  63.453  1.00  0.00     0.000 HD 
ENDBRANCH   4   6
ENDBRANCH   3   4
ENDBRANCH   2   3
TORSDOF 3
ENDMDL
MODEL       27
REMARK 921   NORMALIZED FREE ENERGY PREDICTED BY IDOCK:   -4.32 KCAL/MOL
REMARK 922        TOTAL FREE ENERGY PREDICTED BY IDOCK:   -5.31 KCAL/MOL
REMARK 923 INTER-LIGAND FREE ENERGY PREDICTED BY IDOCK:   -5.02 KCAL/MOL
REMARK 924 INTRA-LIGAND FREE ENERGY PREDICTED BY IDOCK:   -0.30 KCAL/MOL
REMARK 927      BINDING AFFINITY PREDICTED BY RF-SCORE:    0.00 PKD
ROOT
HETATM    1  C   UNL     1     -11.852  13.465  66.392  1.00  0.00    -0.441 C  
HETATM    2  C   UNL     1     -11.242  14.636  67.143  1.00  0.00    -0.344 C  
ENDROOT
BRANCH   2   3
HETATM    3  O   UNL     1     -10.884  14.184  68.454  1.00  0.00    -0.241 OA 
BRANCH   3   4
HETATM    4  C   UNL     1     -11.691  14.602  69.459  1.00  0.00    -0.324 C  
HETATM    5  O   UNL     1     -12.081  15.743  69.647  1.00  0.00    -0.355 OA 
BRANCH   4   6
HETATM    6  C   UNL     1     -12.131  13.434  70.267  1.00  0.00    -0.419 A  
HETATM    7  C   UNL     1     -12.917  13.670  71.405  1.00  0.00    -0.427 A  
HETATM    8  C   UNL     1     -13.396  12.599  72.160  1.00  0.00    -0.570 A  
HETATM    9  C   UNL     1     -13.094  11.296  71.771  1.00  0.00    -0.422 A  
HETATM   10  O   UNL     1     -13.536  10.221  72.482  1.00  0.00    -0.600 OA 
HETATM   11  C   UNL     1     -12.328  11.048  70.642  1.00  0.00    -0.480 A  
HETATM   12  C   UNL     1     -11.842  12.116  69.887  1.00  0.00    -0.392 A  
HETATM   13  H   UNL     1     -13.329   9.333  72.217  1.00  0.00     0.000 HD 
ENDBRANCH   4   6
ENDBRANCH   3   4
ENDBRANCH   2   3
TORSDOF 3
ENDMDL
MODEL       28
REMARK 921   NORMALIZED FREE ENERGY PREDICTED BY IDOCK:   -4.31 KCAL/MOL
REMARK 922        TOTAL FREE ENERGY PREDICTED BY IDOCK:   -5.30 KCAL/MOL
REMARK 923 INTER-LIGAND FREE ENERGY PREDICTED BY IDOCK:   -5.21 KCAL/MOL
REMARK 924 INTRA-LIGAND FREE ENERGY PREDICTED BY IDOCK:   -0.08 KCAL/MOL
REMARK 927      BINDING AFFINITY PREDICTED BY RF-SCORE:    0.00 PKD
ROOT
HETATM    1  C   UNL     1     -12.422  12.409  64.234  1.00  0.00    -0.529 C  
HETATM    2  C   UNL     1     -12.595  13.321  65.434  1.00  0.00    -0.468 C  
ENDROOT
BRANCH   2   3
HETATM    3  O   UNL     1     -11.487  13.109  66.316  1.00  0.00    -0.309 OA 
BRANCH   3   4
HETATM    4  C   UNL     1     -11.789  12.554  67.514  1.00  0.00    -0.323 C  
HETATM    5  O   UNL     1     -11.926  11.364  67.748  1.00  0.00    -0.637 OA 
BRANCH   4   6
HETATM    6  C   UNL     1     -11.835  13.612  68.559  1.00  0.00    -0.406 A  
HETATM    7  C   UNL     1     -12.114  13.232  69.880  1.00  0.00    -0.377 A  
HETATM    8  C   UNL     1     -12.113  14.185  70.899  1.00  0.00    -0.416 A  
HETATM    9  C   UNL     1     -11.827  15.514  70.595  1.00  0.00    -0.365 A  
HETATM   10  O   UNL     1     -11.821  16.479  71.556  1.00  0.00    -0.655 OA 
HETATM   11  C   UNL     1     -11.538  15.902  69.295  1.00  0.00    -0.372 A  
HETATM   12  C   UNL     1     -11.544  14.953  68.272  1.00  0.00    -0.356 A  
HETATM   13  H   UNL     1     -11.626  17.385  71.349  1.00  0.00     0.000 HD 
ENDBRANCH   4   6
ENDBRANCH   3   4
ENDBRANCH   2   3
TORSDOF 3
ENDMDL
MODEL       29
REMARK 921   NORMALIZED FREE ENERGY PREDICTED BY IDOCK:   -4.26 KCAL/MOL
REMARK 922        TOTAL FREE ENERGY PREDICTED BY IDOCK:   -5.25 KCAL/MOL
REMARK 923 INTER-LIGAND FREE ENERGY PREDICTED BY IDOCK:   -5.06 KCAL/MOL
REMARK 924 INTRA-LIGAND FREE ENERGY PREDICTED BY IDOCK:   -0.19 KCAL/MOL
REMARK 927      BINDING AFFINITY PREDICTED BY RF-SCORE:    0.00 PKD
ROOT
HETATM    1  C   UNL     1     -11.894  12.579  65.659  1.00  0.00    -0.493 C  
HETATM    2  C   UNL     1     -11.279  11.640  66.681  1.00  0.00    -0.299 C  
ENDROOT
BRANCH   2   3
HETATM    3  O   UNL     1     -12.101  11.663  67.854  1.00  0.00    -0.613 OA 
BRANCH   3   4
HETATM    4  C   UNL     1     -11.466  11.391  69.020  1.00  0.00    -0.300 C  
HETATM    5  O   UNL     1     -10.517  10.639  69.169  1.00  0.00    -0.199 OA 
BRANCH   4   6
HETATM    6  C   UNL     1     -12.034  12.232  70.108  1.00  0.00    -0.377 A  
HETATM    7  C   UNL     1     -11.931  13.626  69.995  1.00  0.00    -0.413 A  
HETATM    8  C   UNL     1     -12.497  14.452  70.966  1.00  0.00    -0.425 A  
HETATM    9  C   UNL     1     -13.170  13.882  72.043  1.00  0.00    -0.416 A  
HETATM   10  O   UNL     1     -13.733  14.649  73.018  1.00  0.00    -0.555 OA 
HETATM   11  C   UNL     1     -13.291  12.505  72.162  1.00  0.00    -0.540 A  
HETATM   12  C   UNL     1     -12.721  11.675  71.195  1.00  0.00    -0.426 A  
HETATM   13  H   UNL     1     -14.193  14.260  73.753  1.00  0.00     0.000 HD 
ENDBRANCH   4   6
ENDBRANCH   3   4
ENDBRANCH   2   3
TORSDOF 3
ENDMDL
MODEL       30
REMARK 921   NORMALIZED FREE ENERGY PREDICTED BY IDOCK:   -4.25 KCAL/MOL
REMARK 922        TOTAL FREE ENERGY PREDICTED BY IDOCK:   -5.23 KCAL/MOL
REMARK 923 INTER-LIGAND FREE ENERGY PREDICTED BY IDOCK:   -4.94 KCAL/MOL
REMARK 924 INTRA-LIGAND FREE ENERGY PREDICTED BY IDOCK:   -0.29 KCAL/MOL
REMARK 927      BINDING AFFINITY PREDICTED BY RF-SCORE:    0.00 PKD
ROOT
HETATM    1  C   UNL     1     -13.757  13.353  72.321  1.00  0.00    -0.705 C  
HETATM    2  C   UNL     1     -14.018  14.849  72.298  1.00  0.00    -0.499 C  
ENDROOT
BRANCH   2   3
HETATM    3  O   UNL     1     -13.643  15.344  71.007  1.00  0.00    -0.480 OA 
BRANCH   3   4
HETATM    4  C   UNL     1     -12.344  15.703  70.872  1.00  0.00    -0.429 C  
HETATM    5  O   UNL     1     -11.633  16.189  71.737  1.00  0.00    -0.459 OA 
BRANCH   4   6
HETATM    6  C   UNL     1     -11.857  15.323  69.519  1.00  0.00    -0.368 A  
HETATM    7  C   UNL     1     -11.220  16.301  68.741  1.00  0.00    -0.343 A  
HETATM    8  C   UNL     1     -10.701  15.972  67.488  1.00  0.00    -0.314 A  
HETATM    9  C   UNL     1     -10.814  14.664  67.021  1.00  0.00    -0.304 A  
HETATM   10  O   UNL     1     -10.328  14.300  65.802  1.00  0.00    -0.299 OA 
HETATM   11  C   UNL     1     -11.431  13.684  67.785  1.00  0.00    -0.351 A  
HETATM   12  C   UNL     1     -11.957  14.011  69.035  1.00  0.00    -0.392 A  
HETATM   13  H   UNL     1     -10.405  13.408  65.483  1.00  0.00     0.000 HD 
ENDBRANCH   4   6
ENDBRANCH   3   4
ENDBRANCH   2   3
TORSDOF 3
ENDMDL
MODEL       31
REMARK 921   NORMALIZED FREE ENERGY PREDICTED BY IDOCK:   -4.24 KCAL/MOL
REMARK 922        TOTAL FREE ENERGY PREDICTED BY IDOCK:   -5.22 KCAL/MOL
REMARK 923 INTER-LIGAND FREE ENERGY PREDICTED BY IDOCK:   -5.05 KCAL/MOL
REMARK 924 INTRA-LIGAND FREE ENERGY PREDICTED BY IDOCK:   -0.16 KCAL/MOL
REMARK 927      BINDING AFFINITY PREDICTED BY RF-SCORE:    0.00 PKD
ROOT
HETATM    1  C   UNL     1     -10.105  10.832  65.880  1.00  0.00    -0.314 C  
HETATM    2  C   UNL     1     -10.828  11.359  67.106  1.00  0.00    -0.268 C  
ENDROOT
BRANCH   2   3
HETATM    3  O   UNL     1     -11.147  10.245  67.947  1.00  0.00    -0.291 OA 
BRANCH   3   4
HETATM    4  C   UNL     1     -10.510  10.211  69.143  1.00  0.00    -0.222 C  
HETATM    5  O   UNL     1      -9.339  10.486  69.348  1.00  0.00    -0.190 OA 
BRANCH   4   6
HETATM    6  C   UNL     1     -11.483   9.883  70.220  1.00  0.00    -0.349 A  
HETATM    7  C   UNL     1     -11.518   8.570  70.708  1.00  0.00    -0.281 A  
HETATM    8  C   UNL     1     -12.378   8.233  71.755  1.00  0.00    -0.366 A  
HETATM    9  C   UNL     1     -13.193   9.214  72.314  1.00  0.00    -0.461 A  
HETATM   10  O   UNL     1     -14.052   8.929  73.333  1.00  0.00    -1.256 OA 
HETATM   11  C   UNL     1     -13.160  10.520  71.849  1.00  0.00    -0.567 A  
HETATM   12  C   UNL     1     -12.306  10.859  70.798  1.00  0.00    -0.487 A  
HETATM   13  H   UNL     1     -14.608   9.598  73.714  1.00  0.00     0.000 HD 
ENDBRANCH   4   6
ENDBRANCH   3   4
ENDBRANCH   2   3
TORSDOF 3
ENDMDL
MODEL       32
REMARK 921   NORMALIZED FREE ENERGY PREDICTED BY IDOCK:   -4.24 KCAL/MOL
REMARK 922        TOTAL FREE ENERGY PREDICTED BY IDOCK:   -5.21 KCAL/MOL
REMARK 923 INTER-LIGAND FREE ENERGY PREDICTED BY IDOCK:   -5.06 KCAL/MOL
REMARK 924 INTRA-LIGAND FREE ENERGY PREDICTED BY IDOCK:   -0.15 KCAL/MOL
REMARK 927      BINDING AFFINITY PREDICTED BY RF-SCORE:    0.00 PKD
ROOT
HETATM    1  C   UNL     1     -11.462  13.726  67.285  1.00  0.00    -0.367 C  
HETATM    2  C   UNL     1     -10.679  14.596  66.318  1.00  0.00    -0.316 C  
ENDROOT
BRANCH   2   3
HETATM    3  O   UNL     1     -11.028  15.962  66.568  1.00  0.00    -0.252 OA 
BRANCH   3   4
HETATM    4  C   UNL     1     -10.785  16.824  65.552  1.00  0.00    -0.196 C  
HETATM    5  O   UNL     1     -11.199  16.731  64.408  1.00  0.00    -1.112 OA 
BRANCH   4   6
HETATM    6  C   UNL     1     -10.005  17.986  66.056  1.00  0.00    -0.221 A  
HETATM    7  C   UNL     1      -8.641  17.806  66.328  1.00  0.00    -0.217 A  
HETATM    8  C   UNL     1      -7.862  18.884  66.752  1.00  0.00    -0.262 A  
HETATM    9  C   UNL     1      -8.448  20.139  66.895  1.00  0.00    -0.314 A  
HETATM   10  O   UNL     1      -7.728  21.218  67.311  1.00  0.00    -0.691 OA 
HETATM   11  C   UNL     1      -9.793  20.335  66.617  1.00  0.00    -0.562 A  
HETATM   12  C   UNL     1     -10.577  19.258  66.200  1.00  0.00    -0.549 A  
HETATM   13  H   UNL     1      -8.127  22.074  67.408  1.00  0.00     0.000 HD 
ENDBRANCH   4   6
ENDBRANCH   3   4
ENDBRANCH   2   3
TORSDOF 3
ENDMDL
MODEL       33
REMARK 921   NORMALIZED FREE ENERGY PREDICTED BY IDOCK:   -4.23 KCAL/MOL
REMARK 922        TOTAL FREE ENERGY PREDICTED BY IDOCK:   -5.21 KCAL/MOL
REMARK 923 INTER-LIGAND FREE ENERGY PREDICTED BY IDOCK:   -4.98 KCAL/MOL
REMARK 924 INTRA-LIGAND FREE ENERGY PREDICTED BY IDOCK:   -0.22 KCAL/MOL
REMARK 927      BINDING AFFINITY PREDICTED BY RF-SCORE:    0.00 PKD
ROOT
HETATM    1  C   UNL     1     -11.922  12.697  66.234  1.00  0.00    -0.439 C  
HETATM    2  C   UNL     1     -11.197  11.731  67.153  1.00  0.00    -0.316 C  
ENDROOT
BRANCH   2   3
HETATM    3  O   UNL     1     -12.094  11.365  68.208  1.00  0.00    -0.606 OA 
BRANCH   3   4
HETATM    4  C   UNL     1     -11.549  11.310  69.447  1.00  0.00    -0.321 C  
HETATM    5  O   UNL     1     -10.589  10.637  69.788  1.00  0.00    -0.238 OA 
BRANCH   4   6
HETATM    6  C   UNL     1     -12.234  12.283  70.340  1.00  0.00    -0.371 A  
HETATM    7  C   UNL     1     -12.865  11.799  71.495  1.00  0.00    -0.450 A  
HETATM    8  C   UNL     1     -13.472  12.685  72.386  1.00  0.00    -0.450 A  
HETATM    9  C   UNL     1     -13.439  14.052  72.123  1.00  0.00    -0.475 A  
HETATM   10  O   UNL     1     -14.024  14.952  72.962  1.00  0.00    -0.489 OA 
HETATM   11  C   UNL     1     -12.808  14.546  70.991  1.00  0.00    -0.418 A  
HETATM   12  C   UNL     1     -12.205  13.663  70.094  1.00  0.00    -0.413 A  
HETATM   13  H   UNL     1     -14.002  15.884  72.782  1.00  0.00     0.000 HD 
ENDBRANCH   4   6
ENDBRANCH   3   4
ENDBRANCH   2   3
TORSDOF 3
ENDMDL
MODEL       34
REMARK 921   NORMALIZED FREE ENERGY PREDICTED BY IDOCK:   -4.23 KCAL/MOL
REMARK 922        TOTAL FREE ENERGY PREDICTED BY IDOCK:   -5.20 KCAL/MOL
REMARK 923 INTER-LIGAND FREE ENERGY PREDICTED BY IDOCK:   -4.94 KCAL/MOL
REMARK 924 INTRA-LIGAND FREE ENERGY PREDICTED BY IDOCK:   -0.26 KCAL/MOL
REMARK 927      BINDING AFFINITY PREDICTED BY RF-SCORE:    0.00 PKD
ROOT
HETATM    1  C   UNL     1      -9.494  16.117  66.589  1.00  0.00    -0.269 C  
HETATM    2  C   UNL     1     -10.613  16.119  65.563  1.00  0.00    -0.377 C  
ENDROOT
BRANCH   2   3
HETATM    3  O   UNL     1     -11.470  15.004  65.839  1.00  0.00    -0.321 OA 
BRANCH   3   4
HETATM    4  C   UNL     1     -11.843  14.271  64.763  1.00  0.00    -0.429 C  
HETATM    5  O   UNL     1     -12.555  14.644  63.844  1.00  0.00    -0.834 OA 
BRANCH   4   6
HETATM    6  C   UNL     1     -11.167  12.947  64.799  1.00  0.00    -0.336 A  
HETATM    7  C   UNL     1     -11.092  12.270  66.025  1.00  0.00    -0.347 A  
HETATM    8  C   UNL     1     -10.515  11.002  66.093  1.00  0.00    -0.301 A  
HETATM    9  C   UNL     1     -10.020  10.411  64.933  1.00  0.00    -0.339 A  
HETATM   10  O   UNL     1      -9.443   9.177  64.953  1.00  0.00    -0.453 OA 
HETATM   11  C   UNL     1     -10.098  11.063  63.711  1.00  0.00    -0.420 A  
HETATM   12  C   UNL     1     -10.670  12.335  63.640  1.00  0.00    -0.513 A  
HETATM   13  H   UNL     1      -9.106   8.774  64.162  1.00  0.00     0.000 HD 
ENDBRANCH   4   6
ENDBRANCH   3   4
ENDBRANCH   2   3
TORSDOF 3
ENDMDL
MODEL       35
REMARK 921   NORMALIZED FREE ENERGY PREDICTED BY IDOCK:   -4.22 KCAL/MOL
REMARK 922        TOTAL FREE ENERGY PREDICTED BY IDOCK:   -5.19 KCAL/MOL
REMARK 923 INTER-LIGAND FREE ENERGY PREDICTED BY IDOCK:   -4.91 KCAL/MOL
REMARK 924 INTRA-LIGAND FREE ENERGY PREDICTED BY IDOCK:   -0.28 KCAL/MOL
REMARK 927      BINDING AFFINITY PREDICTED BY RF-SCORE:    0.00 PKD
ROOT
HETATM    1  C   UNL     1     -10.059   8.331  67.059  1.00  0.00    -0.353 C  
HETATM    2  C   UNL     1      -9.028   9.081  67.883  1.00  0.00    -0.132 C  
ENDROOT
BRANCH   2   3
HETATM    3  O   UNL     1      -9.530   9.199  69.220  1.00  0.00    -0.153 OA 
BRANCH   3   4
HETATM    4  C   UNL     1     -10.318  10.275  69.456  1.00  0.00    -0.242 C  
HETATM    5  O   UNL     1     -10.262  11.354  68.889  1.00  0.00    -0.207 OA 
BRANCH   4   6
HETATM    6  C   UNL     1     -11.359   9.923  70.460  1.00  0.00    -0.399 A  
HETATM    7  C   UNL     1     -11.316   8.650  71.046  1.00  0.00    -0.322 A  
HETATM    8  C   UNL     1     -12.240   8.299  72.030  1.00  0.00    -0.398 A  
HETATM    9  C   UNL     1     -13.200   9.226  72.430  1.00  0.00    -0.426 A  
HETATM   10  O   UNL     1     -14.126   8.925  73.383  1.00  0.00    -1.256 OA 
HETATM   11  C   UNL     1     -13.247  10.493  71.868  1.00  0.00    -0.526 A  
HETATM   12  C   UNL     1     -12.328  10.845  70.878  1.00  0.00    -0.501 A  
HETATM   13  H   UNL     1     -14.781   9.556  73.656  1.00  0.00     0.000 HD 
ENDBRANCH   4   6
ENDBRANCH   3   4
ENDBRANCH   2   3
TORSDOF 3
ENDMDL
MODEL       36
REMARK 921   NORMALIZED FREE ENERGY PREDICTED BY IDOCK:   -4.22 KCAL/MOL
REMARK 922        TOTAL FREE ENERGY PREDICTED BY IDOCK:   -5.19 KCAL/MOL
REMARK 923 INTER-LIGAND FREE ENERGY PREDICTED BY IDOCK:   -4.86 KCAL/MOL
REMARK 924 INTRA-LIGAND FREE ENERGY PREDICTED BY IDOCK:   -0.33 KCAL/MOL
REMARK 927      BINDING AFFINITY PREDICTED BY RF-SCORE:    0.00 PKD
ROOT
HETATM    1  C   UNL     1      -8.898  15.408  66.602  1.00  0.00    -0.330 C  
HETATM    2  C   UNL     1      -9.954  15.086  65.560  1.00  0.00    -0.356 C  
ENDROOT
BRANCH   2   3
HETATM    3  O   UNL     1     -11.241  15.268  66.162  1.00  0.00    -0.318 OA 
BRANCH   3   4
HETATM    4  C   UNL     1     -12.081  14.209  66.081  1.00  0.00    -0.435 C  
HETATM    5  O   UNL     1     -12.824  13.943  65.150  1.00  0.00    -0.695 OA 
BRANCH   4   6
HETATM    6  C   UNL     1     -11.899  13.332  67.268  1.00  0.00    -0.421 A  
HETATM    7  C   UNL     1     -11.519  11.998  67.060  1.00  0.00    -0.402 A  
HETATM    8  C   UNL     1     -11.285  11.157  68.148  1.00  0.00    -0.356 A  
HETATM    9  C   UNL     1     -11.424  11.655  69.442  1.00  0.00    -0.307 A  
HETATM   10  O   UNL     1     -11.212  10.868  70.534  1.00  0.00    -0.449 OA 
HETATM   11  C   UNL     1     -11.787  12.975  69.663  1.00  0.00    -0.385 A  
HETATM   12  C   UNL     1     -12.028  13.818  68.577  1.00  0.00    -0.402 A  
HETATM   13  H   UNL     1     -11.307  11.207  71.415  1.00  0.00     0.000 HD 
ENDBRANCH   4   6
ENDBRANCH   3   4
ENDBRANCH   2   3
TORSDOF 3
ENDMDL
MODEL       37
REMARK 921   NORMALIZED FREE ENERGY PREDICTED BY IDOCK:   -4.21 KCAL/MOL
REMARK 922        TOTAL FREE ENERGY PREDICTED BY IDOCK:   -5.18 KCAL/MOL
REMARK 923 INTER-LIGAND FREE ENERGY PREDICTED BY IDOCK:   -5.02 KCAL/MOL
REMARK 924 INTRA-LIGAND FREE ENERGY PREDICTED BY IDOCK:   -0.16 KCAL/MOL
REMARK 927      BINDING AFFINITY PREDICTED BY RF-SCORE:    0.00 PKD
ROOT
HETATM    1  C   UNL     1     -10.292  18.093  68.376  1.00  0.00    -0.371 C  
HETATM    2  C   UNL     1      -9.699  17.537  67.094  1.00  0.00    -0.279 C  
ENDROOT
BRANCH   2   3
HETATM    3  O   UNL     1     -10.469  16.392  66.710  1.00  0.00    -0.292 OA 
BRANCH   3   4
HETATM    4  C   UNL     1     -10.959  16.413  65.447  1.00  0.00    -0.160 C  
HETATM    5  O   UNL     1     -11.209  17.405  64.783  1.00  0.00    -0.895 OA 
BRANCH   4   6
HETATM    6  C   UNL     1     -11.061  15.023  64.926  1.00  0.00    -0.425 A  
HETATM    7  C   UNL     1     -12.273  14.613  64.353  1.00  0.00    -0.473 A  
HETATM    8  C   UNL     1     -12.394  13.336  63.803  1.00  0.00    -0.440 A  
HETATM    9  C   UNL     1     -11.299  12.476  63.823  1.00  0.00    -0.466 A  
HETATM   10  O   UNL     1     -11.372  11.218  63.304  1.00  0.00    -0.804 OA 
HETATM   11  C   UNL     1     -10.090  12.872  64.376  1.00  0.00    -0.265 A  
HETATM   12  C   UNL     1      -9.967  14.146  64.932  1.00  0.00    -0.151 A  
HETATM   13  H   UNL     1     -10.626  10.631  63.318  1.00  0.00     0.000 HD 
ENDBRANCH   4   6
ENDBRANCH   3   4
ENDBRANCH   2   3
TORSDOF 3
ENDMDL
MODEL       38
REMARK 921   NORMALIZED FREE ENERGY PREDICTED BY IDOCK:   -4.20 KCAL/MOL
REMARK 922        TOTAL FREE ENERGY PREDICTED BY IDOCK:   -5.17 KCAL/MOL
REMARK 923 INTER-LIGAND FREE ENERGY PREDICTED BY IDOCK:   -5.01 KCAL/MOL
REMARK 924 INTRA-LIGAND FREE ENERGY PREDICTED BY IDOCK:   -0.16 KCAL/MOL
REMARK 927      BINDING AFFINITY PREDICTED BY RF-SCORE:    0.00 PKD
ROOT
HETATM    1  C   UNL     1      -9.573  19.178  68.586  1.00  0.00    -0.471 C  
HETATM    2  C   UNL     1      -9.445  17.667  68.655  1.00  0.00    -0.284 C  
ENDROOT
BRANCH   2   3
HETATM    3  O   UNL     1     -10.683  17.097  68.217  1.00  0.00    -0.366 OA 
BRANCH   3   4
HETATM    4  C   UNL     1     -10.756  15.745  68.269  1.00  0.00    -0.281 C  
HETATM    5  O   UNL     1     -10.526  15.044  69.241  1.00  0.00    -0.235 OA 
BRANCH   4   6
HETATM    6  C   UNL     1     -11.266  15.220  66.974  1.00  0.00    -0.275 A  
HETATM    7  C   UNL     1     -10.786  15.792  65.787  1.00  0.00    -0.337 A  
HETATM    8  C   UNL     1     -11.198  15.293  64.551  1.00  0.00    -0.291 A  
HETATM    9  C   UNL     1     -12.083  14.219  64.506  1.00  0.00    -0.480 A  
HETATM   10  O   UNL     1     -12.517  13.704  63.322  1.00  0.00    -0.992 OA 
HETATM   11  C   UNL     1     -12.557  13.636  65.671  1.00  0.00    -0.531 A  
HETATM   12  C   UNL     1     -12.153  14.136  66.910  1.00  0.00    -0.466 A  
HETATM   13  H   UNL     1     -13.121  12.971  63.290  1.00  0.00     0.000 HD 
ENDBRANCH   4   6
ENDBRANCH   3   4
ENDBRANCH   2   3
TORSDOF 3
ENDMDL
MODEL       39
REMARK 921   NORMALIZED FREE ENERGY PREDICTED BY IDOCK:   -4.20 KCAL/MOL
REMARK 922        TOTAL FREE ENERGY PREDICTED BY IDOCK:   -5.17 KCAL/MOL
REMARK 923 INTER-LIGAND FREE ENERGY PREDICTED BY IDOCK:   -5.02 KCAL/MOL
REMARK 924 INTRA-LIGAND FREE ENERGY PREDICTED BY IDOCK:   -0.15 KCAL/MOL
REMARK 927      BINDING AFFINITY PREDICTED BY RF-SCORE:    0.00 PKD
ROOT
HETATM    1  C   UNL     1     -12.229   9.388  71.714  1.00  0.00    -0.465 C  
HETATM    2  C   UNL     1     -13.256  10.501  71.820  1.00  0.00    -0.417 C  
ENDROOT
BRANCH   2   3
HETATM    3  O   UNL     1     -12.669  11.697  71.295  1.00  0.00    -0.393 OA 
BRANCH   3   4
HETATM    4  C   UNL     1     -13.188  12.858  71.761  1.00  0.00    -0.384 C  
HETATM    5  O   UNL     1     -13.998  12.978  72.667  1.00  0.00    -0.657 OA 
BRANCH   4   6
HETATM    6  C   UNL     1     -12.545  14.008  71.071  1.00  0.00    -0.437 A  
HETATM    7  C   UNL     1     -12.189  15.129  71.834  1.00  0.00    -0.431 A  
HETATM    8  C   UNL     1     -11.535  16.206  71.234  1.00  0.00    -0.433 A  
HETATM    9  C   UNL     1     -11.234  16.156  69.876  1.00  0.00    -0.349 A  
HETATM   10  O   UNL     1     -10.602  17.187  69.248  1.00  0.00    -0.326 OA 
HETATM   11  C   UNL     1     -11.570  15.048  69.111  1.00  0.00    -0.333 A  
HETATM   12  C   UNL     1     -12.229  13.971  69.705  1.00  0.00    -0.396 A  
HETATM   13  H   UNL     1     -10.397  17.153  68.321  1.00  0.00     0.000 HD 
ENDBRANCH   4   6
ENDBRANCH   3   4
ENDBRANCH   2   3
TORSDOF 3
ENDMDL
MODEL       40
REMARK 921   NORMALIZED FREE ENERGY PREDICTED BY IDOCK:   -4.18 KCAL/MOL
REMARK 922        TOTAL FREE ENERGY PREDICTED BY IDOCK:   -5.14 KCAL/MOL
REMARK 923 INTER-LIGAND FREE ENERGY PREDICTED BY IDOCK:   -4.97 KCAL/MOL
REMARK 924 INTRA-LIGAND FREE ENERGY PREDICTED BY IDOCK:   -0.18 KCAL/MOL
REMARK 927      BINDING AFFINITY PREDICTED BY RF-SCORE:    0.00 PKD
ROOT
HETATM    1  C   UNL     1     -11.185  12.095  63.207  1.00  0.00    -0.409 C  
HETATM    2  C   UNL     1     -12.580  11.846  63.751  1.00  0.00    -0.396 C  
ENDROOT
BRANCH   2   3
HETATM    3  O   UNL     1     -12.936  12.956  64.583  1.00  0.00    -0.734 OA 
BRANCH   3   4
HETATM    4  C   UNL     1     -12.274  13.040  65.763  1.00  0.00    -0.453 C  
HETATM    5  O   UNL     1     -12.124  12.142  66.575  1.00  0.00    -0.627 OA 
BRANCH   4   6
HETATM    6  C   UNL     1     -11.651  14.385  65.893  1.00  0.00    -0.361 A  
HETATM    7  C   UNL     1     -11.198  14.789  67.157  1.00  0.00    -0.346 A  
HETATM    8  C   UNL     1     -10.559  16.020  67.313  1.00  0.00    -0.313 A  
HETATM    9  C   UNL     1     -10.368  16.838  66.202  1.00  0.00    -0.330 A  
HETATM   10  O   UNL     1      -9.755  18.050  66.308  1.00  0.00    -0.368 OA 
HETATM   11  C   UNL     1     -10.800  16.446  64.944  1.00  0.00    -0.268 A  
HETATM   12  C   UNL     1     -11.445  15.218  64.785  1.00  0.00    -0.364 A  
HETATM   13  H   UNL     1      -9.625  18.608  65.551  1.00  0.00     0.000 HD 
ENDBRANCH   4   6
ENDBRANCH   3   4
ENDBRANCH   2   3
TORSDOF 3
ENDMDL
MODEL       41
REMARK 921   NORMALIZED FREE ENERGY PREDICTED BY IDOCK:   -4.18 KCAL/MOL
REMARK 922        TOTAL FREE ENERGY PREDICTED BY IDOCK:   -5.14 KCAL/MOL
REMARK 923 INTER-LIGAND FREE ENERGY PREDICTED BY IDOCK:   -4.94 KCAL/MOL
REMARK 924 INTRA-LIGAND FREE ENERGY PREDICTED BY IDOCK:   -0.20 KCAL/MOL
REMARK 927      BINDING AFFINITY PREDICTED BY RF-SCORE:    0.00 PKD
ROOT
HETATM    1  C   UNL     1     -11.248   9.772  70.178  1.00  0.00    -0.324 C  
HETATM    2  C   UNL     1     -10.152  10.440  69.368  1.00  0.00    -0.229 C  
ENDROOT
BRANCH   2   3
HETATM    3  O   UNL     1     -10.766  11.115  68.264  1.00  0.00    -0.174 OA 
BRANCH   3   4
HETATM    4  C   UNL     1     -10.469  10.622  67.037  1.00  0.00    -0.243 C  
HETATM    5  O   UNL     1      -9.904   9.567  66.798  1.00  0.00    -0.187 OA 
BRANCH   4   6
HETATM    6  C   UNL     1     -11.030  11.516  65.988  1.00  0.00    -0.316 A  
HETATM    7  C   UNL     1     -11.814  12.606  66.392  1.00  0.00    -0.466 A  
HETATM    8  C   UNL     1     -12.315  13.499  65.444  1.00  0.00    -0.517 A  
HETATM    9  C   UNL     1     -12.023  13.302  64.096  1.00  0.00    -0.447 A  
HETATM   10  O   UNL     1     -12.495  14.145  63.135  1.00  0.00    -1.126 OA 
HETATM   11  C   UNL     1     -11.239  12.235  63.684  1.00  0.00    -0.539 A  
HETATM   12  C   UNL     1     -10.741  11.336  64.628  1.00  0.00    -0.371 A  
HETATM   13  H   UNL     1     -12.297  14.012  62.217  1.00  0.00     0.000 HD 
ENDBRANCH   4   6
ENDBRANCH   3   4
ENDBRANCH   2   3
TORSDOF 3
ENDMDL
MODEL       42
REMARK 921   NORMALIZED FREE ENERGY PREDICTED BY IDOCK:   -4.16 KCAL/MOL
REMARK 922        TOTAL FREE ENERGY PREDICTED BY IDOCK:   -5.12 KCAL/MOL
REMARK 923 INTER-LIGAND FREE ENERGY PREDICTED BY IDOCK:   -4.87 KCAL/MOL
REMARK 924 INTRA-LIGAND FREE ENERGY PREDICTED BY IDOCK:   -0.25 KCAL/MOL
REMARK 927      BINDING AFFINITY PREDICTED BY RF-SCORE:    0.00 PKD
ROOT
HETATM    1  C   UNL     1     -10.183  14.524  68.257  1.00  0.00    -0.234 C  
HETATM    2  C   UNL     1     -11.217  15.037  67.271  1.00  0.00    -0.338 C  
ENDROOT
BRANCH   2   3
HETATM    3  O   UNL     1     -12.174  13.994  67.050  1.00  0.00    -0.430 OA 
BRANCH   3   4
HETATM    4  C   UNL     1     -12.432  13.702  65.752  1.00  0.00    -0.477 C  
HETATM    5  O   UNL     1     -13.156  14.331  64.998  1.00  0.00    -0.682 OA 
BRANCH   4   6
HETATM    6  C   UNL     1     -11.613  12.534  65.329  1.00  0.00    -0.406 A  
HETATM    7  C   UNL     1     -11.275  12.413  63.974  1.00  0.00    -0.458 A  
HETATM    8  C   UNL     1     -10.463  11.363  63.544  1.00  0.00    -0.477 A  
HETATM    9  C   UNL     1      -9.986  10.441  64.472  1.00  0.00    -0.331 A  
HETATM   10  O   UNL     1      -9.195   9.397  64.097  1.00  0.00    -0.422 OA 
HETATM   11  C   UNL     1     -10.301  10.556  65.818  1.00  0.00    -0.270 A  
HETATM   12  C   UNL     1     -11.118  11.601  66.251  1.00  0.00    -0.345 A  
HETATM   13  H   UNL     1      -8.870   8.769  64.730  1.00  0.00     0.000 HD 
ENDBRANCH   4   6
ENDBRANCH   3   4
ENDBRANCH   2   3
TORSDOF 3
ENDMDL
MODEL       43
REMARK 921   NORMALIZED FREE ENERGY PREDICTED BY IDOCK:   -4.15 KCAL/MOL
REMARK 922        TOTAL FREE ENERGY PREDICTED BY IDOCK:   -5.11 KCAL/MOL
REMARK 923 INTER-LIGAND FREE ENERGY PREDICTED BY IDOCK:   -4.90 KCAL/MOL
REMARK 924 INTRA-LIGAND FREE ENERGY PREDICTED BY IDOCK:   -0.22 KCAL/MOL
REMARK 927      BINDING AFFINITY PREDICTED BY RF-SCORE:    0.00 PKD
ROOT
HETATM    1  C   UNL     1     -10.667   7.738  67.389  1.00  0.00    -0.300 C  
HETATM    2  C   UNL     1      -9.879   8.968  67.801  1.00  0.00    -0.168 C  
ENDROOT
BRANCH   2   3
HETATM    3  O   UNL     1     -10.228  10.037  66.913  1.00  0.00    -0.216 OA 
BRANCH   3   4
HETATM    4  C   UNL     1     -11.082  10.960  67.416  1.00  0.00    -0.307 C  
HETATM    5  O   UNL     1     -11.483  11.026  68.567  1.00  0.00    -0.263 OA 
BRANCH   4   6
HETATM    6  C   UNL     1     -11.397  11.973  66.373  1.00  0.00    -0.411 A  
HETATM    7  C   UNL     1     -10.984  11.724  65.056  1.00  0.00    -0.357 A  
HETATM    8  C   UNL     1     -11.305  12.622  64.038  1.00  0.00    -0.466 A  
HETATM    9  C   UNL     1     -12.046  13.762  64.339  1.00  0.00    -0.436 A  
HETATM   10  O   UNL     1     -12.378  14.669  63.378  1.00  0.00    -1.032 OA 
HETATM   11  C   UNL     1     -12.472  14.015  65.634  1.00  0.00    -0.531 A  
HETATM   12  C   UNL     1     -12.147  13.123  66.657  1.00  0.00    -0.409 A  
HETATM   13  H   UNL     1     -12.883  15.447  63.583  1.00  0.00     0.000 HD 
ENDBRANCH   4   6
ENDBRANCH   3   4
ENDBRANCH   2   3
TORSDOF 3
ENDMDL
MODEL       44
REMARK 921   NORMALIZED FREE ENERGY PREDICTED BY IDOCK:   -4.14 KCAL/MOL
REMARK 922        TOTAL FREE ENERGY PREDICTED BY IDOCK:   -5.10 KCAL/MOL
REMARK 923 INTER-LIGAND FREE ENERGY PREDICTED BY IDOCK:   -4.85 KCAL/MOL
REMARK 924 INTRA-LIGAND FREE ENERGY PREDICTED BY IDOCK:   -0.25 KCAL/MOL
REMARK 927      BINDING AFFINITY PREDICTED BY RF-SCORE:    0.00 PKD
ROOT
HETATM    1  C   UNL     1     -10.024   8.300  67.038  1.00  0.00    -0.325 C  
HETATM    2  C   UNL     1      -9.036   9.066  67.899  1.00  0.00    -0.135 C  
ENDROOT
BRANCH   2   3
HETATM    3  O   UNL     1      -9.580   9.162  69.221  1.00  0.00    -0.155 OA 
BRANCH   3   4
HETATM    4  C   UNL     1     -10.390  10.225  69.445  1.00  0.00    -0.235 C  
HETATM    5  O   UNL     1     -10.401  11.272  68.818  1.00  0.00    -0.195 OA 
BRANCH   4   6
HETATM    6  C   UNL     1     -11.360   9.897  70.524  1.00  0.00    -0.399 A  
HETATM    7  C   UNL     1     -12.313  10.863  70.879  1.00  0.00    -0.501 A  
HETATM    8  C   UNL     1     -13.275  10.576  71.848  1.00  0.00    -0.526 A  
HETATM    9  C   UNL     1     -13.286   9.322  72.453  1.00  0.00    -0.426 A  
HETATM   10  O   UNL     1     -14.203   9.000  73.408  1.00  0.00    -1.202 OA 
HETATM   11  C   UNL     1     -12.357   8.353  72.102  1.00  0.00    -0.426 A  
HETATM   12  C   UNL     1     -11.390   8.638  71.138  1.00  0.00    -0.329 A  
HETATM   13  H   UNL     1     -14.210   8.145  73.821  1.00  0.00     0.000 HD 
ENDBRANCH   4   6
ENDBRANCH   3   4
ENDBRANCH   2   3
TORSDOF 3
ENDMDL
MODEL       45
REMARK 921   NORMALIZED FREE ENERGY PREDICTED BY IDOCK:   -4.14 KCAL/MOL
REMARK 922        TOTAL FREE ENERGY PREDICTED BY IDOCK:   -5.10 KCAL/MOL
REMARK 923 INTER-LIGAND FREE ENERGY PREDICTED BY IDOCK:   -4.93 KCAL/MOL
REMARK 924 INTRA-LIGAND FREE ENERGY PREDICTED BY IDOCK:   -0.17 KCAL/MOL
REMARK 927      BINDING AFFINITY PREDICTED BY RF-SCORE:    0.00 PKD
ROOT
HETATM    1  C   UNL     1     -13.022  15.494  71.219  1.00  0.00    -0.565 C  
HETATM    2  C   UNL     1     -12.025  14.351  71.183  1.00  0.00    -0.316 C  
ENDROOT
BRANCH   2   3
HETATM    3  O   UNL     1     -12.753  13.132  70.998  1.00  0.00    -0.337 OA 
BRANCH   3   4
HETATM    4  C   UNL     1     -12.151  12.202  70.218  1.00  0.00    -0.302 C  
HETATM    5  O   UNL     1     -11.637  12.394  69.128  1.00  0.00    -0.274 OA 
BRANCH   4   6
HETATM    6  C   UNL     1     -12.111  10.898  70.933  1.00  0.00    -0.455 A  
HETATM    7  C   UNL     1     -13.208  10.541  71.730  1.00  0.00    -0.522 A  
HETATM    8  C   UNL     1     -13.233   9.303  72.374  1.00  0.00    -0.501 A  
HETATM    9  C   UNL     1     -12.164   8.425  72.214  1.00  0.00    -0.387 A  
HETATM   10  O   UNL     1     -12.143   7.209  72.829  1.00  0.00    -0.507 OA 
HETATM   11  C   UNL     1     -11.078   8.760  71.419  1.00  0.00    -0.361 A  
HETATM   12  C   UNL     1     -11.046   9.999  70.777  1.00  0.00    -0.407 A  
HETATM   13  H   UNL     1     -11.415   6.610  72.719  1.00  0.00     0.000 HD 
ENDBRANCH   4   6
ENDBRANCH   3   4
ENDBRANCH   2   3
TORSDOF 3
ENDMDL
MODEL       46
REMARK 921   NORMALIZED FREE ENERGY PREDICTED BY IDOCK:   -4.13 KCAL/MOL
REMARK 922        TOTAL FREE ENERGY PREDICTED BY IDOCK:   -5.09 KCAL/MOL
REMARK 923 INTER-LIGAND FREE ENERGY PREDICTED BY IDOCK:   -4.84 KCAL/MOL
REMARK 924 INTRA-LIGAND FREE ENERGY PREDICTED BY IDOCK:   -0.26 KCAL/MOL
REMARK 927      BINDING AFFINITY PREDICTED BY RF-SCORE:    0.00 PKD
ROOT
HETATM    1  C   UNL     1     -10.309   7.779  66.946  1.00  0.00    -0.396 C  
HETATM    2  C   UNL     1      -9.761   8.902  67.808  1.00  0.00    -0.160 C  
ENDROOT
BRANCH   2   3
HETATM    3  O   UNL     1      -9.892  10.126  67.077  1.00  0.00    -0.176 OA 
BRANCH   3   4
HETATM    4  C   UNL     1     -10.925  10.922  67.446  1.00  0.00    -0.293 C  
HETATM    5  O   UNL     1     -11.402  11.016  68.566  1.00  0.00    -0.241 OA 
BRANCH   4   6
HETATM    6  C   UNL     1     -11.345  11.765  66.295  1.00  0.00    -0.350 A  
HETATM    7  C   UNL     1     -12.059  12.943  66.558  1.00  0.00    -0.375 A  
HETATM    8  C   UNL     1     -12.425  13.789  65.510  1.00  0.00    -0.548 A  
HETATM    9  C   UNL     1     -12.070  13.458  64.205  1.00  0.00    -0.424 A  
HETATM   10  O   UNL     1     -12.411  14.251  63.151  1.00  0.00    -1.102 OA 
HETATM   11  C   UNL     1     -11.353  12.302  63.932  1.00  0.00    -0.501 A  
HETATM   12  C   UNL     1     -10.990  11.450  64.976  1.00  0.00    -0.271 A  
HETATM   13  H   UNL     1     -12.169  14.026  62.261  1.00  0.00     0.000 HD 
ENDBRANCH   4   6
ENDBRANCH   3   4
ENDBRANCH   2   3
TORSDOF 3
ENDMDL
MODEL       47
REMARK 921   NORMALIZED FREE ENERGY PREDICTED BY IDOCK:   -4.13 KCAL/MOL
REMARK 922        TOTAL FREE ENERGY PREDICTED BY IDOCK:   -5.09 KCAL/MOL
REMARK 923 INTER-LIGAND FREE ENERGY PREDICTED BY IDOCK:   -4.83 KCAL/MOL
REMARK 924 INTRA-LIGAND FREE ENERGY PREDICTED BY IDOCK:   -0.26 KCAL/MOL
REMARK 927      BINDING AFFINITY PREDICTED BY RF-SCORE:    0.00 PKD
ROOT
HETATM    1  C   UNL     1     -12.273  12.485  63.795  1.00  0.00    -0.615 C  
HETATM    2  C   UNL     1     -12.086  13.880  64.364  1.00  0.00    -0.443 C  
ENDROOT
BRANCH   2   3
HETATM    3  O   UNL     1     -12.605  13.887  65.699  1.00  0.00    -0.492 OA 
BRANCH   3   4
HETATM    4  C   UNL     1     -11.725  14.240  66.667  1.00  0.00    -0.400 C  
HETATM    5  O   UNL     1     -11.025  15.239  66.680  1.00  0.00    -0.313 OA 
BRANCH   4   6
HETATM    6  C   UNL     1     -11.804  13.272  67.794  1.00  0.00    -0.394 A  
HETATM    7  C   UNL     1     -11.545  11.919  67.529  1.00  0.00    -0.374 A  
HETATM    8  C   UNL     1     -11.555  10.987  68.567  1.00  0.00    -0.380 A  
HETATM    9  C   UNL     1     -11.817  11.411  69.867  1.00  0.00    -0.359 A  
HETATM   10  O   UNL     1     -11.842  10.535  70.910  1.00  0.00    -0.329 OA 
HETATM   11  C   UNL     1     -12.062  12.748  70.146  1.00  0.00    -0.370 A  
HETATM   12  C   UNL     1     -12.059  13.683  69.110  1.00  0.00    -0.361 A  
HETATM   13  H   UNL     1     -12.021  10.824  71.797  1.00  0.00     0.000 HD 
ENDBRANCH   4   6
ENDBRANCH   3   4
ENDBRANCH   2   3
TORSDOF 3
ENDMDL
MODEL       48
REMARK 921   NORMALIZED FREE ENERGY PREDICTED BY IDOCK:   -4.12 KCAL/MOL
REMARK 922        TOTAL FREE ENERGY PREDICTED BY IDOCK:   -5.07 KCAL/MOL
REMARK 923 INTER-LIGAND FREE ENERGY PREDICTED BY IDOCK:   -4.77 KCAL/MOL
REMARK 924 INTRA-LIGAND FREE ENERGY PREDICTED BY IDOCK:   -0.30 KCAL/MOL
REMARK 927      BINDING AFFINITY PREDICTED BY RF-SCORE:    0.00 PKD
ROOT
HETATM    1  C   UNL     1      -9.749  15.083  66.360  1.00  0.00    -0.305 C  
HETATM    2  C   UNL     1     -10.845  15.021  67.408  1.00  0.00    -0.305 C  
ENDROOT
BRANCH   2   3
HETATM    3  O   UNL     1     -11.245  16.362  67.712  1.00  0.00    -0.254 OA 
BRANCH   3   4
HETATM    4  C   UNL     1     -10.649  16.920  68.793  1.00  0.00    -0.355 C  
HETATM    5  O   UNL     1     -10.662  16.484  69.933  1.00  0.00    -0.329 OA 
BRANCH   4   6
HETATM    6  C   UNL     1      -9.870  18.117  68.375  1.00  0.00    -0.380 A  
HETATM    7  C   UNL     1      -8.480  18.104  68.557  1.00  0.00    -0.312 A  
HETATM    8  C   UNL     1      -7.707  19.184  68.129  1.00  0.00    -0.328 A  
HETATM    9  C   UNL     1      -8.326  20.269  67.514  1.00  0.00    -0.310 A  
HETATM   10  O   UNL     1      -7.611  21.347  67.085  1.00  0.00    -0.789 OA 
HETATM   11  C   UNL     1      -9.698  20.290  67.316  1.00  0.00    -0.590 A  
HETATM   12  C   UNL     1     -10.476  19.215  67.748  1.00  0.00    -0.512 A  
HETATM   13  H   UNL     1      -8.033  22.087  66.666  1.00  0.00     0.000 HD 
ENDBRANCH   4   6
ENDBRANCH   3   4
ENDBRANCH   2   3
TORSDOF 3
ENDMDL
MODEL       49
REMARK 921   NORMALIZED FREE ENERGY PREDICTED BY IDOCK:   -4.11 KCAL/MOL
REMARK 922        TOTAL FREE ENERGY PREDICTED BY IDOCK:   -5.07 KCAL/MOL
REMARK 923 INTER-LIGAND FREE ENERGY PREDICTED BY IDOCK:   -4.90 KCAL/MOL
REMARK 924 INTRA-LIGAND FREE ENERGY PREDICTED BY IDOCK:   -0.16 KCAL/MOL
REMARK 927      BINDING AFFINITY PREDICTED BY RF-SCORE:    0.00 PKD
ROOT
HETATM    1  C   UNL     1     -13.469  15.835  72.907  1.00  0.00    -0.666 C  
HETATM    2  C   UNL     1     -13.598  15.293  71.495  1.00  0.00    -0.504 C  
ENDROOT
BRANCH   2   3
HETATM    3  O   UNL     1     -12.331  14.746  71.113  1.00  0.00    -0.291 OA 
BRANCH   3   4
HETATM    4  C   UNL     1     -12.070  14.743  69.783  1.00  0.00    -0.319 C  
HETATM    5  O   UNL     1     -11.909  15.723  69.074  1.00  0.00    -0.391 OA 
BRANCH   4   6
HETATM    6  C   UNL     1     -11.904  13.343  69.309  1.00  0.00    -0.385 A  
HETATM    7  C   UNL     1     -11.555  13.131  67.967  1.00  0.00    -0.371 A  
HETATM    8  C   UNL     1     -11.336  11.836  67.495  1.00  0.00    -0.377 A  
HETATM    9  C   UNL     1     -11.459  10.758  68.368  1.00  0.00    -0.288 A  
HETATM   10  O   UNL     1     -11.261   9.477  67.949  1.00  0.00    -0.519 OA 
HETATM   11  C   UNL     1     -11.791  10.954  69.700  1.00  0.00    -0.416 A  
HETATM   12  C   UNL     1     -12.017  12.246  70.175  1.00  0.00    -0.377 A  
HETATM   13  H   UNL     1     -11.345   8.742  68.544  1.00  0.00     0.000 HD 
ENDBRANCH   4   6
ENDBRANCH   3   4
ENDBRANCH   2   3
TORSDOF 3
ENDMDL
MODEL       50
REMARK 921   NORMALIZED FREE ENERGY PREDICTED BY IDOCK:   -4.07 KCAL/MOL
REMARK 922        TOTAL FREE ENERGY PREDICTED BY IDOCK:   -5.01 KCAL/MOL
REMARK 923 INTER-LIGAND FREE ENERGY PREDICTED BY IDOCK:   -4.84 KCAL/MOL
REMARK 924 INTRA-LIGAND FREE ENERGY PREDICTED BY IDOCK:   -0.17 KCAL/MOL
REMARK 927      BINDING AFFINITY PREDICTED BY RF-SCORE:    0.00 PKD
ROOT
HETATM    1  C   UNL     1      -7.914  16.843  67.490  1.00  0.00    -0.186 C  
HETATM    2  C   UNL     1      -8.744  16.544  66.254  1.00  0.00    -0.333 C  
ENDROOT
BRANCH   2   3
HETATM    3  O   UNL     1      -9.141  15.169  66.310  1.00  0.00    -0.288 OA 
BRANCH   3   4
HETATM    4  C   UNL     1     -10.443  14.947  66.614  1.00  0.00    -0.292 C  
HETATM    5  O   UNL     1     -11.079  15.482  67.507  1.00  0.00    -0.321 OA 
BRANCH   4   6
HETATM    6  C   UNL     1     -11.037  14.012  65.621  1.00  0.00    -0.302 A  
HETATM    7  C   UNL     1     -10.212  13.502  64.608  1.00  0.00    -0.341 A  
HETATM    8  C   UNL     1     -10.716  12.581  63.689  1.00  0.00    -0.469 A  
HETATM    9  C   UNL     1     -12.042  12.167  63.792  1.00  0.00    -0.525 A  
HETATM   10  O   UNL     1     -12.578  11.274  62.913  1.00  0.00    -0.917 OA 
HETATM   11  C   UNL     1     -12.866  12.653  64.796  1.00  0.00    -0.349 A  
HETATM   12  C   UNL     1     -12.368  13.579  65.713  1.00  0.00    -0.516 A  
HETATM   13  H   UNL     1     -13.482  10.991  62.983  1.00  0.00     0.000 HD 
ENDBRANCH   4   6
ENDBRANCH   3   4
ENDBRANCH   2   3
TORSDOF 3
ENDMDL
MODEL       51
REMARK 921   NORMALIZED FREE ENERGY PREDICTED BY IDOCK:   -4.06 KCAL/MOL
REMARK 922        TOTAL FREE ENERGY PREDICTED BY IDOCK:   -5.01 KCAL/MOL
REMARK 923 INTER-LIGAND FREE ENERGY PREDICTED BY IDOCK:   -4.88 KCAL/MOL
REMARK 924 INTRA-LIGAND FREE ENERGY PREDICTED BY IDOCK:   -0.13 KCAL/MOL
REMARK 927      BINDING AFFINITY PREDICTED BY RF-SCORE:    0.00 PKD
ROOT
HETATM    1  C   UNL     1     -14.403   8.411  71.682  1.00  0.00    -0.536 C  
HETATM    2  C   UNL     1     -13.396   9.187  72.512  1.00  0.00    -0.417 C  
ENDROOT
BRANCH   2   3
HETATM    3  O   UNL     1     -13.080  10.395  71.810  1.00  0.00    -0.420 OA 
BRANCH   3   4
HETATM    4  C   UNL     1     -12.063  10.305  70.919  1.00  0.00    -0.368 C  
HETATM    5  O   UNL     1     -11.357   9.330  70.721  1.00  0.00    -0.257 OA 
BRANCH   4   6
HETATM    6  C   UNL     1     -11.986  11.558  70.120  1.00  0.00    -0.452 A  
HETATM    7  C   UNL     1     -11.785  11.454  68.736  1.00  0.00    -0.404 A  
HETATM    8  C   UNL     1     -11.760  12.601  67.942  1.00  0.00    -0.412 A  
HETATM    9  C   UNL     1     -11.943  13.848  68.535  1.00  0.00    -0.359 A  
HETATM   10  O   UNL     1     -11.920  14.995  67.800  1.00  0.00    -0.476 OA 
HETATM   11  C   UNL     1     -12.155  13.965  69.901  1.00  0.00    -0.406 A  
HETATM   12  C   UNL     1     -12.174  12.821  70.699  1.00  0.00    -0.374 A  
HETATM   13  H   UNL     1     -12.045  15.846  68.204  1.00  0.00     0.000 HD 
ENDBRANCH   4   6
ENDBRANCH   3   4
ENDBRANCH   2   3
TORSDOF 3
ENDMDL
MODEL       52
REMARK 921   NORMALIZED FREE ENERGY PREDICTED BY IDOCK:   -3.99 KCAL/MOL
REMARK 922        TOTAL FREE ENERGY PREDICTED BY IDOCK:   -4.93 KCAL/MOL
REMARK 923 INTER-LIGAND FREE ENERGY PREDICTED BY IDOCK:   -4.82 KCAL/MOL
REMARK 924 INTRA-LIGAND FREE ENERGY PREDICTED BY IDOCK:   -0.11 KCAL/MOL
REMARK 927      BINDING AFFINITY PREDICTED BY RF-SCORE:    0.00 PKD
ROOT
HETATM    1  C   UNL     1     -12.754  15.738  73.608  1.00  0.00    -0.729 C  
HETATM    2  C   UNL     1     -11.822  15.865  72.416  1.00  0.00    -0.513 C  
ENDROOT
BRANCH   2   3
HETATM    3  O   UNL     1     -12.612  15.783  71.224  1.00  0.00    -0.437 OA 
BRANCH   3   4
HETATM    4  C   UNL     1     -12.325  14.747  70.401  1.00  0.00    -0.344 C  
HETATM    5  O   UNL     1     -12.598  13.573  70.591  1.00  0.00    -0.320 OA 
BRANCH   4   6
HETATM    6  C   UNL     1     -11.703  15.257  69.150  1.00  0.00    -0.355 A  
HETATM    7  C   UNL     1     -11.682  14.420  68.026  1.00  0.00    -0.374 A  
HETATM    8  C   UNL     1     -11.157  14.880  66.817  1.00  0.00    -0.335 A  
HETATM    9  C   UNL     1     -10.661  16.179  66.736  1.00  0.00    -0.277 A  
HETATM   10  O   UNL     1     -10.133  16.668  65.579  1.00  0.00    -0.553 OA 
HETATM   11  C   UNL     1     -10.686  17.022  67.837  1.00  0.00    -0.348 A  
HETATM   12  C   UNL     1     -11.204  16.564  69.049  1.00  0.00    -0.238 A  
HETATM   13  H   UNL     1      -9.795  17.553  65.523  1.00  0.00     0.000 HD 
ENDBRANCH   4   6
ENDBRANCH   3   4
ENDBRANCH   2   3
TORSDOF 3
ENDMDL
MODEL       53
REMARK 921   NORMALIZED FREE ENERGY PREDICTED BY IDOCK:   -3.98 KCAL/MOL
REMARK 922        TOTAL FREE ENERGY PREDICTED BY IDOCK:   -4.92 KCAL/MOL
REMARK 923 INTER-LIGAND FREE ENERGY PREDICTED BY IDOCK:   -4.63 KCAL/MOL
REMARK 924 INTRA-LIGAND FREE ENERGY PREDICTED BY IDOCK:   -0.28 KCAL/MOL
REMARK 927      BINDING AFFINITY PREDICTED BY RF-SCORE:    0.00 PKD
ROOT
HETATM    1  C   UNL     1      -9.875  11.086  67.304  1.00  0.00    -0.204 C  
HETATM    2  C   UNL     1     -10.813  11.148  66.112  1.00  0.00    -0.185 C  
ENDROOT
BRANCH   2   3
HETATM    3  O   UNL     1     -11.984  11.873  66.506  1.00  0.00    -0.588 OA 
BRANCH   3   4
HETATM    4  C   UNL     1     -12.359  12.875  65.676  1.00  0.00    -0.423 C  
HETATM    5  O   UNL     1     -13.208  12.812  64.801  1.00  0.00    -0.812 OA 
BRANCH   4   6
HETATM    6  C   UNL     1     -11.650  14.128  66.050  1.00  0.00    -0.364 A  
HETATM    7  C   UNL     1     -11.256  15.002  65.026  1.00  0.00    -0.413 A  
HETATM    8  C   UNL     1     -10.637  16.213  65.337  1.00  0.00    -0.399 A  
HETATM    9  C   UNL     1     -10.421  16.550  66.671  1.00  0.00    -0.266 A  
HETATM   10  O   UNL     1      -9.815  17.719  67.021  1.00  0.00    -0.285 OA 
HETATM   11  C   UNL     1     -10.817  15.701  67.694  1.00  0.00    -0.307 A  
HETATM   12  C   UNL     1     -11.431  14.486  67.387  1.00  0.00    -0.385 A  
HETATM   13  H   UNL     1      -9.667  17.949  67.930  1.00  0.00     0.000 HD 
ENDBRANCH   4   6
ENDBRANCH   3   4
ENDBRANCH   2   3
TORSDOF 3
ENDMDL
MODEL       54
REMARK 921   NORMALIZED FREE ENERGY PREDICTED BY IDOCK:   -3.98 KCAL/MOL
REMARK 922        TOTAL FREE ENERGY PREDICTED BY IDOCK:   -4.91 KCAL/MOL
REMARK 923 INTER-LIGAND FREE ENERGY PREDICTED BY IDOCK:   -4.70 KCAL/MOL
REMARK 924 INTRA-LIGAND FREE ENERGY PREDICTED BY IDOCK:   -0.21 KCAL/MOL
REMARK 927      BINDING AFFINITY PREDICTED BY RF-SCORE:    0.00 PKD
ROOT
HETATM    1  C   UNL     1     -10.890  16.144  64.982  1.00  0.00    -0.380 C  
HETATM    2  C   UNL     1     -11.097  14.691  64.596  1.00  0.00    -0.334 C  
ENDROOT
BRANCH   2   3
HETATM    3  O   UNL     1     -12.361  14.268  65.122  1.00  0.00    -0.414 OA 
BRANCH   3   4
HETATM    4  C   UNL     1     -12.533  12.929  65.228  1.00  0.00    -0.493 C  
HETATM    5  O   UNL     1     -13.190  12.221  64.482  1.00  0.00    -0.799 OA 
BRANCH   4   6
HETATM    6  C   UNL     1     -11.708  12.405  66.350  1.00  0.00    -0.453 A  
HETATM    7  C   UNL     1     -12.031  12.802  67.656  1.00  0.00    -0.331 A  
HETATM    8  C   UNL     1     -11.316  12.292  68.740  1.00  0.00    -0.337 A  
HETATM    9  C   UNL     1     -10.288  11.380  68.516  1.00  0.00    -0.205 A  
HETATM   10  O   UNL     1      -9.560  10.861  69.544  1.00  0.00    -0.424 OA 
HETATM   11  C   UNL     1      -9.966  10.969  67.231  1.00  0.00    -0.210 A  
HETATM   12  C   UNL     1     -10.674  11.482  66.143  1.00  0.00    -0.324 A  
HETATM   13  H   UNL     1      -8.859  10.240  69.392  1.00  0.00     0.000 HD 
ENDBRANCH   4   6
ENDBRANCH   3   4
ENDBRANCH   2   3
TORSDOF 3
ENDMDL
MODEL       55
REMARK 921   NORMALIZED FREE ENERGY PREDICTED BY IDOCK:   -3.97 KCAL/MOL
REMARK 922        TOTAL FREE ENERGY PREDICTED BY IDOCK:   -4.90 KCAL/MOL
REMARK 923 INTER-LIGAND FREE ENERGY PREDICTED BY IDOCK:   -4.72 KCAL/MOL
REMARK 924 INTRA-LIGAND FREE ENERGY PREDICTED BY IDOCK:   -0.18 KCAL/MOL
REMARK 927      BINDING AFFINITY PREDICTED BY RF-SCORE:    0.00 PKD
ROOT
HETATM    1  C   UNL     1     -12.980  15.287  70.958  1.00  0.00    -0.526 C  
HETATM    2  C   UNL     1     -12.274  14.719  69.741  1.00  0.00    -0.294 C  
ENDROOT
BRANCH   2   3
HETATM    3  O   UNL     1     -12.055  15.790  68.815  1.00  0.00    -0.314 OA 
BRANCH   3   4
HETATM    4  C   UNL     1     -10.834  15.817  68.229  1.00  0.00    -0.305 C  
HETATM    5  O   UNL     1     -10.167  14.849  67.899  1.00  0.00    -0.226 OA 
BRANCH   4   6
HETATM    6  C   UNL     1     -10.447  17.224  67.941  1.00  0.00    -0.382 A  
HETATM    7  C   UNL     1     -10.617  17.708  66.636  1.00  0.00    -0.211 A  
HETATM    8  C   UNL     1     -10.317  19.038  66.336  1.00  0.00    -0.520 A  
HETATM    9  C   UNL     1      -9.855  19.880  67.344  1.00  0.00    -0.409 A  
HETATM   10  O   UNL     1      -9.545  21.183  67.096  1.00  0.00    -0.680 OA 
HETATM   11  C   UNL     1      -9.694  19.418  68.642  1.00  0.00    -0.504 A  
HETATM   12  C   UNL     1      -9.987  18.088  68.945  1.00  0.00    -0.347 A  
HETATM   13  H   UNL     1      -9.230  21.758  67.783  1.00  0.00     0.000 HD 
ENDBRANCH   4   6
ENDBRANCH   3   4
ENDBRANCH   2   3
TORSDOF 3
ENDMDL
MODEL       56
REMARK 921   NORMALIZED FREE ENERGY PREDICTED BY IDOCK:   -3.95 KCAL/MOL
REMARK 922        TOTAL FREE ENERGY PREDICTED BY IDOCK:   -4.88 KCAL/MOL
REMARK 923 INTER-LIGAND FREE ENERGY PREDICTED BY IDOCK:   -4.75 KCAL/MOL
REMARK 924 INTRA-LIGAND FREE ENERGY PREDICTED BY IDOCK:   -0.13 KCAL/MOL
REMARK 927      BINDING AFFINITY PREDICTED BY RF-SCORE:    0.00 PKD
ROOT
HETATM    1  C   UNL     1     -12.647  16.081  74.053  1.00  0.00    -0.733 C  
HETATM    2  C   UNL     1     -11.929  15.745  72.758  1.00  0.00    -0.492 C  
ENDROOT
BRANCH   2   3
HETATM    3  O   UNL     1     -12.913  15.351  71.794  1.00  0.00    -0.366 OA 
BRANCH   3   4
HETATM    4  C   UNL     1     -12.915  14.038  71.461  1.00  0.00    -0.351 C  
HETATM    5  O   UNL     1     -13.372  13.123  72.126  1.00  0.00    -0.482 OA 
BRANCH   4   6
HETATM    6  C   UNL     1     -12.359  13.867  70.092  1.00  0.00    -0.400 A  
HETATM    7  C   UNL     1     -12.111  15.015  69.326  1.00  0.00    -0.282 A  
HETATM    8  C   UNL     1     -11.540  14.902  68.058  1.00  0.00    -0.363 A  
HETATM    9  C   UNL     1     -11.212  13.642  67.563  1.00  0.00    -0.294 A  
HETATM   10  O   UNL     1     -10.658  13.484  66.329  1.00  0.00    -0.282 OA 
HETATM   11  C   UNL     1     -11.440  12.499  68.315  1.00  0.00    -0.355 A  
HETATM   12  C   UNL     1     -12.017  12.607  69.581  1.00  0.00    -0.352 A  
HETATM   13  H   UNL     1     -10.435  12.624  65.991  1.00  0.00     0.000 HD 
ENDBRANCH   4   6
ENDBRANCH   3   4
ENDBRANCH   2   3
TORSDOF 3
ENDMDL
MODEL       57
REMARK 921   NORMALIZED FREE ENERGY PREDICTED BY IDOCK:   -3.95 KCAL/MOL
REMARK 922        TOTAL FREE ENERGY PREDICTED BY IDOCK:   -4.88 KCAL/MOL
REMARK 923 INTER-LIGAND FREE ENERGY PREDICTED BY IDOCK:   -4.71 KCAL/MOL
REMARK 924 INTRA-LIGAND FREE ENERGY PREDICTED BY IDOCK:   -0.17 KCAL/MOL
REMARK 927      BINDING AFFINITY PREDICTED BY RF-SCORE:    0.00 PKD
ROOT
HETATM    1  C   UNL     1      -9.541   8.684  71.606  1.00  0.00    -0.344 C  
HETATM    2  C   UNL     1     -10.549   8.949  70.502  1.00  0.00    -0.220 C  
ENDROOT
BRANCH   2   3
HETATM    3  O   UNL     1     -11.414  10.005  70.936  1.00  0.00    -0.320 OA 
BRANCH   3   4
HETATM    4  C   UNL     1     -11.751  10.913  69.989  1.00  0.00    -0.345 C  
HETATM    5  O   UNL     1     -11.660  10.767  68.780  1.00  0.00    -0.282 OA 
BRANCH   4   6
HETATM    6  C   UNL     1     -12.357  12.109  70.633  1.00  0.00    -0.385 A  
HETATM    7  C   UNL     1     -13.139  11.922  71.782  1.00  0.00    -0.465 A  
HETATM    8  C   UNL     1     -13.681  13.022  72.448  1.00  0.00    -0.593 A  
HETATM    9  C   UNL     1     -13.433  14.305  71.967  1.00  0.00    -0.412 A  
HETATM   10  O   UNL     1     -13.947  15.407  72.581  1.00  0.00    -0.518 OA 
HETATM   11  C   UNL     1     -12.652  14.506  70.839  1.00  0.00    -0.414 A  
HETATM   12  C   UNL     1     -12.113  13.408  70.166  1.00  0.00    -0.415 A  
HETATM   13  H   UNL     1     -13.779  16.282  72.253  1.00  0.00     0.000 HD 
ENDBRANCH   4   6
ENDBRANCH   3   4
ENDBRANCH   2   3
TORSDOF 3
ENDMDL
MODEL       58
REMARK 921   NORMALIZED FREE ENERGY PREDICTED BY IDOCK:   -3.94 KCAL/MOL
REMARK 922        TOTAL FREE ENERGY PREDICTED BY IDOCK:   -4.86 KCAL/MOL
REMARK 923 INTER-LIGAND FREE ENERGY PREDICTED BY IDOCK:   -4.69 KCAL/MOL
REMARK 924 INTRA-LIGAND FREE ENERGY PREDICTED BY IDOCK:   -0.17 KCAL/MOL
REMARK 927      BINDING AFFINITY PREDICTED BY RF-SCORE:    0.00 PKD
ROOT
HETATM    1  C   UNL     1     -10.776  17.558  68.010  1.00  0.00    -0.342 C  
HETATM    2  C   UNL     1     -10.738  16.680  69.248  1.00  0.00    -0.337 C  
ENDROOT
BRANCH   2   3
HETATM    3  O   UNL     1     -11.754  15.680  69.114  1.00  0.00    -0.353 OA 
BRANCH   3   4
HETATM    4  C   UNL     1     -11.313  14.430  68.836  1.00  0.00    -0.274 C  
HETATM    5  O   UNL     1     -10.471  14.126  68.006  1.00  0.00    -0.233 OA 
BRANCH   4   6
HETATM    6  C   UNL     1     -11.935  13.458  69.776  1.00  0.00    -0.396 A  
HETATM    7  C   UNL     1     -11.730  12.089  69.551  1.00  0.00    -0.408 A  
HETATM    8  C   UNL     1     -12.251  11.147  70.438  1.00  0.00    -0.457 A  
HETATM    9  C   UNL     1     -12.968  11.577  71.552  1.00  0.00    -0.380 A  
HETATM   10  O   UNL     1     -13.499  10.693  72.442  1.00  0.00    -0.603 OA 
HETATM   11  C   UNL     1     -13.168  12.928  71.794  1.00  0.00    -0.479 A  
HETATM   12  C   UNL     1     -12.654  13.874  70.905  1.00  0.00    -0.431 A  
HETATM   13  H   UNL     1     -13.988  10.986  73.201  1.00  0.00     0.000 HD 
ENDBRANCH   4   6
ENDBRANCH   3   4
ENDBRANCH   2   3
TORSDOF 3
ENDMDL
MODEL       59
REMARK 921   NORMALIZED FREE ENERGY PREDICTED BY IDOCK:   -3.93 KCAL/MOL
REMARK 922        TOTAL FREE ENERGY PREDICTED BY IDOCK:   -4.85 KCAL/MOL
REMARK 923 INTER-LIGAND FREE ENERGY PREDICTED BY IDOCK:   -4.59 KCAL/MOL
REMARK 924 INTRA-LIGAND FREE ENERGY PREDICTED BY IDOCK:   -0.26 KCAL/MOL
REMARK 927      BINDING AFFINITY PREDICTED BY RF-SCORE:    0.00 PKD
ROOT
HETATM    1  C   UNL     1     -10.932  14.610  68.143  1.00  0.00    -0.269 C  
HETATM    2  C   UNL     1     -11.656  14.958  66.855  1.00  0.00    -0.277 C  
ENDROOT
BRANCH   2   3
HETATM    3  O   UNL     1     -10.671  15.274  65.864  1.00  0.00    -0.311 OA 
BRANCH   3   4
HETATM    4  C   UNL     1     -10.644  16.566  65.455  1.00  0.00    -0.295 C  
HETATM    5  O   UNL     1     -11.256  17.039  64.511  1.00  0.00    -1.091 OA 
BRANCH   4   6
HETATM    6  C   UNL     1      -9.825  17.374  66.398  1.00  0.00    -0.311 A  
HETATM    7  C   UNL     1     -10.423  18.477  67.023  1.00  0.00    -0.440 A  
HETATM    8  C   UNL     1      -9.707  19.229  67.955  1.00  0.00    -0.430 A  
HETATM    9  C   UNL     1      -8.397  18.870  68.264  1.00  0.00    -0.330 A  
HETATM   10  O   UNL     1      -7.659  19.578  69.164  1.00  0.00    -0.361 OA 
HETATM   11  C   UNL     1      -7.797  17.773  67.663  1.00  0.00    -0.212 A  
HETATM   12  C   UNL     1      -8.508  17.023  66.726  1.00  0.00    -0.265 A  
HETATM   13  H   UNL     1      -6.766  19.334  69.375  1.00  0.00     0.000 HD 
ENDBRANCH   4   6
ENDBRANCH   3   4
ENDBRANCH   2   3
TORSDOF 3
ENDMDL
MODEL       60
REMARK 921   NORMALIZED FREE ENERGY PREDICTED BY IDOCK:   -3.91 KCAL/MOL
REMARK 922        TOTAL FREE ENERGY PREDICTED BY IDOCK:   -4.82 KCAL/MOL
REMARK 923 INTER-LIGAND FREE ENERGY PREDICTED BY IDOCK:   -4.58 KCAL/MOL
REMARK 924 INTRA-LIGAND FREE ENERGY PREDICTED BY IDOCK:   -0.25 KCAL/MOL
REMARK 927      BINDING AFFINITY PREDICTED BY RF-SCORE:    0.00 PKD
ROOT
HETATM    1  C   UNL     1     -14.322   8.441  71.595  1.00  0.00    -0.536 C  
HETATM    2  C   UNL     1     -13.173   8.950  72.447  1.00  0.00    -0.430 C  
ENDROOT
BRANCH   2   3
HETATM    3  O   UNL     1     -12.315   9.736  71.612  1.00  0.00    -0.364 OA 
BRANCH   3   4
HETATM    4  C   UNL     1     -12.703  11.020  71.417  1.00  0.00    -0.429 C  
HETATM    5  O   UNL     1     -13.341  11.710  72.196  1.00  0.00    -0.491 OA 
BRANCH   4   6
HETATM    6  C   UNL     1     -12.144  11.523  70.134  1.00  0.00    -0.432 A  
HETATM    7  C   UNL     1     -11.953  12.905  69.987  1.00  0.00    -0.380 A  
HETATM    8  C   UNL     1     -11.382  13.413  68.820  1.00  0.00    -0.332 A  
HETATM    9  C   UNL     1     -10.996  12.538  67.807  1.00  0.00    -0.234 A  
HETATM   10  O   UNL     1     -10.440  12.991  66.649  1.00  0.00    -0.260 OA 
HETATM   11  C   UNL     1     -11.167  11.168  67.944  1.00  0.00    -0.365 A  
HETATM   12  C   UNL     1     -11.745  10.656  69.107  1.00  0.00    -0.324 A  
HETATM   13  H   UNL     1     -10.177  12.394  65.958  1.00  0.00     0.000 HD 
ENDBRANCH   4   6
ENDBRANCH   3   4
ENDBRANCH   2   3
TORSDOF 3
ENDMDL
MODEL       61
REMARK 921   NORMALIZED FREE ENERGY PREDICTED BY IDOCK:   -3.85 KCAL/MOL
REMARK 922        TOTAL FREE ENERGY PREDICTED BY IDOCK:   -4.76 KCAL/MOL
REMARK 923 INTER-LIGAND FREE ENERGY PREDICTED BY IDOCK:   -4.60 KCAL/MOL
REMARK 924 INTRA-LIGAND FREE ENERGY PREDICTED BY IDOCK:   -0.16 KCAL/MOL
REMARK 927      BINDING AFFINITY PREDICTED BY RF-SCORE:    0.00 PKD
ROOT
HETATM    1  C   UNL     1      -7.279   9.702  68.344  1.00  0.00    -0.074 C  
HETATM    2  C   UNL     1      -8.429  10.693  68.356  1.00  0.00    -0.132 C  
ENDROOT
BRANCH   2   3
HETATM    3  O   UNL     1      -9.457  10.168  69.203  1.00  0.00    -0.183 OA 
BRANCH   3   4
HETATM    4  C   UNL     1     -10.558  10.946  69.339  1.00  0.00    -0.197 C  
HETATM    5  O   UNL     1     -10.854  11.909  68.650  1.00  0.00    -0.216 OA 
BRANCH   4   6
HETATM    6  C   UNL     1     -11.435  10.392  70.405  1.00  0.00    -0.420 A  
HETATM    7  C   UNL     1     -12.529  11.158  70.833  1.00  0.00    -0.509 A  
HETATM    8  C   UNL     1     -13.407  10.653  71.793  1.00  0.00    -0.437 A  
HETATM    9  C   UNL     1     -13.192   9.380  72.316  1.00  0.00    -0.446 A  
HETATM   10  O   UNL     1     -14.020   8.849  73.258  1.00  0.00    -1.203 OA 
HETATM   11  C   UNL     1     -12.121   8.606  71.892  1.00  0.00    -0.422 A  
HETATM   12  C   UNL     1     -11.237   9.110  70.938  1.00  0.00    -0.359 A  
HETATM   13  H   UNL     1     -13.874   7.981  73.615  1.00  0.00     0.000 HD 
ENDBRANCH   4   6
ENDBRANCH   3   4
ENDBRANCH   2   3
TORSDOF 3
ENDMDL
MODEL       62
REMARK 921   NORMALIZED FREE ENERGY PREDICTED BY IDOCK:   -3.85 KCAL/MOL
REMARK 922        TOTAL FREE ENERGY PREDICTED BY IDOCK:   -4.76 KCAL/MOL
REMARK 923 INTER-LIGAND FREE ENERGY PREDICTED BY IDOCK:   -4.50 KCAL/MOL
REMARK 924 INTRA-LIGAND FREE ENERGY PREDICTED BY IDOCK:   -0.26 KCAL/MOL
REMARK 927      BINDING AFFINITY PREDICTED BY RF-SCORE:    0.00 PKD
ROOT
HETATM    1  C   UNL     1     -11.120  10.235  70.060  1.00  0.00    -0.373 C  
HETATM    2  C   UNL     1     -11.216  10.372  68.552  1.00  0.00    -0.251 C  
ENDROOT
BRANCH   2   3
HETATM    3  O   UNL     1     -12.214  11.357  68.259  1.00  0.00    -0.588 OA 
BRANCH   3   4
HETATM    4  C   UNL     1     -11.909  12.222  67.262  1.00  0.00    -0.260 C  
HETATM    5  O   UNL     1     -11.946  11.990  66.064  1.00  0.00    -0.559 OA 
BRANCH   4   6
HETATM    6  C   UNL     1     -11.611  13.563  67.834  1.00  0.00    -0.377 A  
HETATM    7  C   UNL     1     -10.947  14.499  67.029  1.00  0.00    -0.312 A  
HETATM    8  C   UNL     1     -10.697  15.785  67.509  1.00  0.00    -0.317 A  
HETATM    9  C   UNL     1     -11.118  16.132  68.790  1.00  0.00    -0.354 A  
HETATM   10  O   UNL     1     -10.890  17.374  69.302  1.00  0.00    -0.343 OA 
HETATM   11  C   UNL     1     -11.787  15.220  69.593  1.00  0.00    -0.363 A  
HETATM   12  C   UNL     1     -12.034  13.931  69.119  1.00  0.00    -0.404 A  
HETATM   13  H   UNL     1     -11.177  17.611  70.175  1.00  0.00     0.000 HD 
ENDBRANCH   4   6
ENDBRANCH   3   4
ENDBRANCH   2   3
TORSDOF 3
ENDMDL
MODEL       63
REMARK 921   NORMALIZED FREE ENERGY PREDICTED BY IDOCK:   -3.85 KCAL/MOL
REMARK 922        TOTAL FREE ENERGY PREDICTED BY IDOCK:   -4.75 KCAL/MOL
REMARK 923 INTER-LIGAND FREE ENERGY PREDICTED BY IDOCK:   -4.53 KCAL/MOL
REMARK 924 INTRA-LIGAND FREE ENERGY PREDICTED BY IDOCK:   -0.22 KCAL/MOL
REMARK 927      BINDING AFFINITY PREDICTED BY RF-SCORE:    0.00 PKD
ROOT
HETATM    1  C   UNL     1      -8.489  15.050  68.572  1.00  0.00    -0.163 C  
HETATM    2  C   UNL     1      -9.186  16.115  67.747  1.00  0.00    -0.202 C  
ENDROOT
BRANCH   2   3
HETATM    3  O   UNL     1     -10.359  15.531  67.169  1.00  0.00    -0.261 OA 
BRANCH   3   4
HETATM    4  C   UNL     1     -10.599  15.856  65.875  1.00  0.00    -0.337 C  
HETATM    5  O   UNL     1     -10.395  16.939  65.350  1.00  0.00    -0.609 OA 
BRANCH   4   6
HETATM    6  C   UNL     1     -11.062  14.652  65.134  1.00  0.00    -0.382 A  
HETATM    7  C   UNL     1     -12.144  14.789  64.252  1.00  0.00    -0.415 A  
HETATM    8  C   UNL     1     -12.576  13.697  63.497  1.00  0.00     0.019 A  
HETATM    9  C   UNL     1     -11.918  12.475  63.621  1.00  0.00    -0.537 A  
HETATM   10  O   UNL     1     -12.309  11.382  62.908  1.00  0.00    -0.954 OA 
HETATM   11  C   UNL     1     -10.839  12.330  64.480  1.00  0.00    -0.355 A  
HETATM   12  C   UNL     1     -10.408  13.417  65.241  1.00  0.00    -0.330 A  
HETATM   13  H   UNL     1     -11.861  10.549  62.993  1.00  0.00     0.000 HD 
ENDBRANCH   4   6
ENDBRANCH   3   4
ENDBRANCH   2   3
TORSDOF 3
ENDMDL
MODEL       64
REMARK 921   NORMALIZED FREE ENERGY PREDICTED BY IDOCK:   -3.84 KCAL/MOL
REMARK 922        TOTAL FREE ENERGY PREDICTED BY IDOCK:   -4.75 KCAL/MOL
REMARK 923 INTER-LIGAND FREE ENERGY PREDICTED BY IDOCK:   -4.56 KCAL/MOL
REMARK 924 INTRA-LIGAND FREE ENERGY PREDICTED BY IDOCK:   -0.19 KCAL/MOL
REMARK 927      BINDING AFFINITY PREDICTED BY RF-SCORE:    0.00 PKD
ROOT
HETATM    1  C   UNL     1      -7.927  13.166  67.923  1.00  0.00    -0.158 C  
HETATM    2  C   UNL     1      -9.312  13.278  68.535  1.00  0.00    -0.091 C  
ENDROOT
BRANCH   2   3
HETATM    3  O   UNL     1      -9.594  14.666  68.744  1.00  0.00    -0.211 OA 
BRANCH   3   4
HETATM    4  C   UNL     1     -10.885  15.036  68.564  1.00  0.00    -0.250 C  
HETATM    5  O   UNL     1     -11.616  15.544  69.399  1.00  0.00    -0.308 OA 
BRANCH   4   6
HETATM    6  C   UNL     1     -11.273  14.826  67.143  1.00  0.00    -0.346 A  
HETATM    7  C   UNL     1     -12.350  13.973  66.866  1.00  0.00    -0.321 A  
HETATM    8  C   UNL     1     -12.781  13.791  65.551  1.00  0.00    -0.530 A  
HETATM    9  C   UNL     1     -12.137  14.470  64.519  1.00  0.00    -0.484 A  
HETATM   10  O   UNL     1     -12.520  14.318  63.220  1.00  0.00    -1.133 OA 
HETATM   11  C   UNL     1     -11.078  15.327  64.780  1.00  0.00    -0.407 A  
HETATM   12  C   UNL     1     -10.641  15.506  66.093  1.00  0.00    -0.321 A  
HETATM   13  H   UNL     1     -12.081  14.781  62.517  1.00  0.00     0.000 HD 
ENDBRANCH   4   6
ENDBRANCH   3   4
ENDBRANCH   2   3
TORSDOF 3
ENDMDL
MODEL       65
REMARK 921   NORMALIZED FREE ENERGY PREDICTED BY IDOCK:   -3.84 KCAL/MOL
REMARK 922        TOTAL FREE ENERGY PREDICTED BY IDOCK:   -4.74 KCAL/MOL
REMARK 923 INTER-LIGAND FREE ENERGY PREDICTED BY IDOCK:   -4.55 KCAL/MOL
REMARK 924 INTRA-LIGAND FREE ENERGY PREDICTED BY IDOCK:   -0.19 KCAL/MOL
REMARK 927      BINDING AFFINITY PREDICTED BY RF-SCORE:    0.00 PKD
ROOT
HETATM    1  C   UNL     1      -8.277   8.911  69.076  1.00  0.00    -0.116 C  
HETATM    2  C   UNL     1      -9.119  10.148  69.331  1.00  0.00    -0.203 C  
ENDROOT
BRANCH   2   3
HETATM    3  O   UNL     1     -10.489   9.812  69.079  1.00  0.00    -0.197 OA 
BRANCH   3   4
HETATM    4  C   UNL     1     -11.263  10.820  68.611  1.00  0.00    -0.274 C  
HETATM    5  O   UNL     1     -11.482  11.081  67.439  1.00  0.00    -0.475 OA 
BRANCH   4   6
HETATM    6  C   UNL     1     -11.910  11.527  69.749  1.00  0.00    -0.429 A  
HETATM    7  C   UNL     1     -11.888  12.929  69.762  1.00  0.00    -0.380 A  
HETATM    8  C   UNL     1     -12.529  13.631  70.783  1.00  0.00    -0.432 A  
HETATM    9  C   UNL     1     -13.197  12.928  71.784  1.00  0.00    -0.384 A  
HETATM   10  O   UNL     1     -13.832  13.572  72.803  1.00  0.00    -0.730 OA 
HETATM   11  C   UNL     1     -13.237  11.541  71.776  1.00  0.00    -0.456 A  
HETATM   12  C   UNL     1     -12.591  10.836  70.760  1.00  0.00    -0.476 A  
HETATM   13  H   UNL     1     -14.287  13.093  73.485  1.00  0.00     0.000 HD 
ENDBRANCH   4   6
ENDBRANCH   3   4
ENDBRANCH   2   3
TORSDOF 3
ENDMDL
MODEL       66
REMARK 921   NORMALIZED FREE ENERGY PREDICTED BY IDOCK:   -3.82 KCAL/MOL
REMARK 922        TOTAL FREE ENERGY PREDICTED BY IDOCK:   -4.73 KCAL/MOL
REMARK 923 INTER-LIGAND FREE ENERGY PREDICTED BY IDOCK:   -4.45 KCAL/MOL
REMARK 924 INTRA-LIGAND FREE ENERGY PREDICTED BY IDOCK:   -0.27 KCAL/MOL
REMARK 927      BINDING AFFINITY PREDICTED BY RF-SCORE:    0.00 PKD
ROOT
HETATM    1  C   UNL     1      -7.283  14.234  67.949  1.00  0.00    -0.166 C  
HETATM    2  C   UNL     1      -8.474  14.677  68.780  1.00  0.00    -0.161 C  
ENDROOT
BRANCH   2   3
HETATM    3  O   UNL     1      -8.899  15.957  68.299  1.00  0.00    -0.174 OA 
BRANCH   3   4
HETATM    4  C   UNL     1     -10.232  16.190  68.353  1.00  0.00    -0.240 C  
HETATM    5  O   UNL     1     -10.824  16.813  69.221  1.00  0.00    -0.325 OA 
BRANCH   4   6
HETATM    6  C   UNL     1     -10.885  15.658  67.127  1.00  0.00    -0.297 A  
HETATM    7  C   UNL     1     -10.520  16.203  65.888  1.00  0.00    -0.366 A  
HETATM    8  C   UNL     1     -11.069  15.695  64.710  1.00  0.00    -0.426 A  
HETATM    9  C   UNL     1     -11.975  14.639  64.775  1.00  0.00    -0.433 A  
HETATM   10  O   UNL     1     -12.540  14.116  63.651  1.00  0.00    -0.952 OA 
HETATM   11  C   UNL     1     -12.336  14.083  65.993  1.00  0.00    -0.504 A  
HETATM   12  C   UNL     1     -11.794  14.592  67.174  1.00  0.00    -0.412 A  
HETATM   13  H   UNL     1     -13.158  13.397  63.695  1.00  0.00     0.000 HD 
ENDBRANCH   4   6
ENDBRANCH   3   4
ENDBRANCH   2   3
TORSDOF 3
ENDMDL
MODEL       67
REMARK 921   NORMALIZED FREE ENERGY PREDICTED BY IDOCK:   -3.80 KCAL/MOL
REMARK 922        TOTAL FREE ENERGY PREDICTED BY IDOCK:   -4.70 KCAL/MOL
REMARK 923 INTER-LIGAND FREE ENERGY PREDICTED BY IDOCK:   -4.53 KCAL/MOL
REMARK 924 INTRA-LIGAND FREE ENERGY PREDICTED BY IDOCK:   -0.17 KCAL/MOL
REMARK 927      BINDING AFFINITY PREDICTED BY RF-SCORE:    0.00 PKD
ROOT
HETATM    1  C   UNL     1     -11.241   4.818  73.132  1.00  0.00    -0.390 C  
HETATM    2  C   UNL     1     -11.106   5.763  71.952  1.00  0.00    -0.248 C  
ENDROOT
BRANCH   2   3
HETATM    3  O   UNL     1     -11.534   7.063  72.373  1.00  0.00    -0.264 OA 
BRANCH   3   4
HETATM    4  C   UNL     1     -12.617   7.561  71.728  1.00  0.00    -0.334 C  
HETATM    5  O   UNL     1     -13.679   6.989  71.547  1.00  0.00    -0.343 OA 
BRANCH   4   6
HETATM    6  C   UNL     1     -12.365   8.977  71.346  1.00  0.00    -0.380 A  
HETATM    7  C   UNL     1     -11.396   9.241  70.367  1.00  0.00    -0.283 A  
HETATM    8  C   UNL     1     -11.167  10.550  69.942  1.00  0.00    -0.374 A  
HETATM    9  C   UNL     1     -11.913  11.589  70.491  1.00  0.00    -0.344 A  
HETATM   10  O   UNL     1     -11.720  12.883  70.110  1.00  0.00    -0.488 OA 
HETATM   11  C   UNL     1     -12.884  11.342  71.451  1.00  0.00    -0.515 A  
HETATM   12  C   UNL     1     -13.111  10.035  71.884  1.00  0.00    -0.563 A  
HETATM   13  H   UNL     1     -12.228  13.592  70.484  1.00  0.00     0.000 HD 
ENDBRANCH   4   6
ENDBRANCH   3   4
ENDBRANCH   2   3
TORSDOF 3
ENDMDL
MODEL       68
REMARK 921   NORMALIZED FREE ENERGY PREDICTED BY IDOCK:   -3.80 KCAL/MOL
REMARK 922        TOTAL FREE ENERGY PREDICTED BY IDOCK:   -4.69 KCAL/MOL
REMARK 923 INTER-LIGAND FREE ENERGY PREDICTED BY IDOCK:   -4.43 KCAL/MOL
REMARK 924 INTRA-LIGAND FREE ENERGY PREDICTED BY IDOCK:   -0.27 KCAL/MOL
REMARK 927      BINDING AFFINITY PREDICTED BY RF-SCORE:    0.00 PKD
ROOT
HETATM    1  C   UNL     1      -9.922   7.303  66.605  1.00  0.00    -0.246 C  
HETATM    2  C   UNL     1      -8.715   8.196  66.380  1.00  0.00    -0.149 C  
ENDROOT
BRANCH   2   3
HETATM    3  O   UNL     1      -9.180   9.545  66.250  1.00  0.00    -0.153 OA 
BRANCH   3   4
HETATM    4  C   UNL     1      -9.437   9.957  64.985  1.00  0.00    -0.280 C  
HETATM    5  O   UNL     1      -8.937   9.514  63.964  1.00  0.00    -0.229 OA 
BRANCH   4   6
HETATM    6  C   UNL     1     -10.515  10.982  65.001  1.00  0.00    -0.344 A  
HETATM    7  C   UNL     1     -10.923  11.501  66.238  1.00  0.00    -0.328 A  
HETATM    8  C   UNL     1     -11.892  12.503  66.293  1.00  0.00    -0.453 A  
HETATM    9  C   UNL     1     -12.445  12.987  65.110  1.00  0.00    -0.496 A  
HETATM   10  O   UNL     1     -13.399  13.960  65.117  1.00  0.00    -0.698 OA 
HETATM   11  C   UNL     1     -12.042  12.492  63.879  1.00  0.00    -0.581 A  
HETATM   12  C   UNL     1     -11.077  11.485  63.820  1.00  0.00    -0.471 A  
HETATM   13  H   UNL     1     -13.776  14.290  64.310  1.00  0.00     0.000 HD 
ENDBRANCH   4   6
ENDBRANCH   3   4
ENDBRANCH   2   3
TORSDOF 3
ENDMDL
MODEL       69
REMARK 921   NORMALIZED FREE ENERGY PREDICTED BY IDOCK:   -3.80 KCAL/MOL
REMARK 922        TOTAL FREE ENERGY PREDICTED BY IDOCK:   -4.69 KCAL/MOL
REMARK 923 INTER-LIGAND FREE ENERGY PREDICTED BY IDOCK:   -4.54 KCAL/MOL
REMARK 924 INTRA-LIGAND FREE ENERGY PREDICTED BY IDOCK:   -0.15 KCAL/MOL
REMARK 927      BINDING AFFINITY PREDICTED BY RF-SCORE:    0.00 PKD
ROOT
HETATM    1  C   UNL     1     -11.386   4.997  73.219  1.00  0.00    -0.393 C  
HETATM    2  C   UNL     1     -11.099   5.885  72.022  1.00  0.00    -0.274 C  
ENDROOT
BRANCH   2   3
HETATM    3  O   UNL     1     -11.531   7.213  72.342  1.00  0.00    -0.262 OA 
BRANCH   3   4
HETATM    4  C   UNL     1     -12.643   7.638  71.694  1.00  0.00    -0.339 C  
HETATM    5  O   UNL     1     -13.659   6.992  71.496  1.00  0.00    -0.351 OA 
BRANCH   4   6
HETATM    6  C   UNL     1     -12.494   9.074  71.334  1.00  0.00    -0.378 A  
HETATM    7  C   UNL     1     -13.256  10.019  72.035  1.00  0.00    -0.545 A  
HETATM    8  C   UNL     1     -13.107  11.380  71.765  1.00  0.00    -0.523 A  
HETATM    9  C   UNL     1     -12.191  11.791  70.800  1.00  0.00    -0.326 A  
HETATM   10  O   UNL     1     -12.016  13.109  70.499  1.00  0.00    -0.477 OA 
HETATM   11  C   UNL     1     -11.422  10.868  70.107  1.00  0.00    -0.405 A  
HETATM   12  C   UNL     1     -11.573   9.506  70.369  1.00  0.00    -0.268 A  
HETATM   13  H   UNL     1     -11.392  13.389  69.841  1.00  0.00     0.000 HD 
ENDBRANCH   4   6
ENDBRANCH   3   4
ENDBRANCH   2   3
TORSDOF 3
ENDMDL
MODEL       70
REMARK 921   NORMALIZED FREE ENERGY PREDICTED BY IDOCK:   -3.73 KCAL/MOL
REMARK 922        TOTAL FREE ENERGY PREDICTED BY IDOCK:   -4.62 KCAL/MOL
REMARK 923 INTER-LIGAND FREE ENERGY PREDICTED BY IDOCK:   -4.45 KCAL/MOL
REMARK 924 INTRA-LIGAND FREE ENERGY PREDICTED BY IDOCK:   -0.16 KCAL/MOL
REMARK 927      BINDING AFFINITY PREDICTED BY RF-SCORE:    0.00 PKD
ROOT
HETATM    1  C   UNL     1      -8.168  15.229  68.870  1.00  0.00    -0.186 C  
HETATM    2  C   UNL     1      -9.673  15.393  68.981  1.00  0.00    -0.239 C  
ENDROOT
BRANCH   2   3
HETATM    3  O   UNL     1     -10.257  14.981  67.740  1.00  0.00    -0.234 OA 
BRANCH   3   4
HETATM    4  C   UNL     1     -11.263  14.079  67.836  1.00  0.00    -0.273 C  
HETATM    5  O   UNL     1     -12.008  13.924  68.790  1.00  0.00    -0.341 OA 
BRANCH   4   6
HETATM    6  C   UNL     1     -11.406  13.348  66.548  1.00  0.00    -0.346 A  
HETATM    7  C   UNL     1     -12.163  13.941  65.527  1.00  0.00    -0.467 A  
HETATM    8  C   UNL     1     -12.278  13.314  64.285  1.00  0.00    -0.454 A  
HETATM    9  C   UNL     1     -11.629  12.101  64.067  1.00  0.00    -0.423 A  
HETATM   10  O   UNL     1     -11.718  11.452  62.873  1.00  0.00    -0.856 OA 
HETATM   11  C   UNL     1     -10.867  11.510  65.064  1.00  0.00    -0.336 A  
HETATM   12  C   UNL     1     -10.755  12.130  66.309  1.00  0.00    -0.296 A  
HETATM   13  H   UNL     1     -11.276  10.625  62.724  1.00  0.00     0.000 HD 
ENDBRANCH   4   6
ENDBRANCH   3   4
ENDBRANCH   2   3
TORSDOF 3
ENDMDL
MODEL       71
REMARK 921   NORMALIZED FREE ENERGY PREDICTED BY IDOCK:   -3.72 KCAL/MOL
REMARK 922        TOTAL FREE ENERGY PREDICTED BY IDOCK:   -4.60 KCAL/MOL
REMARK 923 INTER-LIGAND FREE ENERGY PREDICTED BY IDOCK:   -4.42 KCAL/MOL
REMARK 924 INTRA-LIGAND FREE ENERGY PREDICTED BY IDOCK:   -0.18 KCAL/MOL
REMARK 927      BINDING AFFINITY PREDICTED BY RF-SCORE:    0.00 PKD
ROOT
HETATM    1  C   UNL     1     -10.621  17.842  67.629  1.00  0.00    -0.398 C  
HETATM    2  C   UNL     1     -10.590  17.125  68.966  1.00  0.00    -0.282 C  
ENDROOT
BRANCH   2   3
HETATM    3  O   UNL     1     -11.426  15.966  68.866  1.00  0.00    -0.348 OA 
BRANCH   3   4
HETATM    4  C   UNL     1     -11.843  15.442  70.044  1.00  0.00    -0.343 C  
HETATM    5  O   UNL     1     -12.224  16.066  71.021  1.00  0.00    -0.407 OA 
BRANCH   4   6
HETATM    6  C   UNL     1     -11.871  13.957  69.950  1.00  0.00    -0.394 A  
HETATM    7  C   UNL     1     -11.266  13.348  68.841  1.00  0.00    -0.320 A  
HETATM    8  C   UNL     1     -11.223  11.957  68.741  1.00  0.00    -0.314 A  
HETATM    9  C   UNL     1     -11.778  11.180  69.755  1.00  0.00    -0.345 A  
HETATM   10  O   UNL     1     -11.764   9.819  69.697  1.00  0.00    -0.447 OA 
HETATM   11  C   UNL     1     -12.368  11.768  70.864  1.00  0.00    -0.420 A  
HETATM   12  C   UNL     1     -12.419  13.159  70.964  1.00  0.00    -0.406 A  
HETATM   13  H   UNL     1     -12.142   9.288  70.388  1.00  0.00     0.000 HD 
ENDBRANCH   4   6
ENDBRANCH   3   4
ENDBRANCH   2   3
TORSDOF 3
ENDMDL
MODEL       72
REMARK 921   NORMALIZED FREE ENERGY PREDICTED BY IDOCK:   -3.68 KCAL/MOL
REMARK 922        TOTAL FREE ENERGY PREDICTED BY IDOCK:   -4.55 KCAL/MOL
REMARK 923 INTER-LIGAND FREE ENERGY PREDICTED BY IDOCK:   -4.27 KCAL/MOL
REMARK 924 INTRA-LIGAND FREE ENERGY PREDICTED BY IDOCK:   -0.29 KCAL/MOL
REMARK 927      BINDING AFFINITY PREDICTED BY RF-SCORE:    0.00 PKD
ROOT
HETATM    1  C   UNL     1     -10.284  10.316  65.881  1.00  0.00    -0.293 C  
HETATM    2  C   UNL     1     -10.794  11.724  65.631  1.00  0.00    -0.292 C  
ENDROOT
BRANCH   2   3
HETATM    3  O   UNL     1     -11.744  12.039  66.655  1.00  0.00    -0.522 OA 
BRANCH   3   4
HETATM    4  C   UNL     1     -11.278  12.804  67.672  1.00  0.00    -0.280 C  
HETATM    5  O   UNL     1     -10.545  13.774  67.572  1.00  0.00    -0.243 OA 
BRANCH   4   6
HETATM    6  C   UNL     1     -11.877  12.349  68.956  1.00  0.00    -0.349 A  
HETATM    7  C   UNL     1     -12.077  10.975  69.149  1.00  0.00    -0.333 A  
HETATM    8  C   UNL     1     -12.586  10.503  70.359  1.00  0.00    -0.364 A  
HETATM    9  C   UNL     1     -12.885  11.407  71.376  1.00  0.00    -0.397 A  
HETATM   10  O   UNL     1     -13.389  10.992  72.571  1.00  0.00    -0.493 OA 
HETATM   11  C   UNL     1     -12.681  12.768  71.204  1.00  0.00    -0.355 A  
HETATM   12  C   UNL     1     -12.178  13.245  69.992  1.00  0.00    -0.345 A  
HETATM   13  H   UNL     1     -13.594  11.608  73.265  1.00  0.00     0.000 HD 
ENDBRANCH   4   6
ENDBRANCH   3   4
ENDBRANCH   2   3
TORSDOF 3
ENDMDL
MODEL       73
REMARK 921   NORMALIZED FREE ENERGY PREDICTED BY IDOCK:   -3.66 KCAL/MOL
REMARK 922        TOTAL FREE ENERGY PREDICTED BY IDOCK:   -4.54 KCAL/MOL
REMARK 923 INTER-LIGAND FREE ENERGY PREDICTED BY IDOCK:   -4.32 KCAL/MOL
REMARK 924 INTRA-LIGAND FREE ENERGY PREDICTED BY IDOCK:   -0.22 KCAL/MOL
REMARK 927      BINDING AFFINITY PREDICTED BY RF-SCORE:    0.00 PKD
ROOT
HETATM    1  C   UNL     1      -8.848   9.911  69.855  1.00  0.00    -0.222 C  
HETATM    2  C   UNL     1      -9.684  10.385  68.680  1.00  0.00    -0.175 C  
ENDROOT
BRANCH   2   3
HETATM    3  O   UNL     1     -10.991  10.709  69.169  1.00  0.00    -0.213 OA 
BRANCH   3   4
HETATM    4  C   UNL     1     -11.641  11.691  68.497  1.00  0.00    -0.317 C  
HETATM    5  O   UNL     1     -12.157  11.595  67.395  1.00  0.00    -0.605 OA 
BRANCH   4   6
HETATM    6  C   UNL     1     -11.732  12.906  69.350  1.00  0.00    -0.382 A  
HETATM    7  C   UNL     1     -11.193  14.105  68.861  1.00  0.00    -0.294 A  
HETATM    8  C   UNL     1     -11.305  15.279  69.606  1.00  0.00    -0.304 A  
HETATM    9  C   UNL     1     -11.963  15.253  70.833  1.00  0.00    -0.342 A  
HETATM   10  O   UNL     1     -12.091  16.374  71.596  1.00  0.00    -0.632 OA 
HETATM   11  C   UNL     1     -12.512  14.077  71.323  1.00  0.00    -0.448 A  
HETATM   12  C   UNL     1     -12.396  12.899  70.584  1.00  0.00    -0.385 A  
HETATM   13  H   UNL     1     -12.539  16.356  72.433  1.00  0.00     0.000 HD 
ENDBRANCH   4   6
ENDBRANCH   3   4
ENDBRANCH   2   3
TORSDOF 3
ENDMDL
MODEL       74
REMARK 921   NORMALIZED FREE ENERGY PREDICTED BY IDOCK:   -3.64 KCAL/MOL
REMARK 922        TOTAL FREE ENERGY PREDICTED BY IDOCK:   -4.51 KCAL/MOL
REMARK 923 INTER-LIGAND FREE ENERGY PREDICTED BY IDOCK:   -4.29 KCAL/MOL
REMARK 924 INTRA-LIGAND FREE ENERGY PREDICTED BY IDOCK:   -0.23 KCAL/MOL
REMARK 927      BINDING AFFINITY PREDICTED BY RF-SCORE:    0.00 PKD
ROOT
HETATM    1  C   UNL     1      -7.297  15.892  67.417  1.00  0.00    -0.224 C  
HETATM    2  C   UNL     1      -7.778  16.918  66.408  1.00  0.00    -0.310 C  
ENDROOT
BRANCH   2   3
HETATM    3  O   UNL     1      -8.911  16.371  65.724  1.00  0.00    -0.455 OA 
BRANCH   3   4
HETATM    4  C   UNL     1     -10.112  16.900  66.062  1.00  0.00    -0.319 C  
HETATM    5  O   UNL     1     -10.656  17.856  65.534  1.00  0.00    -0.638 OA 
BRANCH   4   6
HETATM    6  C   UNL     1     -10.742  16.075  67.127  1.00  0.00    -0.283 A  
HETATM    7  C   UNL     1     -10.834  16.612  68.419  1.00  0.00    -0.361 A  
HETATM    8  C   UNL     1     -11.466  15.893  69.434  1.00  0.00    -0.351 A  
HETATM    9  C   UNL     1     -12.010  14.642  69.152  1.00  0.00    -0.294 A  
HETATM   10  O   UNL     1     -12.631  13.902  70.113  1.00  0.00    -0.314 OA 
HETATM   11  C   UNL     1     -11.937  14.104  67.875  1.00  0.00    -0.378 A  
HETATM   12  C   UNL     1     -11.301  14.817  66.859  1.00  0.00    -0.358 A  
HETATM   13  H   UNL     1     -13.002  13.050  69.920  1.00  0.00     0.000 HD 
ENDBRANCH   4   6
ENDBRANCH   3   4
ENDBRANCH   2   3
TORSDOF 3
ENDMDL
MODEL       75
REMARK 921   NORMALIZED FREE ENERGY PREDICTED BY IDOCK:   -3.63 KCAL/MOL
REMARK 922        TOTAL FREE ENERGY PREDICTED BY IDOCK:   -4.50 KCAL/MOL
REMARK 923 INTER-LIGAND FREE ENERGY PREDICTED BY IDOCK:   -4.32 KCAL/MOL
REMARK 924 INTRA-LIGAND FREE ENERGY PREDICTED BY IDOCK:   -0.18 KCAL/MOL
REMARK 927      BINDING AFFINITY PREDICTED BY RF-SCORE:    0.00 PKD
ROOT
HETATM    1  C   UNL     1     -10.017  16.624  67.132  1.00  0.00    -0.268 C  
HETATM    2  C   UNL     1     -10.455  15.485  66.230  1.00  0.00    -0.307 C  
ENDROOT
BRANCH   2   3
HETATM    3  O   UNL     1     -11.419  14.701  66.942  1.00  0.00    -0.347 OA 
BRANCH   3   4
HETATM    4  C   UNL     1     -12.182  13.878  66.183  1.00  0.00    -0.464 C  
HETATM    5  O   UNL     1     -13.195  14.184  65.576  1.00  0.00    -0.688 OA 
BRANCH   4   6
HETATM    6  C   UNL     1     -11.545  12.536  66.104  1.00  0.00    -0.448 A  
HETATM    7  C   UNL     1     -11.561  11.723  67.246  1.00  0.00    -0.344 A  
HETATM    8  C   UNL     1     -11.023  10.436  67.199  1.00  0.00    -0.263 A  
HETATM    9  C   UNL     1     -10.476   9.965  66.007  1.00  0.00    -0.042 A  
HETATM   10  O   UNL     1      -9.935   8.718  65.917  1.00  0.00    -0.466 OA 
HETATM   11  C   UNL     1     -10.465  10.754  64.866  1.00  0.00    -0.324 A  
HETATM   12  C   UNL     1     -10.997  12.043  64.911  1.00  0.00    -0.356 A  
HETATM   13  H   UNL     1      -9.562   8.397  65.104  1.00  0.00     0.000 HD 
ENDBRANCH   4   6
ENDBRANCH   3   4
ENDBRANCH   2   3
TORSDOF 3
ENDMDL
MODEL       76
REMARK 921   NORMALIZED FREE ENERGY PREDICTED BY IDOCK:   -3.63 KCAL/MOL
REMARK 922        TOTAL FREE ENERGY PREDICTED BY IDOCK:   -4.50 KCAL/MOL
REMARK 923 INTER-LIGAND FREE ENERGY PREDICTED BY IDOCK:   -4.31 KCAL/MOL
REMARK 924 INTRA-LIGAND FREE ENERGY PREDICTED BY IDOCK:   -0.18 KCAL/MOL
REMARK 927      BINDING AFFINITY PREDICTED BY RF-SCORE:    0.00 PKD
ROOT
HETATM    1  C   UNL     1      -9.604   4.848  67.171  1.00  0.00    -0.175 C  
HETATM    2  C   UNL     1     -10.363   6.151  67.344  1.00  0.00    -0.211 C  
ENDROOT
BRANCH   2   3
HETATM    3  O   UNL     1     -10.795   6.235  68.707  1.00  0.00    -0.268 OA 
BRANCH   3   4
HETATM    4  C   UNL     1     -10.297   7.277  69.416  1.00  0.00    -0.208 C  
HETATM    5  O   UNL     1      -9.207   7.803  69.262  1.00  0.00    -0.146 OA 
BRANCH   4   6
HETATM    6  C   UNL     1     -11.328   7.774  70.367  1.00  0.00    -0.219 A  
HETATM    7  C   UNL     1     -12.255   6.857  70.883  1.00  0.00    -0.404 A  
HETATM    8  C   UNL     1     -13.204   7.270  71.819  1.00  0.00    -0.368 A  
HETATM    9  C   UNL     1     -13.218   8.598  72.241  1.00  0.00    -0.372 A  
HETATM   10  O   UNL     1     -14.130   9.047  73.148  1.00  0.00    -1.130 OA 
HETATM   11  C   UNL     1     -12.299   9.513  71.748  1.00  0.00    -0.474 A  
HETATM   12  C   UNL     1     -11.352   9.104  70.807  1.00  0.00    -0.337 A  
HETATM   13  H   UNL     1     -14.139   9.952  73.435  1.00  0.00     0.000 HD 
ENDBRANCH   4   6
ENDBRANCH   3   4
ENDBRANCH   2   3
TORSDOF 3
ENDMDL
MODEL       77
REMARK 921   NORMALIZED FREE ENERGY PREDICTED BY IDOCK:   -3.61 KCAL/MOL
REMARK 922        TOTAL FREE ENERGY PREDICTED BY IDOCK:   -4.47 KCAL/MOL
REMARK 923 INTER-LIGAND FREE ENERGY PREDICTED BY IDOCK:   -4.22 KCAL/MOL
REMARK 924 INTRA-LIGAND FREE ENERGY PREDICTED BY IDOCK:   -0.25 KCAL/MOL
REMARK 927      BINDING AFFINITY PREDICTED BY RF-SCORE:    0.00 PKD
ROOT
HETATM    1  C   UNL     1      -7.808  15.415  69.240  1.00  0.00    -0.225 C  
HETATM    2  C   UNL     1      -8.352  14.539  68.125  1.00  0.00    -0.147 C  
ENDROOT
BRANCH   2   3
HETATM    3  O   UNL     1      -9.557  13.923  68.594  1.00  0.00    -0.211 OA 
BRANCH   3   4
HETATM    4  C   UNL     1     -10.701  14.599  68.333  1.00  0.00    -0.241 C  
HETATM    5  O   UNL     1     -10.959  15.222  67.315  1.00  0.00    -0.316 OA 
BRANCH   4   6
HETATM    6  C   UNL     1     -11.670  14.393  69.442  1.00  0.00    -0.362 A  
HETATM    7  C   UNL     1     -11.858  13.091  69.929  1.00  0.00    -0.377 A  
HETATM    8  C   UNL     1     -12.717  12.862  71.005  1.00  0.00    -0.338 A  
HETATM    9  C   UNL     1     -13.380  13.936  71.594  1.00  0.00    -0.362 A  
HETATM   10  O   UNL     1     -14.232  13.758  72.642  1.00  0.00    -0.710 OA 
HETATM   11  C   UNL     1     -13.194  15.230  71.131  1.00  0.00    -0.567 A  
HETATM   12  C   UNL     1     -12.341  15.463  70.051  1.00  0.00    -0.368 A  
HETATM   13  H   UNL     1     -14.684  14.490  73.044  1.00  0.00     0.000 HD 
ENDBRANCH   4   6
ENDBRANCH   3   4
ENDBRANCH   2   3
TORSDOF 3
ENDMDL
MODEL       78
REMARK 921   NORMALIZED FREE ENERGY PREDICTED BY IDOCK:   -3.60 KCAL/MOL
REMARK 922        TOTAL FREE ENERGY PREDICTED BY IDOCK:   -4.46 KCAL/MOL
REMARK 923 INTER-LIGAND FREE ENERGY PREDICTED BY IDOCK:   -4.23 KCAL/MOL
REMARK 924 INTRA-LIGAND FREE ENERGY PREDICTED BY IDOCK:   -0.23 KCAL/MOL
REMARK 927      BINDING AFFINITY PREDICTED BY RF-SCORE:    0.00 PKD
ROOT
HETATM    1  C   UNL     1     -10.647  16.864  69.003  1.00  0.00    -0.338 C  
HETATM    2  C   UNL     1     -11.256  16.120  70.178  1.00  0.00    -0.370 C  
ENDROOT
BRANCH   2   3
HETATM    3  O   UNL     1     -12.320  15.300  69.681  1.00  0.00    -0.286 OA 
BRANCH   3   4
HETATM    4  C   UNL     1     -12.170  13.967  69.869  1.00  0.00    -0.333 C  
HETATM    5  O   UNL     1     -12.310  13.362  70.919  1.00  0.00    -0.366 OA 
BRANCH   4   6
HETATM    6  C   UNL     1     -11.901  13.305  68.564  1.00  0.00    -0.384 A  
HETATM    7  C   UNL     1     -12.141  14.029  67.387  1.00  0.00    -0.384 A  
HETATM    8  C   UNL     1     -11.851  13.464  66.145  1.00  0.00    -0.427 A  
HETATM    9  C   UNL     1     -11.315  12.180  66.083  1.00  0.00    -0.361 A  
HETATM   10  O   UNL     1     -11.022  11.587  64.892  1.00  0.00    -0.298 OA 
HETATM   11  C   UNL     1     -11.061  11.457  67.240  1.00  0.00    -0.363 A  
HETATM   12  C   UNL     1     -11.355  12.016  68.484  1.00  0.00    -0.323 A  
HETATM   13  H   UNL     1     -10.657  10.711  64.850  1.00  0.00     0.000 HD 
ENDBRANCH   4   6
ENDBRANCH   3   4
ENDBRANCH   2   3
TORSDOF 3
ENDMDL
MODEL       79
REMARK 921   NORMALIZED FREE ENERGY PREDICTED BY IDOCK:   -3.57 KCAL/MOL
REMARK 922        TOTAL FREE ENERGY PREDICTED BY IDOCK:   -4.43 KCAL/MOL
REMARK 923 INTER-LIGAND FREE ENERGY PREDICTED BY IDOCK:   -4.26 KCAL/MOL
REMARK 924 INTRA-LIGAND FREE ENERGY PREDICTED BY IDOCK:   -0.17 KCAL/MOL
REMARK 927      BINDING AFFINITY PREDICTED BY RF-SCORE:    0.00 PKD
ROOT
HETATM    1  C   UNL     1     -12.460   9.337  71.333  1.00  0.00    -0.418 C  
HETATM    2  C   UNL     1     -12.665  10.837  71.233  1.00  0.00    -0.441 C  
ENDROOT
BRANCH   2   3
HETATM    3  O   UNL     1     -12.116  11.278  69.986  1.00  0.00    -0.306 OA 
BRANCH   3   4
HETATM    4  C   UNL     1     -12.114  12.619  69.787  1.00  0.00    -0.233 C  
HETATM    5  O   UNL     1     -12.462  13.470  70.590  1.00  0.00    -0.346 OA 
BRANCH   4   6
HETATM    6  C   UNL     1     -11.519  12.928  68.460  1.00  0.00    -0.345 A  
HETATM    7  C   UNL     1     -11.209  11.862  67.604  1.00  0.00    -0.340 A  
HETATM    8  C   UNL     1     -10.699  12.111  66.329  1.00  0.00    -0.296 A  
HETATM    9  C   UNL     1     -10.510  13.426  65.911  1.00  0.00    -0.287 A  
HETATM   10  O   UNL     1     -10.010  13.716  64.678  1.00  0.00    -0.625 OA 
HETATM   11  C   UNL     1     -10.824  14.491  66.743  1.00  0.00    -0.305 A  
HETATM   12  C   UNL     1     -11.327  14.246  68.021  1.00  0.00    -0.318 A  
HETATM   13  H   UNL     1      -9.880  14.612  64.393  1.00  0.00     0.000 HD 
ENDBRANCH   4   6
ENDBRANCH   3   4
ENDBRANCH   2   3
TORSDOF 3
ENDMDL
MODEL       80
REMARK 921   NORMALIZED FREE ENERGY PREDICTED BY IDOCK:   -3.56 KCAL/MOL
REMARK 922        TOTAL FREE ENERGY PREDICTED BY IDOCK:   -4.42 KCAL/MOL
REMARK 923 INTER-LIGAND FREE ENERGY PREDICTED BY IDOCK:   -4.22 KCAL/MOL
REMARK 924 INTRA-LIGAND FREE ENERGY PREDICTED BY IDOCK:   -0.19 KCAL/MOL
REMARK 927      BINDING AFFINITY PREDICTED BY RF-SCORE:    0.00 PKD
ROOT
HETATM    1  C   UNL     1      -7.665  13.943  67.832  1.00  0.00    -0.161 C  
HETATM    2  C   UNL     1      -9.101  14.431  67.903  1.00  0.00    -0.187 C  
ENDROOT
BRANCH   2   3
HETATM    3  O   UNL     1      -9.957  13.348  67.521  1.00  0.00    -0.224 OA 
BRANCH   3   4
HETATM    4  C   UNL     1     -11.283  13.558  67.699  1.00  0.00    -0.279 C  
HETATM    5  O   UNL     1     -12.028  14.166  66.946  1.00  0.00    -0.413 OA 
BRANCH   4   6
HETATM    6  C   UNL     1     -11.745  12.844  68.919  1.00  0.00    -0.370 A  
HETATM    7  C   UNL     1     -12.125  13.605  70.033  1.00  0.00    -0.417 A  
HETATM    8  C   UNL     1     -12.615  12.976  71.179  1.00  0.00    -0.388 A  
HETATM    9  C   UNL     1     -12.730  11.588  71.203  1.00  0.00    -0.356 A  
HETATM   10  O   UNL     1     -13.198  10.932  72.301  1.00  0.00    -0.613 OA 
HETATM   11  C   UNL     1     -12.370  10.823  70.103  1.00  0.00    -0.401 A  
HETATM   12  C   UNL     1     -11.873  11.448  68.958  1.00  0.00    -0.415 A  
HETATM   13  H   UNL     1     -13.276   9.986  72.318  1.00  0.00     0.000 HD 
ENDBRANCH   4   6
ENDBRANCH   3   4
ENDBRANCH   2   3
TORSDOF 3
ENDMDL
MODEL       81
REMARK 921   NORMALIZED FREE ENERGY PREDICTED BY IDOCK:   -3.55 KCAL/MOL
REMARK 922        TOTAL FREE ENERGY PREDICTED BY IDOCK:   -4.41 KCAL/MOL
REMARK 923 INTER-LIGAND FREE ENERGY PREDICTED BY IDOCK:   -4.29 KCAL/MOL
REMARK 924 INTRA-LIGAND FREE ENERGY PREDICTED BY IDOCK:   -0.12 KCAL/MOL
REMARK 927      BINDING AFFINITY PREDICTED BY RF-SCORE:    0.00 PKD
ROOT
HETATM    1  C   UNL     1      -8.158  10.964  66.688  1.00  0.00    -0.147 C  
HETATM    2  C   UNL     1      -9.447  11.639  66.254  1.00  0.00    -0.218 C  
ENDROOT
BRANCH   2   3
HETATM    3  O   UNL     1      -9.997  12.318  67.389  1.00  0.00    -0.198 OA 
BRANCH   3   4
HETATM    4  C   UNL     1     -11.324  12.583  67.327  1.00  0.00    -0.315 C  
HETATM    5  O   UNL     1     -12.134  12.058  66.580  1.00  0.00    -0.615 OA 
BRANCH   4   6
HETATM    6  C   UNL     1     -11.691  13.555  68.391  1.00  0.00    -0.393 A  
HETATM    7  C   UNL     1     -12.071  13.058  69.646  1.00  0.00    -0.304 A  
HETATM    8  C   UNL     1     -12.370  13.937  70.688  1.00  0.00    -0.451 A  
HETATM    9  C   UNL     1     -12.283  15.310  70.472  1.00  0.00    -0.371 A  
HETATM   10  O   UNL     1     -12.572  16.205  71.458  1.00  0.00    -0.561 OA 
HETATM   11  C   UNL     1     -11.897  15.816  69.240  1.00  0.00    -0.358 A  
HETATM   12  C   UNL     1     -11.602  14.940  68.194  1.00  0.00    -0.356 A  
HETATM   13  H   UNL     1     -12.512  17.141  71.312  1.00  0.00     0.000 HD 
ENDBRANCH   4   6
ENDBRANCH   3   4
ENDBRANCH   2   3
TORSDOF 3
ENDMDL
MODEL       82
REMARK 921   NORMALIZED FREE ENERGY PREDICTED BY IDOCK:   -3.55 KCAL/MOL
REMARK 922        TOTAL FREE ENERGY PREDICTED BY IDOCK:   -4.40 KCAL/MOL
REMARK 923 INTER-LIGAND FREE ENERGY PREDICTED BY IDOCK:   -4.17 KCAL/MOL
REMARK 924 INTRA-LIGAND FREE ENERGY PREDICTED BY IDOCK:   -0.24 KCAL/MOL
REMARK 927      BINDING AFFINITY PREDICTED BY RF-SCORE:    0.00 PKD
ROOT
HETATM    1  C   UNL     1      -8.561   9.335  65.576  1.00  0.00    -0.172 C  
HETATM    2  C   UNL     1      -9.210  10.175  64.491  1.00  0.00    -0.257 C  
ENDROOT
BRANCH   2   3
HETATM    3  O   UNL     1     -10.545  10.482  64.906  1.00  0.00    -0.247 OA 
BRANCH   3   4
HETATM    4  C   UNL     1     -11.000  11.710  64.556  1.00  0.00    -0.314 C  
HETATM    5  O   UNL     1     -11.151  12.129  63.420  1.00  0.00    -0.431 OA 
BRANCH   4   6
HETATM    6  C   UNL     1     -11.397  12.464  65.775  1.00  0.00    -0.393 A  
HETATM    7  C   UNL     1     -11.289  11.825  67.018  1.00  0.00    -0.387 A  
HETATM    8  C   UNL     1     -11.600  12.514  68.191  1.00  0.00    -0.390 A  
HETATM    9  C   UNL     1     -12.010  13.843  68.116  1.00  0.00    -0.350 A  
HETATM   10  O   UNL     1     -12.329  14.553  69.234  1.00  0.00    -0.524 OA 
HETATM   11  C   UNL     1     -12.109  14.492  66.894  1.00  0.00    -0.309 A  
HETATM   12  C   UNL     1     -11.805  13.804  65.719  1.00  0.00    -0.392 A  
HETATM   13  H   UNL     1     -12.608  15.460  69.184  1.00  0.00     0.000 HD 
ENDBRANCH   4   6
ENDBRANCH   3   4
ENDBRANCH   2   3
TORSDOF 3
ENDMDL
MODEL       83
REMARK 921   NORMALIZED FREE ENERGY PREDICTED BY IDOCK:   -3.54 KCAL/MOL
REMARK 922        TOTAL FREE ENERGY PREDICTED BY IDOCK:   -4.40 KCAL/MOL
REMARK 923 INTER-LIGAND FREE ENERGY PREDICTED BY IDOCK:   -4.17 KCAL/MOL
REMARK 924 INTRA-LIGAND FREE ENERGY PREDICTED BY IDOCK:   -0.23 KCAL/MOL
REMARK 927      BINDING AFFINITY PREDICTED BY RF-SCORE:    0.00 PKD
ROOT
HETATM    1  C   UNL     1      -9.696  10.798  63.450  1.00  0.00    -0.394 C  
HETATM    2  C   UNL     1     -10.891  11.720  63.605  1.00  0.00    -0.440 C  
ENDROOT
BRANCH   2   3
HETATM    3  O   UNL     1     -11.108  11.934  65.004  1.00  0.00    -0.304 OA 
BRANCH   3   4
HETATM    4  C   UNL     1     -11.842  13.028  65.323  1.00  0.00    -0.376 C  
HETATM    5  O   UNL     1     -13.056  13.077  65.436  1.00  0.00    -0.607 OA 
BRANCH   4   6
HETATM    6  C   UNL     1     -10.937  14.169  65.624  1.00  0.00    -0.308 A  
HETATM    7  C   UNL     1      -9.718  13.902  66.264  1.00  0.00    -0.304 A  
HETATM    8  C   UNL     1      -8.816  14.937  66.516  1.00  0.00    -0.256 A  
HETATM    9  C   UNL     1      -9.134  16.234  66.120  1.00  0.00    -0.341 A  
HETATM   10  O   UNL     1      -8.286  17.275  66.351  1.00  0.00    -0.255 OA 
HETATM   11  C   UNL     1     -10.330  16.510  65.475  1.00  0.00    -0.307 A  
HETATM   12  C   UNL     1     -11.237  15.479  65.226  1.00  0.00    -0.278 A  
HETATM   13  H   UNL     1      -8.502  18.160  66.081  1.00  0.00     0.000 HD 
ENDBRANCH   4   6
ENDBRANCH   3   4
ENDBRANCH   2   3
TORSDOF 3
ENDMDL
MODEL       84
REMARK 921   NORMALIZED FREE ENERGY PREDICTED BY IDOCK:   -3.54 KCAL/MOL
REMARK 922        TOTAL FREE ENERGY PREDICTED BY IDOCK:   -4.39 KCAL/MOL
REMARK 923 INTER-LIGAND FREE ENERGY PREDICTED BY IDOCK:   -4.15 KCAL/MOL
REMARK 924 INTRA-LIGAND FREE ENERGY PREDICTED BY IDOCK:   -0.24 KCAL/MOL
REMARK 927      BINDING AFFINITY PREDICTED BY RF-SCORE:    0.00 PKD
ROOT
HETATM    1  C   UNL     1      -7.616  20.355  67.359  1.00  0.00    -0.364 C  
HETATM    2  C   UNL     1      -7.434  19.664  66.020  1.00  0.00    -0.311 C  
ENDROOT
BRANCH   2   3
HETATM    3  O   UNL     1      -8.447  18.659  65.899  1.00  0.00    -0.491 OA 
BRANCH   3   4
HETATM    4  C   UNL     1      -8.078  17.407  66.262  1.00  0.00    -0.263 C  
HETATM    5  O   UNL     1      -6.936  16.988  66.360  1.00  0.00    -0.239 OA 
BRANCH   4   6
HETATM    6  C   UNL     1      -9.282  16.617  66.634  1.00  0.00    -0.277 A  
HETATM    7  C   UNL     1      -9.594  15.480  65.875  1.00  0.00    -0.383 A  
HETATM    8  C   UNL     1     -10.684  14.681  66.223  1.00  0.00    -0.316 A  
HETATM    9  C   UNL     1     -11.453  15.017  67.334  1.00  0.00    -0.317 A  
HETATM   10  O   UNL     1     -12.529  14.270  67.708  1.00  0.00    -0.567 OA 
HETATM   11  C   UNL     1     -11.148  16.132  68.102  1.00  0.00    -0.332 A  
HETATM   12  C   UNL     1     -10.063  16.937  67.753  1.00  0.00    -0.292 A  
HETATM   13  H   UNL     1     -13.053  14.499  68.465  1.00  0.00     0.000 HD 
ENDBRANCH   4   6
ENDBRANCH   3   4
ENDBRANCH   2   3
TORSDOF 3
ENDMDL
MODEL       85
REMARK 921   NORMALIZED FREE ENERGY PREDICTED BY IDOCK:   -3.52 KCAL/MOL
REMARK 922        TOTAL FREE ENERGY PREDICTED BY IDOCK:   -4.37 KCAL/MOL
REMARK 923 INTER-LIGAND FREE ENERGY PREDICTED BY IDOCK:   -4.18 KCAL/MOL
REMARK 924 INTRA-LIGAND FREE ENERGY PREDICTED BY IDOCK:   -0.19 KCAL/MOL
REMARK 927      BINDING AFFINITY PREDICTED BY RF-SCORE:    0.00 PKD
ROOT
HETATM    1  C   UNL     1     -10.439   5.300  74.228  1.00  0.00    -0.304 C  
HETATM    2  C   UNL     1     -10.483   6.034  72.900  1.00  0.00    -0.219 C  
ENDROOT
BRANCH   2   3
HETATM    3  O   UNL     1     -10.796   7.407  73.162  1.00  0.00    -0.343 OA 
BRANCH   3   4
HETATM    4  C   UNL     1      -9.928   8.313  72.651  1.00  0.00    -0.287 C  
HETATM    5  O   UNL     1      -8.776   8.497  73.010  1.00  0.00    -0.343 OA 
BRANCH   4   6
HETATM    6  C   UNL     1     -10.552   9.006  71.491  1.00  0.00    -0.415 A  
HETATM    7  C   UNL     1     -11.861   9.489  71.629  1.00  0.00    -0.468 A  
HETATM    8  C   UNL     1     -12.463  10.191  70.585  1.00  0.00    -0.372 A  
HETATM    9  C   UNL     1     -11.751  10.415  69.409  1.00  0.00    -0.160 A  
HETATM   10  O   UNL     1     -12.301  11.090  68.361  1.00  0.00    -0.762 OA 
HETATM   11  C   UNL     1     -10.451   9.954  69.263  1.00  0.00    -0.240 A  
HETATM   12  C   UNL     1      -9.848   9.245  70.303  1.00  0.00    -0.265 A  
HETATM   13  H   UNL     1     -11.816  11.243  67.559  1.00  0.00     0.000 HD 
ENDBRANCH   4   6
ENDBRANCH   3   4
ENDBRANCH   2   3
TORSDOF 3
ENDMDL
MODEL       86
REMARK 921   NORMALIZED FREE ENERGY PREDICTED BY IDOCK:   -3.50 KCAL/MOL
REMARK 922        TOTAL FREE ENERGY PREDICTED BY IDOCK:   -4.35 KCAL/MOL
REMARK 923 INTER-LIGAND FREE ENERGY PREDICTED BY IDOCK:   -4.18 KCAL/MOL
REMARK 924 INTRA-LIGAND FREE ENERGY PREDICTED BY IDOCK:   -0.17 KCAL/MOL
REMARK 927      BINDING AFFINITY PREDICTED BY RF-SCORE:    0.00 PKD
ROOT
HETATM    1  C   UNL     1     -10.554  19.419  67.436  1.00  0.00    -0.603 C  
HETATM    2  C   UNL     1     -10.254  18.253  68.360  1.00  0.00    -0.380 C  
ENDROOT
BRANCH   2   3
HETATM    3  O   UNL     1     -11.018  17.126  67.916  1.00  0.00    -0.343 OA 
BRANCH   3   4
HETATM    4  C   UNL     1     -11.114  16.100  68.795  1.00  0.00    -0.354 C  
HETATM    5  O   UNL     1     -11.262  16.192  70.003  1.00  0.00    -0.334 OA 
BRANCH   4   6
HETATM    6  C   UNL     1     -11.115  14.807  68.058  1.00  0.00    -0.294 A  
HETATM    7  C   UNL     1     -10.384  14.720  66.865  1.00  0.00    -0.267 A  
HETATM    8  C   UNL     1     -10.315  13.511  66.172  1.00  0.00    -0.296 A  
HETATM    9  C   UNL     1     -10.972  12.392  66.678  1.00  0.00    -0.268 A  
HETATM   10  O   UNL     1     -10.937  11.193  66.032  1.00  0.00    -0.227 OA 
HETATM   11  C   UNL     1     -11.689  12.461  67.864  1.00  0.00    -0.421 A  
HETATM   12  C   UNL     1     -11.765  13.670  68.557  1.00  0.00    -0.392 A  
HETATM   13  H   UNL     1     -11.385  10.430  66.377  1.00  0.00     0.000 HD 
ENDBRANCH   4   6
ENDBRANCH   3   4
ENDBRANCH   2   3
TORSDOF 3
ENDMDL
MODEL       87
REMARK 921   NORMALIZED FREE ENERGY PREDICTED BY IDOCK:   -3.49 KCAL/MOL
REMARK 922        TOTAL FREE ENERGY PREDICTED BY IDOCK:   -4.34 KCAL/MOL
REMARK 923 INTER-LIGAND FREE ENERGY PREDICTED BY IDOCK:   -4.10 KCAL/MOL
REMARK 924 INTRA-LIGAND FREE ENERGY PREDICTED BY IDOCK:   -0.24 KCAL/MOL
REMARK 927      BINDING AFFINITY PREDICTED BY RF-SCORE:    0.00 PKD
ROOT
HETATM    1  C   UNL     1      -6.799  19.162  69.347  1.00  0.00    -0.299 C  
HETATM    2  C   UNL     1      -7.536  19.833  68.201  1.00  0.00    -0.308 C  
ENDROOT
BRANCH   2   3
HETATM    3  O   UNL     1      -8.852  19.273  68.132  1.00  0.00    -0.308 OA 
BRANCH   3   4
HETATM    4  C   UNL     1      -9.190  18.714  66.945  1.00  0.00    -0.304 C  
HETATM    5  O   UNL     1      -8.889  19.130  65.837  1.00  0.00    -0.450 OA 
BRANCH   4   6
HETATM    6  C   UNL     1      -9.912  17.435  67.179  1.00  0.00    -0.291 A  
HETATM    7  C   UNL     1     -10.451  17.198  68.452  1.00  0.00    -0.376 A  
HETATM    8  C   UNL     1     -11.182  16.035  68.699  1.00  0.00    -0.366 A  
HETATM    9  C   UNL     1     -11.377  15.117  67.670  1.00  0.00    -0.321 A  
HETATM   10  O   UNL     1     -12.079  13.966  67.867  1.00  0.00    -0.410 OA 
HETATM   11  C   UNL     1     -10.861  15.345  66.403  1.00  0.00    -0.303 A  
HETATM   12  C   UNL     1     -10.124  16.503  66.154  1.00  0.00    -0.365 A  
HETATM   13  H   UNL     1     -12.212  13.340  67.166  1.00  0.00     0.000 HD 
ENDBRANCH   4   6
ENDBRANCH   3   4
ENDBRANCH   2   3
TORSDOF 3
ENDMDL
MODEL       88
REMARK 921   NORMALIZED FREE ENERGY PREDICTED BY IDOCK:   -3.49 KCAL/MOL
REMARK 922        TOTAL FREE ENERGY PREDICTED BY IDOCK:   -4.33 KCAL/MOL
REMARK 923 INTER-LIGAND FREE ENERGY PREDICTED BY IDOCK:   -4.09 KCAL/MOL
REMARK 924 INTRA-LIGAND FREE ENERGY PREDICTED BY IDOCK:   -0.25 KCAL/MOL
REMARK 927      BINDING AFFINITY PREDICTED BY RF-SCORE:    0.00 PKD
ROOT
HETATM    1  C   UNL     1     -12.521  13.395  65.250  1.00  0.00    -0.532 C  
HETATM    2  C   UNL     1     -11.245  13.549  64.443  1.00  0.00    -0.379 C  
ENDROOT
BRANCH   2   3
HETATM    3  O   UNL     1     -10.627  14.785  64.822  1.00  0.00    -0.413 OA 
BRANCH   3   4
HETATM    4  C   UNL     1      -9.895  14.749  65.962  1.00  0.00    -0.324 C  
HETATM    5  O   UNL     1      -9.209  13.818  66.353  1.00  0.00    -0.232 OA 
BRANCH   4   6
HETATM    6  C   UNL     1      -9.961  16.070  66.642  1.00  0.00    -0.277 A  
HETATM    7  C   UNL     1      -9.486  17.197  65.956  1.00  0.00    -0.167 A  
HETATM    8  C   UNL     1      -9.579  18.462  66.537  1.00  0.00    -0.327 A  
HETATM    9  C   UNL     1     -10.153  18.597  67.798  1.00  0.00    -0.371 A  
HETATM   10  O   UNL     1     -10.260  19.812  68.406  1.00  0.00    -0.436 OA 
HETATM   11  C   UNL     1     -10.638  17.492  68.483  1.00  0.00    -0.312 A  
HETATM   12  C   UNL     1     -10.541  16.224  67.909  1.00  0.00    -0.318 A  
HETATM   13  H   UNL     1     -10.651  19.904  69.266  1.00  0.00     0.000 HD 
ENDBRANCH   4   6
ENDBRANCH   3   4
ENDBRANCH   2   3
TORSDOF 3
ENDMDL
MODEL       89
REMARK 921   NORMALIZED FREE ENERGY PREDICTED BY IDOCK:   -3.48 KCAL/MOL
REMARK 922        TOTAL FREE ENERGY PREDICTED BY IDOCK:   -4.32 KCAL/MOL
REMARK 923 INTER-LIGAND FREE ENERGY PREDICTED BY IDOCK:   -4.20 KCAL/MOL
REMARK 924 INTRA-LIGAND FREE ENERGY PREDICTED BY IDOCK:   -0.12 KCAL/MOL
REMARK 927      BINDING AFFINITY PREDICTED BY RF-SCORE:    0.00 PKD
ROOT
HETATM    1  C   UNL     1      -8.670   9.838  69.794  1.00  0.00    -0.228 C  
HETATM    2  C   UNL     1      -9.924  10.623  69.453  1.00  0.00    -0.158 C  
ENDROOT
BRANCH   2   3
HETATM    3  O   UNL     1      -9.836  11.025  68.081  1.00  0.00    -0.166 OA 
BRANCH   3   4
HETATM    4  C   UNL     1      -9.415  12.295  67.869  1.00  0.00    -0.200 C  
HETATM    5  O   UNL     1      -8.422  12.819  68.347  1.00  0.00    -0.164 OA 
BRANCH   4   6
HETATM    6  C   UNL     1     -10.294  12.954  66.866  1.00  0.00    -0.247 A  
HETATM    7  C   UNL     1      -9.781  14.038  66.140  1.00  0.00    -0.300 A  
HETATM    8  C   UNL     1     -10.554  14.650  65.152  1.00  0.00    -0.441 A  
HETATM    9  C   UNL     1     -11.835  14.171  64.890  1.00  0.00    -0.402 A  
HETATM   10  O   UNL     1     -12.628  14.741  63.939  1.00  0.00    -0.952 OA 
HETATM   11  C   UNL     1     -12.351  13.091  65.592  1.00  0.00    -0.504 A  
HETATM   12  C   UNL     1     -11.584  12.481  66.585  1.00  0.00    -0.442 A  
HETATM   13  H   UNL     1     -13.501  14.414  63.760  1.00  0.00     0.000 HD 
ENDBRANCH   4   6
ENDBRANCH   3   4
ENDBRANCH   2   3
TORSDOF 3
ENDMDL
MODEL       90
REMARK 921   NORMALIZED FREE ENERGY PREDICTED BY IDOCK:   -3.48 KCAL/MOL
REMARK 922        TOTAL FREE ENERGY PREDICTED BY IDOCK:   -4.32 KCAL/MOL
REMARK 923 INTER-LIGAND FREE ENERGY PREDICTED BY IDOCK:   -4.05 KCAL/MOL
REMARK 924 INTRA-LIGAND FREE ENERGY PREDICTED BY IDOCK:   -0.26 KCAL/MOL
REMARK 927      BINDING AFFINITY PREDICTED BY RF-SCORE:    0.00 PKD
ROOT
HETATM    1  C   UNL     1     -12.265  13.665  64.163  1.00  0.00    -0.450 C  
HETATM    2  C   UNL     1     -12.178  13.933  65.654  1.00  0.00    -0.452 C  
ENDROOT
BRANCH   2   3
HETATM    3  O   UNL     1     -11.072  13.188  66.175  1.00  0.00    -0.278 OA 
BRANCH   3   4
HETATM    4  C   UNL     1     -11.390  12.039  66.818  1.00  0.00    -0.339 C  
HETATM    5  O   UNL     1     -12.265  11.896  67.657  1.00  0.00    -0.510 OA 
BRANCH   4   6
HETATM    6  C   UNL     1     -10.574  10.919  66.276  1.00  0.00    -0.276 A  
HETATM    7  C   UNL     1     -10.425   9.765  67.058  1.00  0.00    -0.295 A  
HETATM    8  C   UNL     1      -9.713   8.670  66.565  1.00  0.00    -0.325 A  
HETATM    9  C   UNL     1      -9.160   8.732  65.288  1.00  0.00    -0.096 A  
HETATM   10  O   UNL     1      -8.452   7.690  64.769  1.00  0.00    -0.342 OA 
HETATM   11  C   UNL     1      -9.310   9.862  64.499  1.00  0.00    -0.336 A  
HETATM   12  C   UNL     1     -10.016  10.961  64.991  1.00  0.00    -0.356 A  
HETATM   13  H   UNL     1      -8.075   7.732  63.898  1.00  0.00     0.000 HD 
ENDBRANCH   4   6
ENDBRANCH   3   4
ENDBRANCH   2   3
TORSDOF 3
ENDMDL
MODEL       91
REMARK 921   NORMALIZED FREE ENERGY PREDICTED BY IDOCK:   -3.46 KCAL/MOL
REMARK 922        TOTAL FREE ENERGY PREDICTED BY IDOCK:   -4.30 KCAL/MOL
REMARK 923 INTER-LIGAND FREE ENERGY PREDICTED BY IDOCK:   -4.14 KCAL/MOL
REMARK 924 INTRA-LIGAND FREE ENERGY PREDICTED BY IDOCK:   -0.16 KCAL/MOL
REMARK 927      BINDING AFFINITY PREDICTED BY RF-SCORE:    0.00 PKD
ROOT
HETATM    1  C   UNL     1     -12.329  10.723  70.546  1.00  0.00    -0.458 C  
HETATM    2  C   UNL     1     -11.478  11.403  69.489  1.00  0.00    -0.312 C  
ENDROOT
BRANCH   2   3
HETATM    3  O   UNL     1     -11.871  10.894  68.209  1.00  0.00    -0.530 OA 
BRANCH   3   4
HETATM    4  C   UNL     1     -11.014  10.012  67.641  1.00  0.00    -0.234 C  
HETATM    5  O   UNL     1     -10.724   8.905  68.068  1.00  0.00    -0.200 OA 
BRANCH   4   6
HETATM    6  C   UNL     1     -10.535  10.545  66.338  1.00  0.00    -0.258 A  
HETATM    7  C   UNL     1      -9.848   9.679  65.475  1.00  0.00    -0.352 A  
HETATM    8  C   UNL     1      -9.429  10.125  64.221  1.00  0.00    -0.366 A  
HETATM    9  C   UNL     1      -9.705  11.434  63.832  1.00  0.00    -0.270 A  
HETATM   10  O   UNL     1      -9.310  11.914  62.619  1.00  0.00    -0.487 OA 
HETATM   11  C   UNL     1     -10.394  12.298  64.670  1.00  0.00    -0.330 A  
HETATM   12  C   UNL     1     -10.809  11.858  65.927  1.00  0.00    -0.342 A  
HETATM   13  H   UNL     1      -9.498  12.806  62.353  1.00  0.00     0.000 HD 
ENDBRANCH   4   6
ENDBRANCH   3   4
ENDBRANCH   2   3
TORSDOF 3
ENDMDL
MODEL       92
REMARK 921   NORMALIZED FREE ENERGY PREDICTED BY IDOCK:   -3.45 KCAL/MOL
REMARK 922        TOTAL FREE ENERGY PREDICTED BY IDOCK:   -4.29 KCAL/MOL
REMARK 923 INTER-LIGAND FREE ENERGY PREDICTED BY IDOCK:   -4.04 KCAL/MOL
REMARK 924 INTRA-LIGAND FREE ENERGY PREDICTED BY IDOCK:   -0.25 KCAL/MOL
REMARK 927      BINDING AFFINITY PREDICTED BY RF-SCORE:    0.00 PKD
ROOT
HETATM    1  C   UNL     1      -9.193  10.024  63.141  1.00  0.00    -0.313 C  
HETATM    2  C   UNL     1      -9.876  11.370  62.972  1.00  0.00    -0.347 C  
ENDROOT
BRANCH   2   3
HETATM    3  O   UNL     1     -10.772  11.554  64.074  1.00  0.00    -0.328 OA 
BRANCH   3   4
HETATM    4  C   UNL     1     -10.535  12.642  64.846  1.00  0.00    -0.309 C  
HETATM    5  O   UNL     1     -10.126  13.726  64.464  1.00  0.00    -0.348 OA 
BRANCH   4   6
HETATM    6  C   UNL     1     -10.946  12.361  66.248  1.00  0.00    -0.323 A  
HETATM    7  C   UNL     1     -10.756  11.066  66.751  1.00  0.00    -0.319 A  
HETATM    8  C   UNL     1     -11.078  10.775  68.077  1.00  0.00    -0.359 A  
HETATM    9  C   UNL     1     -11.582  11.781  68.897  1.00  0.00    -0.309 A  
HETATM   10  O   UNL     1     -11.916  11.541  70.196  1.00  0.00    -0.325 OA 
HETATM   11  C   UNL     1     -11.764  13.069  68.416  1.00  0.00    -0.386 A  
HETATM   12  C   UNL     1     -11.449  13.363  67.089  1.00  0.00    -0.373 A  
HETATM   13  H   UNL     1     -12.260  12.227  70.755  1.00  0.00     0.000 HD 
ENDBRANCH   4   6
ENDBRANCH   3   4
ENDBRANCH   2   3
TORSDOF 3
ENDMDL
MODEL       93
REMARK 921   NORMALIZED FREE ENERGY PREDICTED BY IDOCK:   -3.43 KCAL/MOL
REMARK 922        TOTAL FREE ENERGY PREDICTED BY IDOCK:   -4.27 KCAL/MOL
REMARK 923 INTER-LIGAND FREE ENERGY PREDICTED BY IDOCK:   -4.13 KCAL/MOL
REMARK 924 INTRA-LIGAND FREE ENERGY PREDICTED BY IDOCK:   -0.14 KCAL/MOL
REMARK 927      BINDING AFFINITY PREDICTED BY RF-SCORE:    0.00 PKD
ROOT
HETATM    1  C   UNL     1      -9.620   8.019  73.062  1.00  0.00    -0.347 C  
HETATM    2  C   UNL     1     -10.862   8.204  72.210  1.00  0.00    -0.320 C  
ENDROOT
BRANCH   2   3
HETATM    3  O   UNL     1     -10.804   9.507  71.618  1.00  0.00    -0.343 OA 
BRANCH   3   4
HETATM    4  C   UNL     1     -11.993  10.024  71.223  1.00  0.00    -0.394 C  
HETATM    5  O   UNL     1     -13.094   9.715  71.647  1.00  0.00    -0.357 OA 
BRANCH   4   6
HETATM    6  C   UNL     1     -11.761  11.122  70.245  1.00  0.00    -0.431 A  
HETATM    7  C   UNL     1     -11.137  10.810  69.029  1.00  0.00    -0.308 A  
HETATM    8  C   UNL     1     -10.950  11.800  68.063  1.00  0.00    -0.274 A  
HETATM    9  C   UNL     1     -11.395  13.095  68.314  1.00  0.00    -0.297 A  
HETATM   10  O   UNL     1     -11.228  14.094  67.403  1.00  0.00    -0.296 OA 
HETATM   11  C   UNL     1     -12.025  13.415  69.508  1.00  0.00    -0.377 A  
HETATM   12  C   UNL     1     -12.208  12.430  70.479  1.00  0.00    -0.382 A  
HETATM   13  H   UNL     1     -11.531  14.978  67.574  1.00  0.00     0.000 HD 
ENDBRANCH   4   6
ENDBRANCH   3   4
ENDBRANCH   2   3
TORSDOF 3
ENDMDL
MODEL       94
REMARK 921   NORMALIZED FREE ENERGY PREDICTED BY IDOCK:   -3.43 KCAL/MOL
REMARK 922        TOTAL FREE ENERGY PREDICTED BY IDOCK:   -4.26 KCAL/MOL
REMARK 923 INTER-LIGAND FREE ENERGY PREDICTED BY IDOCK:   -4.04 KCAL/MOL
REMARK 924 INTRA-LIGAND FREE ENERGY PREDICTED BY IDOCK:   -0.22 KCAL/MOL
REMARK 927      BINDING AFFINITY PREDICTED BY RF-SCORE:    0.00 PKD
ROOT
HETATM    1  C   UNL     1     -11.421   6.803  70.165  1.00  0.00    -0.404 C  
HETATM    2  C   UNL     1     -10.226   7.247  69.340  1.00  0.00    -0.192 C  
ENDROOT
BRANCH   2   3
HETATM    3  O   UNL     1     -10.355   8.651  69.093  1.00  0.00    -0.211 OA 
BRANCH   3   4
HETATM    4  C   UNL     1     -10.594   9.000  67.806  1.00  0.00    -0.214 C  
HETATM    5  O   UNL     1     -10.563   8.259  66.837  1.00  0.00    -0.321 OA 
BRANCH   4   6
HETATM    6  C   UNL     1     -11.012  10.426  67.742  1.00  0.00    -0.369 A  
HETATM    7  C   UNL     1     -10.897  11.101  66.518  1.00  0.00    -0.302 A  
HETATM    8  C   UNL     1     -11.327  12.423  66.402  1.00  0.00    -0.392 A  
HETATM    9  C   UNL     1     -11.879  13.064  67.509  1.00  0.00    -0.355 A  
HETATM   10  O   UNL     1     -12.307  14.355  67.443  1.00  0.00    -0.623 OA 
HETATM   11  C   UNL     1     -12.010  12.405  68.723  1.00  0.00    -0.276 A  
HETATM   12  C   UNL     1     -11.575  11.085  68.845  1.00  0.00    -0.383 A  
HETATM   13  H   UNL     1     -12.683  14.793  68.198  1.00  0.00     0.000 HD 
ENDBRANCH   4   6
ENDBRANCH   3   4
ENDBRANCH   2   3
TORSDOF 3
ENDMDL
MODEL       95
REMARK 921   NORMALIZED FREE ENERGY PREDICTED BY IDOCK:   -3.37 KCAL/MOL
REMARK 922        TOTAL FREE ENERGY PREDICTED BY IDOCK:   -4.20 KCAL/MOL
REMARK 923 INTER-LIGAND FREE ENERGY PREDICTED BY IDOCK:   -3.96 KCAL/MOL
REMARK 924 INTRA-LIGAND FREE ENERGY PREDICTED BY IDOCK:   -0.24 KCAL/MOL
REMARK 927      BINDING AFFINITY PREDICTED BY RF-SCORE:    0.00 PKD
ROOT
HETATM    1  C   UNL     1     -11.864  11.980  68.508  1.00  0.00    -0.369 C  
HETATM    2  C   UNL     1     -11.623  12.109  67.015  1.00  0.00    -0.337 C  
ENDROOT
BRANCH   2   3
HETATM    3  O   UNL     1     -10.748  13.223  66.802  1.00  0.00    -0.273 OA 
BRANCH   3   4
HETATM    4  C   UNL     1     -11.330  14.336  66.293  1.00  0.00    -0.346 C  
HETATM    5  O   UNL     1     -12.293  14.371  65.544  1.00  0.00    -0.392 OA 
BRANCH   4   6
HETATM    6  C   UNL     1     -10.682  15.547  66.864  1.00  0.00    -0.317 A  
HETATM    7  C   UNL     1      -9.751  16.238  66.076  1.00  0.00    -0.370 A  
HETATM    8  C   UNL     1      -9.160  17.409  66.553  1.00  0.00    -0.288 A  
HETATM    9  C   UNL     1      -9.509  17.888  67.813  1.00  0.00    -0.263 A  
HETATM   10  O   UNL     1      -8.954  19.024  68.322  1.00  0.00    -0.307 OA 
HETATM   11  C   UNL     1     -10.438  17.221  68.598  1.00  0.00    -0.356 A  
HETATM   12  C   UNL     1     -11.026  16.047  68.128  1.00  0.00    -0.339 A  
HETATM   13  H   UNL     1      -9.191  19.351  69.181  1.00  0.00     0.000 HD 
ENDBRANCH   4   6
ENDBRANCH   3   4
ENDBRANCH   2   3
TORSDOF 3
ENDMDL
MODEL       96
REMARK 921   NORMALIZED FREE ENERGY PREDICTED BY IDOCK:   -3.37 KCAL/MOL
REMARK 922        TOTAL FREE ENERGY PREDICTED BY IDOCK:   -4.20 KCAL/MOL
REMARK 923 INTER-LIGAND FREE ENERGY PREDICTED BY IDOCK:   -4.02 KCAL/MOL
REMARK 924 INTRA-LIGAND FREE ENERGY PREDICTED BY IDOCK:   -0.17 KCAL/MOL
REMARK 927      BINDING AFFINITY PREDICTED BY RF-SCORE:    0.00 PKD
ROOT
HETATM    1  C   UNL     1     -11.667   8.567  72.355  1.00  0.00    -0.429 C  
HETATM    2  C   UNL     1     -10.698   9.246  71.404  1.00  0.00    -0.362 C  
ENDROOT
BRANCH   2   3
HETATM    3  O   UNL     1     -11.413   9.585  70.210  1.00  0.00    -0.251 OA 
BRANCH   3   4
HETATM    4  C   UNL     1     -11.670  10.904  70.036  1.00  0.00    -0.345 C  
HETATM    5  O   UNL     1     -11.962  11.706  70.908  1.00  0.00    -0.289 OA 
BRANCH   4   6
HETATM    6  C   UNL     1     -11.443  11.275  68.614  1.00  0.00    -0.362 A  
HETATM    7  C   UNL     1     -11.857  12.544  68.182  1.00  0.00    -0.371 A  
HETATM    8  C   UNL     1     -11.614  12.952  66.870  1.00  0.00    -0.425 A  
HETATM    9  C   UNL     1     -10.953  12.093  65.996  1.00  0.00    -0.293 A  
HETATM   10  O   UNL     1     -10.700  12.447  64.705  1.00  0.00    -0.276 OA 
HETATM   11  C   UNL     1     -10.527  10.840  66.413  1.00  0.00    -0.293 A  
HETATM   12  C   UNL     1     -10.774  10.426  67.722  1.00  0.00    -0.327 A  
HETATM   13  H   UNL     1     -10.249  11.861  64.109  1.00  0.00     0.000 HD 
ENDBRANCH   4   6
ENDBRANCH   3   4
ENDBRANCH   2   3
TORSDOF 3
ENDMDL
MODEL       97
REMARK 921   NORMALIZED FREE ENERGY PREDICTED BY IDOCK:   -3.36 KCAL/MOL
REMARK 922        TOTAL FREE ENERGY PREDICTED BY IDOCK:   -4.18 KCAL/MOL
REMARK 923 INTER-LIGAND FREE ENERGY PREDICTED BY IDOCK:   -3.98 KCAL/MOL
REMARK 924 INTRA-LIGAND FREE ENERGY PREDICTED BY IDOCK:   -0.20 KCAL/MOL
REMARK 927      BINDING AFFINITY PREDICTED BY RF-SCORE:    0.00 PKD
ROOT
HETATM    1  C   UNL     1      -9.536   7.324  66.606  1.00  0.00    -0.236 C  
HETATM    2  C   UNL     1     -10.472   8.466  66.959  1.00  0.00    -0.305 C  
ENDROOT
BRANCH   2   3
HETATM    3  O   UNL     1      -9.740   9.691  66.846  1.00  0.00    -0.167 OA 
BRANCH   3   4
HETATM    4  C   UNL     1     -10.209  10.572  65.929  1.00  0.00    -0.245 C  
HETATM    5  O   UNL     1     -10.273  10.397  64.723  1.00  0.00    -0.345 OA 
BRANCH   4   6
HETATM    6  C   UNL     1     -10.744  11.777  66.619  1.00  0.00    -0.300 A  
HETATM    7  C   UNL     1     -11.697  12.559  65.951  1.00  0.00    -0.480 A  
HETATM    8  C   UNL     1     -12.264  13.666  66.583  1.00  0.00    -0.437 A  
HETATM    9  C   UNL     1     -11.881  13.982  67.884  1.00  0.00    -0.376 A  
HETATM   10  O   UNL     1     -12.404  15.057  68.538  1.00  0.00    -0.586 OA 
HETATM   11  C   UNL     1     -10.949  13.210  68.562  1.00  0.00    -0.289 A  
HETATM   12  C   UNL     1     -10.375  12.106  67.931  1.00  0.00    -0.216 A  
HETATM   13  H   UNL     1     -12.143  15.273  69.425  1.00  0.00     0.000 HD 
ENDBRANCH   4   6
ENDBRANCH   3   4
ENDBRANCH   2   3
TORSDOF 3
ENDMDL
MODEL       98
REMARK 921   NORMALIZED FREE ENERGY PREDICTED BY IDOCK:   -3.34 KCAL/MOL
REMARK 922        TOTAL FREE ENERGY PREDICTED BY IDOCK:   -4.15 KCAL/MOL
REMARK 923 INTER-LIGAND FREE ENERGY PREDICTED BY IDOCK:   -3.96 KCAL/MOL
REMARK 924 INTRA-LIGAND FREE ENERGY PREDICTED BY IDOCK:   -0.19 KCAL/MOL
REMARK 927      BINDING AFFINITY PREDICTED BY RF-SCORE:    0.00 PKD
ROOT
HETATM    1  C   UNL     1      -9.777   5.300  68.747  1.00  0.00    -0.203 C  
HETATM    2  C   UNL     1     -10.994   6.202  68.834  1.00  0.00    -0.356 C  
ENDROOT
BRANCH   2   3
HETATM    3  O   UNL     1     -10.753   7.176  69.855  1.00  0.00    -0.227 OA 
BRANCH   3   4
HETATM    4  C   UNL     1     -11.565   7.104  70.937  1.00  0.00    -0.311 C  
HETATM    5  O   UNL     1     -11.797   6.108  71.604  1.00  0.00    -0.286 OA 
BRANCH   4   6
HETATM    6  C   UNL     1     -12.073   8.461  71.274  1.00  0.00    -0.315 A  
HETATM    7  C   UNL     1     -11.370   9.574  70.791  1.00  0.00    -0.387 A  
HETATM    8  C   UNL     1     -11.843  10.863  71.039  1.00  0.00    -0.294 A  
HETATM    9  C   UNL     1     -13.021  11.035  71.762  1.00  0.00    -0.438 A  
HETATM   10  O   UNL     1     -13.516  12.275  72.032  1.00  0.00    -0.467 OA 
HETATM   11  C   UNL     1     -13.733   9.942  72.235  1.00  0.00    -0.255 A  
HETATM   12  C   UNL     1     -13.260   8.651  71.995  1.00  0.00    -0.422 A  
HETATM   13  H   UNL     1     -14.319  12.392  72.525  1.00  0.00     0.000 HD 
ENDBRANCH   4   6
ENDBRANCH   3   4
ENDBRANCH   2   3
TORSDOF 3
ENDMDL
MODEL       99
REMARK 921   NORMALIZED FREE ENERGY PREDICTED BY IDOCK:   -3.31 KCAL/MOL
REMARK 922        TOTAL FREE ENERGY PREDICTED BY IDOCK:   -4.12 KCAL/MOL
REMARK 923 INTER-LIGAND FREE ENERGY PREDICTED BY IDOCK:   -3.91 KCAL/MOL
REMARK 924 INTRA-LIGAND FREE ENERGY PREDICTED BY IDOCK:   -0.21 KCAL/MOL
REMARK 927      BINDING AFFINITY PREDICTED BY RF-SCORE:    0.00 PKD
ROOT
HETATM    1  C   UNL     1      -7.434   7.583  70.132  1.00  0.00    -0.086 C  
HETATM    2  C   UNL     1      -8.646   6.915  69.509  1.00  0.00    -0.134 C  
ENDROOT
BRANCH   2   3
HETATM    3  O   UNL     1      -9.686   6.877  70.494  1.00  0.00    -0.173 OA 
BRANCH   3   4
HETATM    4  C   UNL     1     -10.951   6.947  70.013  1.00  0.00    -0.279 C  
HETATM    5  O   UNL     1     -11.495   6.133  69.285  1.00  0.00    -0.404 OA 
BRANCH   4   6
HETATM    6  C   UNL     1     -11.642   8.131  70.591  1.00  0.00    -0.199 A  
HETATM    7  C   UNL     1     -12.664   7.916  71.525  1.00  0.00    -0.342 A  
HETATM    8  C   UNL     1     -13.301   9.000  72.131  1.00  0.00    -0.510 A  
HETATM    9  C   UNL     1     -12.907  10.295  71.804  1.00  0.00    -0.460 A  
HETATM   10  O   UNL     1     -13.505  11.383  72.366  1.00  0.00    -0.585 OA 
HETATM   11  C   UNL     1     -11.889  10.523  70.891  1.00  0.00    -0.455 A  
HETATM   12  C   UNL     1     -11.254   9.442  70.279  1.00  0.00    -0.286 A  
HETATM   13  H   UNL     1     -13.237  12.267  72.144  1.00  0.00     0.000 HD 
ENDBRANCH   4   6
ENDBRANCH   3   4
ENDBRANCH   2   3
TORSDOF 3
ENDMDL
MODEL      100
REMARK 921   NORMALIZED FREE ENERGY PREDICTED BY IDOCK:   -3.30 KCAL/MOL
REMARK 922        TOTAL FREE ENERGY PREDICTED BY IDOCK:   -4.11 KCAL/MOL
REMARK 923 INTER-LIGAND FREE ENERGY PREDICTED BY IDOCK:   -3.93 KCAL/MOL
REMARK 924 INTRA-LIGAND FREE ENERGY PREDICTED BY IDOCK:   -0.18 KCAL/MOL
REMARK 927      BINDING AFFINITY PREDICTED BY RF-SCORE:    0.00 PKD
ROOT
HETATM    1  C   UNL     1      -7.708  10.161  69.233  1.00  0.00    -0.126 C  
HETATM    2  C   UNL     1      -9.034  10.585  68.629  1.00  0.00    -0.162 C  
ENDROOT
BRANCH   2   3
HETATM    3  O   UNL     1      -8.793  11.009  67.283  1.00  0.00    -0.134 OA 
BRANCH   3   4
HETATM    4  C   UNL     1      -9.235  12.252  66.972  1.00  0.00    -0.205 C  
HETATM    5  O   UNL     1      -8.847  13.301  67.459  1.00  0.00    -0.184 OA 
BRANCH   4   6
HETATM    6  C   UNL     1     -10.213  12.171  65.854  1.00  0.00    -0.272 A  
HETATM    7  C   UNL     1      -9.825  11.518  64.675  1.00  0.00    -0.283 A  
HETATM    8  C   UNL     1     -10.730  11.373  63.623  1.00  0.00    -0.470 A  
HETATM    9  C   UNL     1     -12.022  11.876  63.756  1.00  0.00    -0.445 A  
HETATM   10  O   UNL     1     -12.936  11.763  62.753  1.00  0.00    -0.715 OA 
HETATM   11  C   UNL     1     -12.423  12.514  64.921  1.00  0.00    -0.524 A  
HETATM   12  C   UNL     1     -11.519  12.666  65.973  1.00  0.00    -0.414 A  
HETATM   13  H   UNL     1     -13.817  12.106  62.843  1.00  0.00     0.000 HD 
ENDBRANCH   4   6
ENDBRANCH   3   4
ENDBRANCH   2   3
TORSDOF 3
ENDMDL
MODEL      101
REMARK 921   NORMALIZED FREE ENERGY PREDICTED BY IDOCK:   -3.29 KCAL/MOL
REMARK 922        TOTAL FREE ENERGY PREDICTED BY IDOCK:   -4.10 KCAL/MOL
REMARK 923 INTER-LIGAND FREE ENERGY PREDICTED BY IDOCK:   -3.91 KCAL/MOL
REMARK 924 INTRA-LIGAND FREE ENERGY PREDICTED BY IDOCK:   -0.19 KCAL/MOL
REMARK 927      BINDING AFFINITY PREDICTED BY RF-SCORE:    0.00 PKD
ROOT
HETATM    1  C   UNL     1     -12.259  11.533  70.536  1.00  0.00    -0.469 C  
HETATM    2  C   UNL     1     -12.017  11.183  69.079  1.00  0.00    -0.320 C  
ENDROOT
BRANCH   2   3
HETATM    3  O   UNL     1     -11.920  12.406  68.340  1.00  0.00    -0.324 OA 
BRANCH   3   4
HETATM    4  C   UNL     1     -11.001  12.417  67.344  1.00  0.00    -0.254 C  
HETATM    5  O   UNL     1     -10.582  11.447  66.734  1.00  0.00    -0.233 OA 
BRANCH   4   6
HETATM    6  C   UNL     1     -10.635  13.821  67.016  1.00  0.00    -0.278 A  
HETATM    7  C   UNL     1      -9.921  14.064  65.833  1.00  0.00    -0.325 A  
HETATM    8  C   UNL     1      -9.605  15.372  65.461  1.00  0.00    -0.253 A  
HETATM    9  C   UNL     1     -10.010  16.431  66.269  1.00  0.00    -0.323 A  
HETATM   10  O   UNL     1      -9.718  17.723  65.948  1.00  0.00    -0.528 OA 
HETATM   11  C   UNL     1     -10.727  16.206  67.435  1.00  0.00    -0.291 A  
HETATM   12  C   UNL     1     -11.040  14.900  67.814  1.00  0.00    -0.313 A  
HETATM   13  H   UNL     1      -9.994  18.446  66.499  1.00  0.00     0.000 HD 
ENDBRANCH   4   6
ENDBRANCH   3   4
ENDBRANCH   2   3
TORSDOF 3
ENDMDL
MODEL      102
REMARK 921   NORMALIZED FREE ENERGY PREDICTED BY IDOCK:   -3.28 KCAL/MOL
REMARK 922        TOTAL FREE ENERGY PREDICTED BY IDOCK:   -4.08 KCAL/MOL
REMARK 923 INTER-LIGAND FREE ENERGY PREDICTED BY IDOCK:   -4.08 KCAL/MOL
REMARK 924 INTRA-LIGAND FREE ENERGY PREDICTED BY IDOCK:   -0.01 KCAL/MOL
REMARK 927      BINDING AFFINITY PREDICTED BY RF-SCORE:    0.00 PKD
ROOT
HETATM    1  C   UNL     1      -9.922   6.453  73.075  1.00  0.00    -0.186 C  
HETATM    2  C   UNL     1     -10.928   5.326  72.928  1.00  0.00    -0.287 C  
ENDROOT
BRANCH   2   3
HETATM    3  O   UNL     1     -12.069   5.839  72.231  1.00  0.00    -0.230 OA 
BRANCH   3   4
HETATM    4  C   UNL     1     -11.798   6.636  71.169  1.00  0.00    -0.360 C  
HETATM    5  O   UNL     1     -11.338   6.281  70.096  1.00  0.00    -0.372 OA 
BRANCH   4   6
HETATM    6  C   UNL     1     -12.242   8.026  71.458  1.00  0.00    -0.328 A  
HETATM    7  C   UNL     1     -11.568   9.085  70.833  1.00  0.00    -0.344 A  
HETATM    8  C   UNL     1     -11.988  10.400  71.035  1.00  0.00    -0.481 A  
HETATM    9  C   UNL     1     -13.085  10.651  71.856  1.00  0.00    -0.458 A  
HETATM   10  O   UNL     1     -13.526  11.919  72.086  1.00  0.00    -0.522 OA 
HETATM   11  C   UNL     1     -13.769   9.613  72.471  1.00  0.00    -0.272 A  
HETATM   12  C   UNL     1     -13.348   8.296  72.277  1.00  0.00    -0.239 A  
HETATM   13  H   UNL     1     -14.273  12.091  72.646  1.00  0.00     0.000 HD 
ENDBRANCH   4   6
ENDBRANCH   3   4
ENDBRANCH   2   3
TORSDOF 3
ENDMDL
MODEL      103
REMARK 921   NORMALIZED FREE ENERGY PREDICTED BY IDOCK:   -3.27 KCAL/MOL
REMARK 922        TOTAL FREE ENERGY PREDICTED BY IDOCK:   -4.08 KCAL/MOL
REMARK 923 INTER-LIGAND FREE ENERGY PREDICTED BY IDOCK:   -3.95 KCAL/MOL
REMARK 924 INTRA-LIGAND FREE ENERGY PREDICTED BY IDOCK:   -0.13 KCAL/MOL
REMARK 927      BINDING AFFINITY PREDICTED BY RF-SCORE:    0.00 PKD
ROOT
HETATM    1  C   UNL     1      -6.356   7.723  70.706  1.00  0.00    -0.037 C  
HETATM    2  C   UNL     1      -7.501   8.487  70.066  1.00  0.00    -0.060 C  
ENDROOT
BRANCH   2   3
HETATM    3  O   UNL     1      -8.729   7.891  70.500  1.00  0.00    -0.133 OA 
BRANCH   3   4
HETATM    4  C   UNL     1      -9.820   8.184  69.751  1.00  0.00    -0.187 C  
HETATM    5  O   UNL     1      -9.875   8.212  68.533  1.00  0.00    -0.169 OA 
BRANCH   4   6
HETATM    6  C   UNL     1     -11.000   8.373  70.637  1.00  0.00    -0.266 A  
HETATM    7  C   UNL     1     -11.404   9.681  70.938  1.00  0.00    -0.431 A  
HETATM    8  C   UNL     1     -12.539   9.902  71.721  1.00  0.00    -0.506 A  
HETATM    9  C   UNL     1     -13.268   8.814  72.193  1.00  0.00    -0.414 A  
HETATM   10  O   UNL     1     -14.378   8.982  72.965  1.00  0.00    -1.108 OA 
HETATM   11  C   UNL     1     -12.887   7.514  71.893  1.00  0.00    -0.306 A  
HETATM   12  C   UNL     1     -11.750   7.289  71.115  1.00  0.00    -0.334 A  
HETATM   13  H   UNL     1     -14.876   8.240  73.287  1.00  0.00     0.000 HD 
ENDBRANCH   4   6
ENDBRANCH   3   4
ENDBRANCH   2   3
TORSDOF 3
ENDMDL
MODEL      104
REMARK 921   NORMALIZED FREE ENERGY PREDICTED BY IDOCK:   -3.26 KCAL/MOL
REMARK 922        TOTAL FREE ENERGY PREDICTED BY IDOCK:   -4.06 KCAL/MOL
REMARK 923 INTER-LIGAND FREE ENERGY PREDICTED BY IDOCK:   -4.16 KCAL/MOL
REMARK 924 INTRA-LIGAND FREE ENERGY PREDICTED BY IDOCK:    0.10 KCAL/MOL
REMARK 927      BINDING AFFINITY PREDICTED BY RF-SCORE:    0.00 PKD
ROOT
HETATM    1  C   UNL     1     -10.183  11.587  63.947  1.00  0.00    -0.411 C  
HETATM    2  C   UNL     1     -10.133  10.783  65.234  1.00  0.00    -0.290 C  
ENDROOT
BRANCH   2   3
HETATM    3  O   UNL     1     -10.119  11.703  66.331  1.00  0.00    -0.205 OA 
BRANCH   3   4
HETATM    4  C   UNL     1     -11.301  11.865  66.975  1.00  0.00    -0.329 C  
HETATM    5  O   UNL     1     -12.282  12.455  66.551  1.00  0.00    -0.586 OA 
BRANCH   4   6
HETATM    6  C   UNL     1     -11.276  11.121  68.263  1.00  0.00    -0.343 A  
HETATM    7  C   UNL     1     -10.505   9.952  68.342  1.00  0.00    -0.239 A  
HETATM    8  C   UNL     1     -10.412   9.254  69.547  1.00  0.00    -0.229 A  
HETATM    9  C   UNL     1     -11.083   9.732  70.670  1.00  0.00    -0.332 A  
HETATM   10  O   UNL     1     -11.025   9.080  71.864  1.00  0.00    -0.352 OA 
HETATM   11  C   UNL     1     -11.839  10.893  70.609  1.00  0.00    -0.453 A  
HETATM   12  C   UNL     1     -11.940  11.591  69.404  1.00  0.00    -0.392 A  
HETATM   13  H   UNL     1     -11.483   9.405  72.630  1.00  0.00     0.000 HD 
ENDBRANCH   4   6
ENDBRANCH   3   4
ENDBRANCH   2   3
TORSDOF 3
ENDMDL
MODEL      105
REMARK 921   NORMALIZED FREE ENERGY PREDICTED BY IDOCK:   -3.25 KCAL/MOL
REMARK 922        TOTAL FREE ENERGY PREDICTED BY IDOCK:   -4.05 KCAL/MOL
REMARK 923 INTER-LIGAND FREE ENERGY PREDICTED BY IDOCK:   -3.76 KCAL/MOL
REMARK 924 INTRA-LIGAND FREE ENERGY PREDICTED BY IDOCK:   -0.30 KCAL/MOL
REMARK 927      BINDING AFFINITY PREDICTED BY RF-SCORE:    0.00 PKD
ROOT
HETATM    1  C   UNL     1     -11.616  13.069  67.354  1.00  0.00    -0.407 C  
HETATM    2  C   UNL     1     -11.154  14.418  66.834  1.00  0.00    -0.323 C  
ENDROOT
BRANCH   2   3
HETATM    3  O   UNL     1     -11.880  15.435  67.534  1.00  0.00    -0.182 OA 
BRANCH   3   4
HETATM    4  C   UNL     1     -11.196  16.076  68.513  1.00  0.00    -0.374 C  
HETATM    5  O   UNL     1     -10.299  16.889  68.356  1.00  0.00    -0.297 OA 
BRANCH   4   6
HETATM    6  C   UNL     1     -11.768  15.722  69.839  1.00  0.00    -0.365 A  
HETATM    7  C   UNL     1     -13.118  15.349  69.904  1.00  0.00     0.254 A  
HETATM    8  C   UNL     1     -13.680  14.957  71.120  1.00  0.00    -0.452 A  
HETATM    9  C   UNL     1     -12.888  14.934  72.265  1.00  0.00    -0.333 A  
HETATM   10  O   UNL     1     -13.396  14.564  73.474  1.00  0.00    -0.461 OA 
HETATM   11  C   UNL     1     -11.548  15.288  72.213  1.00  0.00    -0.530 A  
HETATM   12  C   UNL     1     -10.984  15.686  71.001  1.00  0.00    -0.285 A  
HETATM   13  H   UNL     1     -12.856  14.548  74.255  1.00  0.00     0.000 HD 
ENDBRANCH   4   6
ENDBRANCH   3   4
ENDBRANCH   2   3
TORSDOF 3
ENDMDL
MODEL      106
REMARK 921   NORMALIZED FREE ENERGY PREDICTED BY IDOCK:   -3.25 KCAL/MOL
REMARK 922        TOTAL FREE ENERGY PREDICTED BY IDOCK:   -4.05 KCAL/MOL
REMARK 923 INTER-LIGAND FREE ENERGY PREDICTED BY IDOCK:   -3.86 KCAL/MOL
REMARK 924 INTRA-LIGAND FREE ENERGY PREDICTED BY IDOCK:   -0.19 KCAL/MOL
REMARK 927      BINDING AFFINITY PREDICTED BY RF-SCORE:    0.00 PKD
ROOT
HETATM    1  C   UNL     1     -10.075  10.235  65.681  1.00  0.00    -0.341 C  
HETATM    2  C   UNL     1     -10.506  11.669  65.430  1.00  0.00    -0.275 C  
ENDROOT
BRANCH   2   3
HETATM    3  O   UNL     1     -11.772  11.870  66.068  1.00  0.00    -0.455 OA 
BRANCH   3   4
HETATM    4  C   UNL     1     -11.729  12.056  67.409  1.00  0.00    -0.281 C  
HETATM    5  O   UNL     1     -12.100  11.266  68.263  1.00  0.00    -0.619 OA 
BRANCH   4   6
HETATM    6  C   UNL     1     -11.058  13.348  67.715  1.00  0.00    -0.292 A  
HETATM    7  C   UNL     1     -11.692  14.537  67.327  1.00  0.00    -0.429 A  
HETATM    8  C   UNL     1     -11.122  15.771  67.643  1.00  0.00    -0.283 A  
HETATM    9  C   UNL     1      -9.924  15.812  68.352  1.00  0.00    -0.217 A  
HETATM   10  O   UNL     1      -9.329  16.993  68.676  1.00  0.00    -0.256 OA 
HETATM   11  C   UNL     1      -9.292  14.644  68.753  1.00  0.00    -0.191 A  
HETATM   12  C   UNL     1      -9.855  13.407  68.434  1.00  0.00    -0.216 A  
HETATM   13  H   UNL     1      -8.512  17.021  69.159  1.00  0.00     0.000 HD 
ENDBRANCH   4   6
ENDBRANCH   3   4
ENDBRANCH   2   3
TORSDOF 3
ENDMDL
MODEL      107
REMARK 921   NORMALIZED FREE ENERGY PREDICTED BY IDOCK:   -3.22 KCAL/MOL
REMARK 922        TOTAL FREE ENERGY PREDICTED BY IDOCK:   -4.02 KCAL/MOL
REMARK 923 INTER-LIGAND FREE ENERGY PREDICTED BY IDOCK:   -3.85 KCAL/MOL
REMARK 924 INTRA-LIGAND FREE ENERGY PREDICTED BY IDOCK:   -0.17 KCAL/MOL
REMARK 927      BINDING AFFINITY PREDICTED BY RF-SCORE:    0.00 PKD
ROOT
HETATM    1  C   UNL     1     -12.391  13.147  70.577  1.00  0.00    -0.380 C  
HETATM    2  C   UNL     1     -12.079  13.978  69.346  1.00  0.00    -0.340 C  
ENDROOT
BRANCH   2   3
HETATM    3  O   UNL     1     -10.835  14.652  69.570  1.00  0.00    -0.245 OA 
BRANCH   3   4
HETATM    4  C   UNL     1     -10.928  15.970  69.869  1.00  0.00    -0.353 C  
HETATM    5  O   UNL     1     -11.439  16.452  70.868  1.00  0.00    -0.380 OA 
BRANCH   4   6
HETATM    6  C   UNL     1     -10.216  16.771  68.837  1.00  0.00    -0.304 A  
HETATM    7  C   UNL     1      -9.391  16.098  67.925  1.00  0.00    -0.212 A  
HETATM    8  C   UNL     1      -8.747  16.804  66.908  1.00  0.00    -0.242 A  
HETATM    9  C   UNL     1      -8.936  18.180  66.803  1.00  0.00    -0.282 A  
HETATM   10  O   UNL     1      -8.323  18.911  65.830  1.00  0.00    -0.483 OA 
HETATM   11  C   UNL     1      -9.759  18.857  67.692  1.00  0.00    -0.362 A  
HETATM   12  C   UNL     1     -10.400  18.155  68.714  1.00  0.00    -0.270 A  
HETATM   13  H   UNL     1      -8.452  19.849  65.759  1.00  0.00     0.000 HD 
ENDBRANCH   4   6
ENDBRANCH   3   4
ENDBRANCH   2   3
TORSDOF 3
ENDMDL
MODEL      108
REMARK 921   NORMALIZED FREE ENERGY PREDICTED BY IDOCK:   -3.22 KCAL/MOL
REMARK 922        TOTAL FREE ENERGY PREDICTED BY IDOCK:   -4.02 KCAL/MOL
REMARK 923 INTER-LIGAND FREE ENERGY PREDICTED BY IDOCK:   -3.80 KCAL/MOL
REMARK 924 INTRA-LIGAND FREE ENERGY PREDICTED BY IDOCK:   -0.22 KCAL/MOL
REMARK 927      BINDING AFFINITY PREDICTED BY RF-SCORE:    0.00 PKD
ROOT
HETATM    1  C   UNL     1     -11.661  11.638  69.590  1.00  0.00    -0.401 C  
HETATM    2  C   UNL     1     -12.515  11.353  70.812  1.00  0.00    -0.365 C  
ENDROOT
BRANCH   2   3
HETATM    3  O   UNL     1     -11.883  10.309  71.562  1.00  0.00    -0.336 OA 
BRANCH   3   4
HETATM    4  C   UNL     1     -12.577   9.149  71.653  1.00  0.00    -0.360 C  
HETATM    5  O   UNL     1     -13.756   8.988  71.383  1.00  0.00    -0.356 OA 
BRANCH   4   6
HETATM    6  C   UNL     1     -11.659   8.045  72.040  1.00  0.00    -0.369 A  
HETATM    7  C   UNL     1     -10.360   8.373  72.455  1.00  0.00    -0.399 A  
HETATM    8  C   UNL     1      -9.485   7.371  72.878  1.00  0.00    -0.217 A  
HETATM    9  C   UNL     1      -9.915   6.046  72.892  1.00  0.00    -0.174 A  
HETATM   10  O   UNL     1      -9.093   5.036  73.292  1.00  0.00    -0.125 OA 
HETATM   11  C   UNL     1     -11.201   5.709  72.496  1.00  0.00    -0.346 A  
HETATM   12  C   UNL     1     -12.077   6.707  72.066  1.00  0.00    -0.353 A  
HETATM   13  H   UNL     1      -9.386   4.133  73.301  1.00  0.00     0.000 HD 
ENDBRANCH   4   6
ENDBRANCH   3   4
ENDBRANCH   2   3
TORSDOF 3
ENDMDL
MODEL      109
REMARK 921   NORMALIZED FREE ENERGY PREDICTED BY IDOCK:   -3.20 KCAL/MOL
REMARK 922        TOTAL FREE ENERGY PREDICTED BY IDOCK:   -4.00 KCAL/MOL
REMARK 923 INTER-LIGAND FREE ENERGY PREDICTED BY IDOCK:   -3.90 KCAL/MOL
REMARK 924 INTRA-LIGAND FREE ENERGY PREDICTED BY IDOCK:   -0.10 KCAL/MOL
REMARK 927      BINDING AFFINITY PREDICTED BY RF-SCORE:    0.00 PKD
ROOT
HETATM    1  C   UNL     1     -11.333  15.846  64.510  1.00  0.00    -0.316 C  
HETATM    2  C   UNL     1     -11.118  14.912  65.687  1.00  0.00    -0.348 C  
ENDROOT
BRANCH   2   3
HETATM    3  O   UNL     1     -11.725  13.654  65.371  1.00  0.00    -0.316 OA 
BRANCH   3   4
HETATM    4  C   UNL     1     -10.876  12.680  64.964  1.00  0.00    -0.290 C  
HETATM    5  O   UNL     1     -10.189  12.692  63.955  1.00  0.00    -0.412 OA 
BRANCH   4   6
HETATM    6  C   UNL     1     -10.814  11.606  65.992  1.00  0.00    -0.339 A  
HETATM    7  C   UNL     1     -10.057  10.459  65.713  1.00  0.00    -0.329 A  
HETATM    8  C   UNL     1      -9.929   9.453  66.672  1.00  0.00    -0.326 A  
HETATM    9  C   UNL     1     -10.553   9.601  67.908  1.00  0.00    -0.255 A  
HETATM   10  O   UNL     1     -10.460   8.642  68.871  1.00  0.00    -0.215 OA 
HETATM   11  C   UNL     1     -11.295  10.736  68.202  1.00  0.00    -0.377 A  
HETATM   12  C   UNL     1     -11.431  11.741  67.244  1.00  0.00    -0.373 A  
HETATM   13  H   UNL     1     -10.886   8.743  69.714  1.00  0.00     0.000 HD 
ENDBRANCH   4   6
ENDBRANCH   3   4
ENDBRANCH   2   3
TORSDOF 3
ENDMDL
MODEL      110
REMARK 921   NORMALIZED FREE ENERGY PREDICTED BY IDOCK:   -3.19 KCAL/MOL
REMARK 922        TOTAL FREE ENERGY PREDICTED BY IDOCK:   -3.98 KCAL/MOL
REMARK 923 INTER-LIGAND FREE ENERGY PREDICTED BY IDOCK:   -3.77 KCAL/MOL
REMARK 924 INTRA-LIGAND FREE ENERGY PREDICTED BY IDOCK:   -0.22 KCAL/MOL
REMARK 927      BINDING AFFINITY PREDICTED BY RF-SCORE:    0.00 PKD
ROOT
HETATM    1  C   UNL     1      -8.947  12.896  67.150  1.00  0.00    -0.219 C  
HETATM    2  C   UNL     1     -10.092  13.472  67.963  1.00  0.00    -0.244 C  
ENDROOT
BRANCH   2   3
HETATM    3  O   UNL     1     -10.232  14.854  67.617  1.00  0.00    -0.234 OA 
BRANCH   3   4
HETATM    4  C   UNL     1      -9.744  15.737  68.521  1.00  0.00    -0.206 C  
HETATM    5  O   UNL     1      -9.318  15.474  69.634  1.00  0.00    -0.275 OA 
BRANCH   4   6
HETATM    6  C   UNL     1      -9.701  17.098  67.921  1.00  0.00    -0.270 A  
HETATM    7  C   UNL     1     -10.344  17.304  66.692  1.00  0.00    -0.305 A  
HETATM    8  C   UNL     1     -10.373  18.577  66.121  1.00  0.00    -0.457 A  
HETATM    9  C   UNL     1      -9.765  19.640  66.785  1.00  0.00    -0.378 A  
HETATM   10  O   UNL     1      -9.764  20.899  66.262  1.00  0.00    -0.477 OA 
HETATM   11  C   UNL     1      -9.136  19.453  68.007  1.00  0.00    -0.382 A  
HETATM   12  C   UNL     1      -9.099  18.180  68.578  1.00  0.00    -0.318 A  
HETATM   13  H   UNL     1      -9.350  21.624  66.714  1.00  0.00     0.000 HD 
ENDBRANCH   4   6
ENDBRANCH   3   4
ENDBRANCH   2   3
TORSDOF 3
ENDMDL
MODEL      111
REMARK 921   NORMALIZED FREE ENERGY PREDICTED BY IDOCK:   -3.19 KCAL/MOL
REMARK 922        TOTAL FREE ENERGY PREDICTED BY IDOCK:   -3.98 KCAL/MOL
REMARK 923 INTER-LIGAND FREE ENERGY PREDICTED BY IDOCK:   -3.89 KCAL/MOL
REMARK 924 INTRA-LIGAND FREE ENERGY PREDICTED BY IDOCK:   -0.09 KCAL/MOL
REMARK 927      BINDING AFFINITY PREDICTED BY RF-SCORE:    0.00 PKD
ROOT
HETATM    1  C   UNL     1      -9.551  19.469  67.598  1.00  0.00    -0.436 C  
HETATM    2  C   UNL     1     -10.169  18.576  68.658  1.00  0.00    -0.325 C  
ENDROOT
BRANCH   2   3
HETATM    3  O   UNL     1     -10.608  17.370  68.021  1.00  0.00    -0.371 OA 
BRANCH   3   4
HETATM    4  C   UNL     1      -9.864  16.267  68.278  1.00  0.00    -0.227 C  
HETATM    5  O   UNL     1      -8.693  16.098  67.981  1.00  0.00    -0.173 OA 
BRANCH   4   6
HETATM    6  C   UNL     1     -10.661  15.302  69.083  1.00  0.00    -0.250 A  
HETATM    7  C   UNL     1     -11.016  15.659  70.391  1.00  0.00    -0.366 A  
HETATM    8  C   UNL     1     -11.808  14.805  71.160  1.00  0.00    -0.387 A  
HETATM    9  C   UNL     1     -12.247  13.601  70.616  1.00  0.00    -0.360 A  
HETATM   10  O   UNL     1     -13.016  12.734  71.332  1.00  0.00    -0.360 OA 
HETATM   11  C   UNL     1     -11.913  13.241  69.319  1.00  0.00    -0.354 A  
HETATM   12  C   UNL     1     -11.116  14.088  68.548  1.00  0.00    -0.279 A  
HETATM   13  H   UNL     1     -13.316  11.913  70.961  1.00  0.00     0.000 HD 
ENDBRANCH   4   6
ENDBRANCH   3   4
ENDBRANCH   2   3
TORSDOF 3
ENDMDL
MODEL      112
REMARK 921   NORMALIZED FREE ENERGY PREDICTED BY IDOCK:   -3.19 KCAL/MOL
REMARK 922        TOTAL FREE ENERGY PREDICTED BY IDOCK:   -3.98 KCAL/MOL
REMARK 923 INTER-LIGAND FREE ENERGY PREDICTED BY IDOCK:   -3.83 KCAL/MOL
REMARK 924 INTRA-LIGAND FREE ENERGY PREDICTED BY IDOCK:   -0.14 KCAL/MOL
REMARK 927      BINDING AFFINITY PREDICTED BY RF-SCORE:    0.00 PKD
ROOT
HETATM    1  C   UNL     1     -10.589  18.228  66.381  1.00  0.00    -0.318 C  
HETATM    2  C   UNL     1     -10.669  17.191  65.277  1.00  0.00    -0.056 C  
ENDROOT
BRANCH   2   3
HETATM    3  O   UNL     1     -11.015  15.935  65.872  1.00  0.00    -0.264 OA 
BRANCH   3   4
HETATM    4  C   UNL     1      -9.971  15.147  66.226  1.00  0.00    -0.288 C  
HETATM    5  O   UNL     1      -8.787  15.419  66.113  1.00  0.00    -0.307 OA 
BRANCH   4   6
HETATM    6  C   UNL     1     -10.476  13.911  66.882  1.00  0.00    -0.276 A  
HETATM    7  C   UNL     1     -11.320  14.044  67.994  1.00  0.00    -0.320 A  
HETATM    8  C   UNL     1     -11.859  12.911  68.606  1.00  0.00    -0.347 A  
HETATM    9  C   UNL     1     -11.556  11.650  68.099  1.00  0.00    -0.319 A  
HETATM   10  O   UNL     1     -12.055  10.517  68.667  1.00  0.00    -0.775 OA 
HETATM   11  C   UNL     1     -10.732  11.504  66.993  1.00  0.00    -0.300 A  
HETATM   12  C   UNL     1     -10.187  12.634  66.382  1.00  0.00    -0.263 A  
HETATM   13  H   UNL     1     -11.849   9.656  68.322  1.00  0.00     0.000 HD 
ENDBRANCH   4   6
ENDBRANCH   3   4
ENDBRANCH   2   3
TORSDOF 3
ENDMDL
MODEL      113
REMARK 921   NORMALIZED FREE ENERGY PREDICTED BY IDOCK:   -3.14 KCAL/MOL
REMARK 922        TOTAL FREE ENERGY PREDICTED BY IDOCK:   -3.93 KCAL/MOL
REMARK 923 INTER-LIGAND FREE ENERGY PREDICTED BY IDOCK:   -3.61 KCAL/MOL
REMARK 924 INTRA-LIGAND FREE ENERGY PREDICTED BY IDOCK:   -0.31 KCAL/MOL
REMARK 927      BINDING AFFINITY PREDICTED BY RF-SCORE:    0.00 PKD
ROOT
HETATM    1  C   UNL     1     -12.126  10.620  70.823  1.00  0.00    -0.474 C  
HETATM    2  C   UNL     1     -10.912   9.780  70.472  1.00  0.00    -0.321 C  
ENDROOT
BRANCH   2   3
HETATM    3  O   UNL     1     -10.143  10.495  69.498  1.00  0.00    -0.222 OA 
BRANCH   3   4
HETATM    4  C   UNL     1     -10.573  10.386  68.218  1.00  0.00    -0.212 C  
HETATM    5  O   UNL     1     -10.908   9.359  67.651  1.00  0.00    -0.267 OA 
BRANCH   4   6
HETATM    6  C   UNL     1     -10.679  11.739  67.608  1.00  0.00    -0.254 A  
HETATM    7  C   UNL     1     -11.423  11.880  66.427  1.00  0.00    -0.371 A  
HETATM    8  C   UNL     1     -11.593  13.140  65.852  1.00  0.00    -0.391 A  
HETATM    9  C   UNL     1     -11.024  14.255  66.463  1.00  0.00    -0.316 A  
HETATM   10  O   UNL     1     -11.159  15.503  65.934  1.00  0.00    -0.301 OA 
HETATM   11  C   UNL     1     -10.296  14.131  67.638  1.00  0.00    -0.241 A  
HETATM   12  C   UNL     1     -10.119  12.872  68.213  1.00  0.00    -0.242 A  
HETATM   13  H   UNL     1     -10.771  16.263  66.351  1.00  0.00     0.000 HD 
ENDBRANCH   4   6
ENDBRANCH   3   4
ENDBRANCH   2   3
TORSDOF 3
ENDMDL
MODEL      114
REMARK 921   NORMALIZED FREE ENERGY PREDICTED BY IDOCK:   -3.14 KCAL/MOL
REMARK 922        TOTAL FREE ENERGY PREDICTED BY IDOCK:   -3.92 KCAL/MOL
REMARK 923 INTER-LIGAND FREE ENERGY PREDICTED BY IDOCK:   -3.72 KCAL/MOL
REMARK 924 INTRA-LIGAND FREE ENERGY PREDICTED BY IDOCK:   -0.20 KCAL/MOL
REMARK 927      BINDING AFFINITY PREDICTED BY RF-SCORE:    0.00 PKD
ROOT
HETATM    1  C   UNL     1      -7.550   9.013  68.194  1.00  0.00    -0.092 C  
HETATM    2  C   UNL     1      -9.013   8.814  68.545  1.00  0.00    -0.138 C  
ENDROOT
BRANCH   2   3
HETATM    3  O   UNL     1      -9.313   9.638  69.678  1.00  0.00    -0.181 OA 
BRANCH   3   4
HETATM    4  C   UNL     1      -9.230   9.028  70.885  1.00  0.00    -0.259 C  
HETATM    5  O   UNL     1      -8.250   8.990  71.611  1.00  0.00    -0.330 OA 
BRANCH   4   6
HETATM    6  C   UNL     1     -10.561   8.482  71.263  1.00  0.00    -0.296 A  
HETATM    7  C   UNL     1     -11.580   9.383  71.601  1.00  0.00    -0.466 A  
HETATM    8  C   UNL     1     -12.857   8.915  71.909  1.00  0.00    -0.437 A  
HETATM    9  C   UNL     1     -13.113   7.546  71.871  1.00  0.00    -0.252 A  
HETATM   10  O   UNL     1     -14.344   7.043  72.170  1.00  0.00    -0.613 OA 
HETATM   11  C   UNL     1     -12.118   6.643  71.526  1.00  0.00    -0.406 A  
HETATM   12  C   UNL     1     -10.837   7.108  71.223  1.00  0.00    -0.254 A  
HETATM   13  H   UNL     1     -14.518   6.110  72.144  1.00  0.00     0.000 HD 
ENDBRANCH   4   6
ENDBRANCH   3   4
ENDBRANCH   2   3
TORSDOF 3
ENDMDL
MODEL      115
REMARK 921   NORMALIZED FREE ENERGY PREDICTED BY IDOCK:   -3.12 KCAL/MOL
REMARK 922        TOTAL FREE ENERGY PREDICTED BY IDOCK:   -3.90 KCAL/MOL
REMARK 923 INTER-LIGAND FREE ENERGY PREDICTED BY IDOCK:   -3.71 KCAL/MOL
REMARK 924 INTRA-LIGAND FREE ENERGY PREDICTED BY IDOCK:   -0.19 KCAL/MOL
REMARK 927      BINDING AFFINITY PREDICTED BY RF-SCORE:    0.00 PKD
ROOT
HETATM    1  C   UNL     1     -11.348   6.047  72.397  1.00  0.00    -0.349 C  
HETATM    2  C   UNL     1     -11.865   6.845  71.214  1.00  0.00    -0.341 C  
ENDROOT
BRANCH   2   3
HETATM    3  O   UNL     1     -10.737   7.281  70.446  1.00  0.00    -0.225 OA 
BRANCH   3   4
HETATM    4  C   UNL     1     -10.309   8.541  70.698  1.00  0.00    -0.199 C  
HETATM    5  O   UNL     1      -9.559   8.886  71.597  1.00  0.00    -0.275 OA 
BRANCH   4   6
HETATM    6  C   UNL     1     -10.808   9.461  69.641  1.00  0.00    -0.245 A  
HETATM    7  C   UNL     1     -11.657  10.512  70.018  1.00  0.00    -0.392 A  
HETATM    8  C   UNL     1     -12.104  11.429  69.067  1.00  0.00    -0.316 A  
HETATM    9  C   UNL     1     -11.696  11.296  67.742  1.00  0.00    -0.176 A  
HETATM   10  O   UNL     1     -12.112  12.165  66.778  1.00  0.00    -0.609 OA 
HETATM   11  C   UNL     1     -10.847  10.269  67.356  1.00  0.00    -0.336 A  
HETATM   12  C   UNL     1     -10.402   9.346  68.304  1.00  0.00    -0.251 A  
HETATM   13  H   UNL     1     -11.834  12.075  65.875  1.00  0.00     0.000 HD 
ENDBRANCH   4   6
ENDBRANCH   3   4
ENDBRANCH   2   3
TORSDOF 3
ENDMDL
MODEL      116
REMARK 921   NORMALIZED FREE ENERGY PREDICTED BY IDOCK:   -3.10 KCAL/MOL
REMARK 922        TOTAL FREE ENERGY PREDICTED BY IDOCK:   -3.87 KCAL/MOL
REMARK 923 INTER-LIGAND FREE ENERGY PREDICTED BY IDOCK:   -3.69 KCAL/MOL
REMARK 924 INTRA-LIGAND FREE ENERGY PREDICTED BY IDOCK:   -0.18 KCAL/MOL
REMARK 927      BINDING AFFINITY PREDICTED BY RF-SCORE:    0.00 PKD
ROOT
HETATM    1  C   UNL     1      -8.823   7.336  74.244  1.00  0.00    -0.254 C  
HETATM    2  C   UNL     1     -10.255   7.241  73.749  1.00  0.00    -0.323 C  
ENDROOT
BRANCH   2   3
HETATM    3  O   UNL     1     -10.455   8.267  72.769  1.00  0.00    -0.333 OA 
BRANCH   3   4
HETATM    4  C   UNL     1     -11.614   8.193  72.071  1.00  0.00    -0.330 C  
HETATM    5  O   UNL     1     -12.735   8.409  72.503  1.00  0.00    -0.327 OA 
BRANCH   4   6
HETATM    6  C   UNL     1     -11.321   7.902  70.642  1.00  0.00    -0.267 A  
HETATM    7  C   UNL     1     -10.750   8.916  69.859  1.00  0.00    -0.236 A  
HETATM    8  C   UNL     1     -10.410   8.667  68.529  1.00  0.00    -0.228 A  
HETATM    9  C   UNL     1     -10.636   7.404  67.988  1.00  0.00    -0.175 A  
HETATM   10  O   UNL     1     -10.325   7.118  66.693  1.00  0.00    -0.418 OA 
HETATM   11  C   UNL     1     -11.189   6.388  68.754  1.00  0.00    -0.358 A  
HETATM   12  C   UNL     1     -11.536   6.634  70.083  1.00  0.00    -0.444 A  
HETATM   13  H   UNL     1     -10.479   6.257  66.324  1.00  0.00     0.000 HD 
ENDBRANCH   4   6
ENDBRANCH   3   4
ENDBRANCH   2   3
TORSDOF 3
ENDMDL
MODEL      117
REMARK 921   NORMALIZED FREE ENERGY PREDICTED BY IDOCK:   -3.08 KCAL/MOL
REMARK 922        TOTAL FREE ENERGY PREDICTED BY IDOCK:   -3.85 KCAL/MOL
REMARK 923 INTER-LIGAND FREE ENERGY PREDICTED BY IDOCK:   -3.75 KCAL/MOL
REMARK 924 INTRA-LIGAND FREE ENERGY PREDICTED BY IDOCK:   -0.10 KCAL/MOL
REMARK 927      BINDING AFFINITY PREDICTED BY RF-SCORE:    0.00 PKD
ROOT
HETATM    1  C   UNL     1     -10.045  17.843  68.743  1.00  0.00    -0.384 C  
HETATM    2  C   UNL     1      -9.266  16.592  68.381  1.00  0.00    -0.222 C  
ENDROOT
BRANCH   2   3
HETATM    3  O   UNL     1      -9.827  15.494  69.110  1.00  0.00    -0.213 OA 
BRANCH   3   4
HETATM    4  C   UNL     1     -10.942  14.942  68.573  1.00  0.00    -0.255 C  
HETATM    5  O   UNL     1     -12.071  14.998  69.032  1.00  0.00    -0.281 OA 
BRANCH   4   6
HETATM    6  C   UNL     1     -10.614  14.327  67.259  1.00  0.00    -0.278 A  
HETATM    7  C   UNL     1      -9.992  13.070  67.248  1.00  0.00    -0.232 A  
HETATM    8  C   UNL     1      -9.717  12.433  66.037  1.00  0.00    -0.253 A  
HETATM    9  C   UNL     1     -10.070  13.054  64.841  1.00  0.00    -0.213 A  
HETATM   10  O   UNL     1      -9.815  12.472  63.636  1.00  0.00    -0.638 OA 
HETATM   11  C   UNL     1     -10.696  14.291  64.837  1.00  0.00    -0.448 A  
HETATM   12  C   UNL     1     -10.968  14.934  66.046  1.00  0.00    -0.334 A  
HETATM   13  H   UNL     1     -10.056  12.895  62.820  1.00  0.00     0.000 HD 
ENDBRANCH   4   6
ENDBRANCH   3   4
ENDBRANCH   2   3
TORSDOF 3
ENDMDL
MODEL      118
REMARK 921   NORMALIZED FREE ENERGY PREDICTED BY IDOCK:   -3.07 KCAL/MOL
REMARK 922        TOTAL FREE ENERGY PREDICTED BY IDOCK:   -3.84 KCAL/MOL
REMARK 923 INTER-LIGAND FREE ENERGY PREDICTED BY IDOCK:   -3.66 KCAL/MOL
REMARK 924 INTRA-LIGAND FREE ENERGY PREDICTED BY IDOCK:   -0.18 KCAL/MOL
REMARK 927      BINDING AFFINITY PREDICTED BY RF-SCORE:    0.00 PKD
ROOT
HETATM    1  C   UNL     1     -10.351  15.972  65.915  1.00  0.00    -0.386 C  
HETATM    2  C   UNL     1     -10.684  14.743  65.089  1.00  0.00    -0.415 C  
ENDROOT
BRANCH   2   3
HETATM    3  O   UNL     1     -10.259  13.588  65.822  1.00  0.00    -0.286 OA 
BRANCH   3   4
HETATM    4  C   UNL     1     -11.224  12.674  66.086  1.00  0.00    -0.309 C  
HETATM    5  O   UNL     1     -12.220  12.458  65.415  1.00  0.00    -0.533 OA 
BRANCH   4   6
HETATM    6  C   UNL     1     -10.845  11.877  67.283  1.00  0.00    -0.294 A  
HETATM    7  C   UNL     1     -11.867  11.379  68.103  1.00  0.00    -0.288 A  
HETATM    8  C   UNL     1     -11.557  10.582  69.206  1.00  0.00    -0.308 A  
HETATM    9  C   UNL     1     -10.225  10.279  69.480  1.00  0.00    -0.236 A  
HETATM   10  O   UNL     1      -9.876   9.510  70.548  1.00  0.00    -0.248 OA 
HETATM   11  C   UNL     1      -9.204  10.755  68.670  1.00  0.00    -0.184 A  
HETATM   12  C   UNL     1      -9.510  11.558  67.571  1.00  0.00    -0.173 A  
HETATM   13  H   UNL     1      -8.968   9.303  70.735  1.00  0.00     0.000 HD 
ENDBRANCH   4   6
ENDBRANCH   3   4
ENDBRANCH   2   3
TORSDOF 3
ENDMDL
MODEL      119
REMARK 921   NORMALIZED FREE ENERGY PREDICTED BY IDOCK:   -3.07 KCAL/MOL
REMARK 922        TOTAL FREE ENERGY PREDICTED BY IDOCK:   -3.84 KCAL/MOL
REMARK 923 INTER-LIGAND FREE ENERGY PREDICTED BY IDOCK:   -3.90 KCAL/MOL
REMARK 924 INTRA-LIGAND FREE ENERGY PREDICTED BY IDOCK:    0.06 KCAL/MOL
REMARK 927      BINDING AFFINITY PREDICTED BY RF-SCORE:    0.00 PKD
ROOT
HETATM    1  C   UNL     1     -10.006  12.332  64.895  1.00  0.00    -0.219 C  
HETATM    2  C   UNL     1      -9.481  13.109  66.089  1.00  0.00    -0.145 C  
ENDROOT
BRANCH   2   3
HETATM    3  O   UNL     1     -10.175  12.653  67.256  1.00  0.00    -0.222 OA 
BRANCH   3   4
HETATM    4  C   UNL     1     -11.413  13.171  67.441  1.00  0.00    -0.332 C  
HETATM    5  O   UNL     1     -12.396  12.965  66.747  1.00  0.00    -0.405 OA 
BRANCH   4   6
HETATM    6  C   UNL     1     -11.440  13.968  68.697  1.00  0.00    -0.337 A  
HETATM    7  C   UNL     1     -10.897  15.261  68.677  1.00  0.00    -0.253 A  
HETATM    8  C   UNL     1     -10.951  16.061  69.819  1.00  0.00    -0.334 A  
HETATM    9  C   UNL     1     -11.555  15.569  70.974  1.00  0.00    -0.382 A  
HETATM   10  O   UNL     1     -11.625  16.313  72.113  1.00  0.00    -0.450 OA 
HETATM   11  C   UNL     1     -12.107  14.297  71.003  1.00  0.00    -0.416 A  
HETATM   12  C   UNL     1     -12.049  13.491  69.866  1.00  0.00    -0.408 A  
HETATM   13  H   UNL     1     -12.036  15.977  72.900  1.00  0.00     0.000 HD 
ENDBRANCH   4   6
ENDBRANCH   3   4
ENDBRANCH   2   3
TORSDOF 3
ENDMDL
MODEL      120
REMARK 921   NORMALIZED FREE ENERGY PREDICTED BY IDOCK:   -3.07 KCAL/MOL
REMARK 922        TOTAL FREE ENERGY PREDICTED BY IDOCK:   -3.84 KCAL/MOL
REMARK 923 INTER-LIGAND FREE ENERGY PREDICTED BY IDOCK:   -3.69 KCAL/MOL
REMARK 924 INTRA-LIGAND FREE ENERGY PREDICTED BY IDOCK:   -0.15 KCAL/MOL
REMARK 927      BINDING AFFINITY PREDICTED BY RF-SCORE:    0.00 PKD
ROOT
HETATM    1  C   UNL     1     -11.426  15.891  64.498  1.00  0.00    -0.287 C  
HETATM    2  C   UNL     1     -10.570  15.890  65.751  1.00  0.00    -0.355 C  
ENDROOT
BRANCH   2   3
HETATM    3  O   UNL     1      -9.556  16.889  65.597  1.00  0.00    -0.534 OA 
BRANCH   3   4
HETATM    4  C   UNL     1      -9.760  18.041  66.280  1.00  0.00    -0.270 C  
HETATM    5  O   UNL     1     -10.786  18.702  66.296  1.00  0.00    -0.370 OA 
BRANCH   4   6
HETATM    6  C   UNL     1      -8.566  18.349  67.113  1.00  0.00    -0.262 A  
HETATM    7  C   UNL     1      -7.311  17.914  66.664  1.00  0.00    -0.260 A  
HETATM    8  C   UNL     1      -6.160  18.228  67.388  1.00  0.00    -0.179 A  
HETATM    9  C   UNL     1      -6.267  18.982  68.553  1.00  0.00    -0.225 A  
HETATM   10  O   UNL     1      -5.171  19.307  69.294  1.00  0.00    -0.190 OA 
HETATM   11  C   UNL     1      -7.501  19.430  69.002  1.00  0.00    -0.385 A  
HETATM   12  C   UNL     1      -8.655  19.112  68.285  1.00  0.00    -0.370 A  
HETATM   13  H   UNL     1      -5.244  19.822  70.089  1.00  0.00     0.000 HD 
ENDBRANCH   4   6
ENDBRANCH   3   4
ENDBRANCH   2   3
TORSDOF 3
ENDMDL
MODEL      121
REMARK 921   NORMALIZED FREE ENERGY PREDICTED BY IDOCK:   -3.05 KCAL/MOL
REMARK 922        TOTAL FREE ENERGY PREDICTED BY IDOCK:   -3.82 KCAL/MOL
REMARK 923 INTER-LIGAND FREE ENERGY PREDICTED BY IDOCK:   -3.51 KCAL/MOL
REMARK 924 INTRA-LIGAND FREE ENERGY PREDICTED BY IDOCK:   -0.32 KCAL/MOL
REMARK 927      BINDING AFFINITY PREDICTED BY RF-SCORE:    0.00 PKD
ROOT
HETATM    1  C   UNL     1      -7.123  14.668  68.985  1.00  0.00    -0.128 C  
HETATM    2  C   UNL     1      -7.694  13.582  68.091  1.00  0.00    -0.139 C  
ENDROOT
BRANCH   2   3
HETATM    3  O   UNL     1      -8.454  14.214  67.056  1.00  0.00    -0.208 OA 
BRANCH   3   4
HETATM    4  C   UNL     1      -9.673  13.676  66.812  1.00  0.00    -0.275 C  
HETATM    5  O   UNL     1      -9.936  12.824  65.978  1.00  0.00    -0.265 OA 
BRANCH   4   6
HETATM    6  C   UNL     1     -10.660  14.204  67.792  1.00  0.00    -0.243 A  
HETATM    7  C   UNL     1     -11.347  13.290  68.603  1.00  0.00    -0.324 A  
HETATM    8  C   UNL     1     -12.241  13.746  69.573  1.00  0.00    -0.344 A  
HETATM    9  C   UNL     1     -12.438  15.116  69.733  1.00  0.00    -0.186 A  
HETATM   10  O   UNL     1     -13.305  15.606  70.662  1.00  0.00    -0.772 OA 
HETATM   11  C   UNL     1     -11.756  16.032  68.946  1.00  0.00    -0.322 A  
HETATM   12  C   UNL     1     -10.866  15.579  67.971  1.00  0.00    -0.300 A  
HETATM   13  H   UNL     1     -13.440  16.540  70.771  1.00  0.00     0.000 HD 
ENDBRANCH   4   6
ENDBRANCH   3   4
ENDBRANCH   2   3
TORSDOF 3
ENDMDL
MODEL      122
REMARK 921   NORMALIZED FREE ENERGY PREDICTED BY IDOCK:   -3.05 KCAL/MOL
REMARK 922        TOTAL FREE ENERGY PREDICTED BY IDOCK:   -3.82 KCAL/MOL
REMARK 923 INTER-LIGAND FREE ENERGY PREDICTED BY IDOCK:   -4.06 KCAL/MOL
REMARK 924 INTRA-LIGAND FREE ENERGY PREDICTED BY IDOCK:    0.24 KCAL/MOL
REMARK 927      BINDING AFFINITY PREDICTED BY RF-SCORE:    0.00 PKD
ROOT
HETATM    1  C   UNL     1      -9.596  18.665  68.477  1.00  0.00    -0.399 C  
HETATM    2  C   UNL     1      -8.764  17.400  68.583  1.00  0.00    -0.261 C  
ENDROOT
BRANCH   2   3
HETATM    3  O   UNL     1      -9.605  16.287  68.256  1.00  0.00    -0.212 OA 
BRANCH   3   4
HETATM    4  C   UNL     1     -10.504  15.934  69.207  1.00  0.00    -0.253 C  
HETATM    5  O   UNL     1     -10.967  16.659  70.072  1.00  0.00    -0.333 OA 
BRANCH   4   6
HETATM    6  C   UNL     1     -10.940  14.528  68.987  1.00  0.00    -0.272 A  
HETATM    7  C   UNL     1     -11.563  13.851  70.044  1.00  0.00    -0.282 A  
HETATM    8  C   UNL     1     -12.035  12.550  69.863  1.00  0.00    -0.371 A  
HETATM    9  C   UNL     1     -11.889  11.935  68.622  1.00  0.00    -0.308 A  
HETATM   10  O   UNL     1     -12.329  10.665  68.401  1.00  0.00    -0.776 OA 
HETATM   11  C   UNL     1     -11.285  12.598  67.563  1.00  0.00    -0.335 A  
HETATM   12  C   UNL     1     -10.806  13.896  67.742  1.00  0.00    -0.261 A  
HETATM   13  H   UNL     1     -12.229  10.245  67.555  1.00  0.00     0.000 HD 
ENDBRANCH   4   6
ENDBRANCH   3   4
ENDBRANCH   2   3
TORSDOF 3
ENDMDL
MODEL      123
REMARK 921   NORMALIZED FREE ENERGY PREDICTED BY IDOCK:   -3.04 KCAL/MOL
REMARK 922        TOTAL FREE ENERGY PREDICTED BY IDOCK:   -3.80 KCAL/MOL
REMARK 923 INTER-LIGAND FREE ENERGY PREDICTED BY IDOCK:   -3.61 KCAL/MOL
REMARK 924 INTRA-LIGAND FREE ENERGY PREDICTED BY IDOCK:   -0.20 KCAL/MOL
REMARK 927      BINDING AFFINITY PREDICTED BY RF-SCORE:    0.00 PKD
ROOT
HETATM    1  C   UNL     1      -8.595   6.204  67.441  1.00  0.00    -0.106 C  
HETATM    2  C   UNL     1      -9.184   7.343  68.253  1.00  0.00    -0.137 C  
ENDROOT
BRANCH   2   3
HETATM    3  O   UNL     1      -9.184   8.518  67.435  1.00  0.00    -0.137 OA 
BRANCH   3   4
HETATM    4  C   UNL     1     -10.190   9.395  67.668  1.00  0.00    -0.227 C  
HETATM    5  O   UNL     1     -10.806   9.530  68.713  1.00  0.00    -0.211 OA 
BRANCH   4   6
HETATM    6  C   UNL     1     -10.383  10.266  66.477  1.00  0.00    -0.276 A  
HETATM    7  C   UNL     1      -9.831   9.855  65.255  1.00  0.00    -0.373 A  
HETATM    8  C   UNL     1     -10.034  10.615  64.103  1.00  0.00    -0.406 A  
HETATM    9  C   UNL     1     -10.794  11.780  64.176  1.00  0.00    -0.360 A  
HETATM   10  O   UNL     1     -11.014  12.556  63.078  1.00  0.00    -0.673 OA 
HETATM   11  C   UNL     1     -11.356  12.192  65.375  1.00  0.00    -0.388 A  
HETATM   12  C   UNL     1     -11.150  11.438  66.531  1.00  0.00    -0.312 A  
HETATM   13  H   UNL     1     -11.532  13.351  63.127  1.00  0.00     0.000 HD 
ENDBRANCH   4   6
ENDBRANCH   3   4
ENDBRANCH   2   3
TORSDOF 3
ENDMDL
MODEL      124
REMARK 921   NORMALIZED FREE ENERGY PREDICTED BY IDOCK:   -3.03 KCAL/MOL
REMARK 922        TOTAL FREE ENERGY PREDICTED BY IDOCK:   -3.79 KCAL/MOL
REMARK 923 INTER-LIGAND FREE ENERGY PREDICTED BY IDOCK:   -3.58 KCAL/MOL
REMARK 924 INTRA-LIGAND FREE ENERGY PREDICTED BY IDOCK:   -0.21 KCAL/MOL
REMARK 927      BINDING AFFINITY PREDICTED BY RF-SCORE:    0.00 PKD
ROOT
HETATM    1  C   UNL     1      -6.823   9.737  67.734  1.00  0.00    -0.081 C  
HETATM    2  C   UNL     1      -7.965   8.744  67.612  1.00  0.00    -0.106 C  
ENDROOT
BRANCH   2   3
HETATM    3  O   UNL     1      -9.121   9.320  68.230  1.00  0.00    -0.129 OA 
BRANCH   3   4
HETATM    4  C   UNL     1     -10.260   9.276  67.498  1.00  0.00    -0.242 C  
HETATM    5  O   UNL     1     -10.779   8.278  67.024  1.00  0.00    -0.307 OA 
BRANCH   4   6
HETATM    6  C   UNL     1     -10.867  10.633  67.431  1.00  0.00    -0.353 A  
HETATM    7  C   UNL     1     -11.216  11.266  68.632  1.00  0.00    -0.310 A  
HETATM    8  C   UNL     1     -11.738  12.561  68.617  1.00  0.00    -0.368 A  
HETATM    9  C   UNL     1     -11.900  13.219  67.400  1.00  0.00    -0.366 A  
HETATM   10  O   UNL     1     -12.411  14.481  67.337  1.00  0.00    -0.614 OA 
HETATM   11  C   UNL     1     -11.547  12.610  66.206  1.00  0.00    -0.440 A  
HETATM   12  C   UNL     1     -11.031  11.313  66.216  1.00  0.00    -0.265 A  
HETATM   13  H   UNL     1     -12.522  14.931  66.508  1.00  0.00     0.000 HD 
ENDBRANCH   4   6
ENDBRANCH   3   4
ENDBRANCH   2   3
TORSDOF 3
ENDMDL
MODEL      125
REMARK 921   NORMALIZED FREE ENERGY PREDICTED BY IDOCK:   -3.03 KCAL/MOL
REMARK 922        TOTAL FREE ENERGY PREDICTED BY IDOCK:   -3.79 KCAL/MOL
REMARK 923 INTER-LIGAND FREE ENERGY PREDICTED BY IDOCK:   -3.51 KCAL/MOL
REMARK 924 INTRA-LIGAND FREE ENERGY PREDICTED BY IDOCK:   -0.28 KCAL/MOL
REMARK 927      BINDING AFFINITY PREDICTED BY RF-SCORE:    0.00 PKD
ROOT
HETATM    1  C   UNL     1      -6.674  15.412  69.552  1.00  0.00    -0.174 C  
HETATM    2  C   UNL     1      -6.857  16.889  69.253  1.00  0.00    -0.228 C  
ENDROOT
BRANCH   2   3
HETATM    3  O   UNL     1      -7.469  17.008  67.964  1.00  0.00    -0.173 OA 
BRANCH   3   4
HETATM    4  C   UNL     1      -8.733  17.497  67.958  1.00  0.00    -0.254 C  
HETATM    5  O   UNL     1      -9.068  18.641  68.222  1.00  0.00    -0.303 OA 
BRANCH   4   6
HETATM    6  C   UNL     1      -9.674  16.451  67.476  1.00  0.00    -0.231 A  
HETATM    7  C   UNL     1     -10.590  15.908  68.388  1.00  0.00    -0.266 A  
HETATM    8  C   UNL     1     -11.526  14.963  67.964  1.00  0.00    -0.355 A  
HETATM    9  C   UNL     1     -11.546  14.571  66.628  1.00  0.00    -0.375 A  
HETATM   10  O   UNL     1     -12.438  13.648  66.171  1.00  0.00    -0.433 OA 
HETATM   11  C   UNL     1     -10.654  15.109  65.712  1.00  0.00    -0.364 A  
HETATM   12  C   UNL     1      -9.713  16.049  66.134  1.00  0.00    -0.353 A  
HETATM   13  H   UNL     1     -12.452  13.380  65.260  1.00  0.00     0.000 HD 
ENDBRANCH   4   6
ENDBRANCH   3   4
ENDBRANCH   2   3
TORSDOF 3
ENDMDL
MODEL      126
REMARK 921   NORMALIZED FREE ENERGY PREDICTED BY IDOCK:   -3.02 KCAL/MOL
REMARK 922        TOTAL FREE ENERGY PREDICTED BY IDOCK:   -3.78 KCAL/MOL
REMARK 923 INTER-LIGAND FREE ENERGY PREDICTED BY IDOCK:   -3.49 KCAL/MOL
REMARK 924 INTRA-LIGAND FREE ENERGY PREDICTED BY IDOCK:   -0.29 KCAL/MOL
REMARK 927      BINDING AFFINITY PREDICTED BY RF-SCORE:    0.00 PKD
ROOT
HETATM    1  C   UNL     1      -9.095   8.526  71.930  1.00  0.00    -0.314 C  
HETATM    2  C   UNL     1     -10.568   8.451  72.290  1.00  0.00    -0.342 C  
ENDROOT
BRANCH   2   3
HETATM    3  O   UNL     1     -11.282   7.981  71.141  1.00  0.00    -0.251 OA 
BRANCH   3   4
HETATM    4  C   UNL     1     -11.631   6.672  71.163  1.00  0.00    -0.332 C  
HETATM    5  O   UNL     1     -12.377   6.134  71.964  1.00  0.00    -0.290 OA 
BRANCH   4   6
HETATM    6  C   UNL     1     -11.045   5.978  69.985  1.00  0.00    -0.451 A  
HETATM    7  C   UNL     1     -11.274   6.517  68.711  1.00  0.00    -0.319 A  
HETATM    8  C   UNL     1     -10.697   5.928  67.585  1.00  0.00    -0.352 A  
HETATM    9  C   UNL     1      -9.888   4.804  67.738  1.00  0.00    -0.141 A  
HETATM   10  O   UNL     1      -9.310   4.193  66.667  1.00  0.00    -0.150 OA 
HETATM   11  C   UNL     1      -9.643   4.267  68.994  1.00  0.00    -0.240 A  
HETATM   12  C   UNL     1     -10.223   4.850  70.121  1.00  0.00    -0.310 A  
HETATM   13  H   UNL     1      -8.758   3.427  66.771  1.00  0.00     0.000 HD 
ENDBRANCH   4   6
ENDBRANCH   3   4
ENDBRANCH   2   3
TORSDOF 3
ENDMDL
MODEL      127
REMARK 921   NORMALIZED FREE ENERGY PREDICTED BY IDOCK:   -3.02 KCAL/MOL
REMARK 922        TOTAL FREE ENERGY PREDICTED BY IDOCK:   -3.78 KCAL/MOL
REMARK 923 INTER-LIGAND FREE ENERGY PREDICTED BY IDOCK:   -3.47 KCAL/MOL
REMARK 924 INTRA-LIGAND FREE ENERGY PREDICTED BY IDOCK:   -0.31 KCAL/MOL
REMARK 927      BINDING AFFINITY PREDICTED BY RF-SCORE:    0.00 PKD
ROOT
HETATM    1  C   UNL     1      -6.621  14.549  69.541  1.00  0.00    -0.143 C  
HETATM    2  C   UNL     1      -7.276  15.912  69.404  1.00  0.00    -0.214 C  
ENDROOT
BRANCH   2   3
HETATM    3  O   UNL     1      -8.268  15.827  68.375  1.00  0.00    -0.143 OA 
BRANCH   3   4
HETATM    4  C   UNL     1      -9.553  15.946  68.788  1.00  0.00    -0.219 C  
HETATM    5  O   UNL     1     -10.099  16.969  69.168  1.00  0.00    -0.283 OA 
BRANCH   4   6
HETATM    6  C   UNL     1     -10.257  14.647  68.615  1.00  0.00    -0.244 A  
HETATM    7  C   UNL     1      -9.939  13.860  67.499  1.00  0.00    -0.240 A  
HETATM    8  C   UNL     1     -10.538  12.611  67.328  1.00  0.00    -0.244 A  
HETATM    9  C   UNL     1     -11.447  12.151  68.278  1.00  0.00    -0.305 A  
HETATM   10  O   UNL     1     -12.059  10.941  68.148  1.00  0.00    -0.785 OA 
HETATM   11  C   UNL     1     -11.761  12.914  69.393  1.00  0.00    -0.382 A  
HETATM   12  C   UNL     1     -11.170  14.166  69.564  1.00  0.00    -0.267 A  
HETATM   13  H   UNL     1     -12.679  10.627  68.796  1.00  0.00     0.000 HD 
ENDBRANCH   4   6
ENDBRANCH   3   4
ENDBRANCH   2   3
TORSDOF 3
ENDMDL
MODEL      128
REMARK 921   NORMALIZED FREE ENERGY PREDICTED BY IDOCK:   -2.99 KCAL/MOL
REMARK 922        TOTAL FREE ENERGY PREDICTED BY IDOCK:   -3.75 KCAL/MOL
REMARK 923 INTER-LIGAND FREE ENERGY PREDICTED BY IDOCK:   -3.48 KCAL/MOL
REMARK 924 INTRA-LIGAND FREE ENERGY PREDICTED BY IDOCK:   -0.27 KCAL/MOL
REMARK 927      BINDING AFFINITY PREDICTED BY RF-SCORE:    0.00 PKD
ROOT
HETATM    1  C   UNL     1     -12.665  12.920  64.744  1.00  0.00    -0.442 C  
HETATM    2  C   UNL     1     -11.254  12.464  64.423  1.00  0.00    -0.332 C  
ENDROOT
BRANCH   2   3
HETATM    3  O   UNL     1     -10.344  13.457  64.911  1.00  0.00    -0.354 OA 
BRANCH   3   4
HETATM    4  C   UNL     1      -9.991  13.337  66.214  1.00  0.00    -0.291 C  
HETATM    5  O   UNL     1      -9.857  12.295  66.835  1.00  0.00    -0.203 OA 
BRANCH   4   6
HETATM    6  C   UNL     1      -9.681  14.680  66.775  1.00  0.00    -0.267 A  
HETATM    7  C   UNL     1      -9.127  14.753  68.060  1.00  0.00    -0.179 A  
HETATM    8  C   UNL     1      -8.772  15.989  68.602  1.00  0.00    -0.206 A  
HETATM    9  C   UNL     1      -8.965  17.147  67.852  1.00  0.00    -0.230 A  
HETATM   10  O   UNL     1      -8.639  18.375  68.343  1.00  0.00    -0.310 OA 
HETATM   11  C   UNL     1      -9.501  17.088  66.574  1.00  0.00    -0.295 A  
HETATM   12  C   UNL     1      -9.863  15.854  66.031  1.00  0.00    -0.366 A  
HETATM   13  H   UNL     1      -8.771  19.165  67.832  1.00  0.00     0.000 HD 
ENDBRANCH   4   6
ENDBRANCH   3   4
ENDBRANCH   2   3
TORSDOF 3
ENDMDL
MODEL      129
REMARK 921   NORMALIZED FREE ENERGY PREDICTED BY IDOCK:   -2.99 KCAL/MOL
REMARK 922        TOTAL FREE ENERGY PREDICTED BY IDOCK:   -3.74 KCAL/MOL
REMARK 923 INTER-LIGAND FREE ENERGY PREDICTED BY IDOCK:   -3.54 KCAL/MOL
REMARK 924 INTRA-LIGAND FREE ENERGY PREDICTED BY IDOCK:   -0.20 KCAL/MOL
REMARK 927      BINDING AFFINITY PREDICTED BY RF-SCORE:    0.00 PKD
ROOT
HETATM    1  C   UNL     1     -10.064   4.582  66.723  1.00  0.00    -0.220 C  
HETATM    2  C   UNL     1     -10.254   6.086  66.644  1.00  0.00    -0.189 C  
ENDROOT
BRANCH   2   3
HETATM    3  O   UNL     1     -11.023   6.496  67.780  1.00  0.00    -0.296 OA 
BRANCH   3   4
HETATM    4  C   UNL     1     -10.646   7.665  68.352  1.00  0.00    -0.122 C  
HETATM    5  O   UNL     1     -10.387   8.706  67.770  1.00  0.00    -0.222 OA 
BRANCH   4   6
HETATM    6  C   UNL     1     -10.688   7.535  69.833  1.00  0.00    -0.254 A  
HETATM    7  C   UNL     1      -9.995   8.478  70.605  1.00  0.00    -0.222 A  
HETATM    8  C   UNL     1     -10.053   8.424  71.998  1.00  0.00    -0.364 A  
HETATM    9  C   UNL     1     -10.810   7.430  72.614  1.00  0.00    -0.303 A  
HETATM   10  O   UNL     1     -10.890   7.335  73.971  1.00  0.00    -0.556 OA 
HETATM   11  C   UNL     1     -11.510   6.498  71.863  1.00  0.00    -0.345 A  
HETATM   12  C   UNL     1     -11.450   6.545  70.470  1.00  0.00    -0.448 A  
HETATM   13  H   UNL     1     -11.406   6.658  74.391  1.00  0.00     0.000 HD 
ENDBRANCH   4   6
ENDBRANCH   3   4
ENDBRANCH   2   3
TORSDOF 3
ENDMDL
MODEL      130
REMARK 921   NORMALIZED FREE ENERGY PREDICTED BY IDOCK:   -2.97 KCAL/MOL
REMARK 922        TOTAL FREE ENERGY PREDICTED BY IDOCK:   -3.72 KCAL/MOL
REMARK 923 INTER-LIGAND FREE ENERGY PREDICTED BY IDOCK:   -3.52 KCAL/MOL
REMARK 924 INTRA-LIGAND FREE ENERGY PREDICTED BY IDOCK:   -0.21 KCAL/MOL
REMARK 927      BINDING AFFINITY PREDICTED BY RF-SCORE:    0.00 PKD
ROOT
HETATM    1  C   UNL     1      -8.642   9.236  68.109  1.00  0.00    -0.125 C  
HETATM    2  C   UNL     1      -9.359   8.080  67.437  1.00  0.00    -0.145 C  
ENDROOT
BRANCH   2   3
HETATM    3  O   UNL     1     -10.549   7.801  68.183  1.00  0.00    -0.193 OA 
BRANCH   3   4
HETATM    4  C   UNL     1     -10.840   6.489  68.353  1.00  0.00    -0.289 C  
HETATM    5  O   UNL     1     -10.878   5.637  67.480  1.00  0.00    -0.233 OA 
BRANCH   4   6
HETATM    6  C   UNL     1     -11.015   6.197  69.801  1.00  0.00    -0.459 A  
HETATM    7  C   UNL     1     -10.109   5.323  70.418  1.00  0.00    -0.324 A  
HETATM    8  C   UNL     1     -10.205   5.065  71.786  1.00  0.00    -0.272 A  
HETATM    9  C   UNL     1     -11.203   5.687  72.533  1.00  0.00    -0.293 A  
HETATM   10  O   UNL     1     -11.338   5.459  73.869  1.00  0.00    -0.411 OA 
HETATM   11  C   UNL     1     -12.099   6.563  71.937  1.00  0.00    -0.388 A  
HETATM   12  C   UNL     1     -12.010   6.819  70.569  1.00  0.00    -0.385 A  
HETATM   13  H   UNL     1     -12.018   5.883  74.379  1.00  0.00     0.000 HD 
ENDBRANCH   4   6
ENDBRANCH   3   4
ENDBRANCH   2   3
TORSDOF 3
ENDMDL
MODEL      131
REMARK 921   NORMALIZED FREE ENERGY PREDICTED BY IDOCK:   -2.89 KCAL/MOL
REMARK 922        TOTAL FREE ENERGY PREDICTED BY IDOCK:   -3.63 KCAL/MOL
REMARK 923 INTER-LIGAND FREE ENERGY PREDICTED BY IDOCK:   -3.99 KCAL/MOL
REMARK 924 INTRA-LIGAND FREE ENERGY PREDICTED BY IDOCK:    0.36 KCAL/MOL
REMARK 927      BINDING AFFINITY PREDICTED BY RF-SCORE:    0.00 PKD
ROOT
HETATM    1  C   UNL     1      -8.797   9.565  62.725  1.00  0.00    -0.244 C  
HETATM    2  C   UNL     1      -9.187  11.031  62.785  1.00  0.00    -0.351 C  
ENDROOT
BRANCH   2   3
HETATM    3  O   UNL     1     -10.468  11.123  63.419  1.00  0.00    -0.364 OA 
BRANCH   3   4
HETATM    4  C   UNL     1     -10.510  10.728  64.715  1.00  0.00    -0.265 C  
HETATM    5  O   UNL     1     -10.179   9.637  65.151  1.00  0.00    -0.080 OA 
BRANCH   4   6
HETATM    6  C   UNL     1     -10.931  11.868  65.573  1.00  0.00    -0.347 A  
HETATM    7  C   UNL     1     -11.516  12.984  64.958  1.00  0.00    -0.345 A  
HETATM    8  C   UNL     1     -11.974  14.051  65.732  1.00  0.00    -0.417 A  
HETATM    9  C   UNL     1     -11.852  13.995  67.118  1.00  0.00    -0.411 A  
HETATM   10  O   UNL     1     -12.280  15.016  67.912  1.00  0.00    -0.518 OA 
HETATM   11  C   UNL     1     -11.287  12.892  67.740  1.00  0.00    -0.343 A  
HETATM   12  C   UNL     1     -10.822  11.825  66.970  1.00  0.00    -0.306 A  
HETATM   13  H   UNL     1     -12.196  14.978  68.857  1.00  0.00     0.000 HD 
ENDBRANCH   4   6
ENDBRANCH   3   4
ENDBRANCH   2   3
TORSDOF 3
ENDMDL
MODEL      132
REMARK 921   NORMALIZED FREE ENERGY PREDICTED BY IDOCK:   -2.88 KCAL/MOL
REMARK 922        TOTAL FREE ENERGY PREDICTED BY IDOCK:   -3.61 KCAL/MOL
REMARK 923 INTER-LIGAND FREE ENERGY PREDICTED BY IDOCK:   -3.85 KCAL/MOL
REMARK 924 INTRA-LIGAND FREE ENERGY PREDICTED BY IDOCK:    0.24 KCAL/MOL
REMARK 927      BINDING AFFINITY PREDICTED BY RF-SCORE:    0.00 PKD
ROOT
HETATM    1  C   UNL     1     -10.510  19.699  65.848  1.00  0.00    -0.591 C  
HETATM    2  C   UNL     1      -9.991  18.882  67.017  1.00  0.00    -0.340 C  
ENDROOT
BRANCH   2   3
HETATM    3  O   UNL     1     -10.699  17.637  67.037  1.00  0.00    -0.291 OA 
BRANCH   3   4
HETATM    4  C   UNL     1     -10.377  16.764  66.052  1.00  0.00    -0.335 C  
HETATM    5  O   UNL     1     -10.759  16.805  64.894  1.00  0.00    -0.721 OA 
BRANCH   4   6
HETATM    6  C   UNL     1      -9.386  15.777  66.561  1.00  0.00    -0.312 A  
HETATM    7  C   UNL     1      -9.757  14.426  66.611  1.00  0.00    -0.289 A  
HETATM    8  C   UNL     1      -8.840  13.462  67.031  1.00  0.00    -0.217 A  
HETATM    9  C   UNL     1      -7.552  13.852  67.391  1.00  0.00    -0.142 A  
HETATM   10  O   UNL     1      -6.626  12.946  67.812  1.00  0.00    -0.107 OA 
HETATM   11  C   UNL     1      -7.168  15.183  67.334  1.00  0.00    -0.231 A  
HETATM   12  C   UNL     1      -8.084  16.151  66.921  1.00  0.00    -0.275 A  
HETATM   13  H   UNL     1      -5.748  13.211  68.058  1.00  0.00     0.000 HD 
ENDBRANCH   4   6
ENDBRANCH   3   4
ENDBRANCH   2   3
TORSDOF 3
ENDMDL
MODEL      133
REMARK 921   NORMALIZED FREE ENERGY PREDICTED BY IDOCK:   -2.84 KCAL/MOL
REMARK 922        TOTAL FREE ENERGY PREDICTED BY IDOCK:   -3.57 KCAL/MOL
REMARK 923 INTER-LIGAND FREE ENERGY PREDICTED BY IDOCK:   -3.34 KCAL/MOL
REMARK 924 INTRA-LIGAND FREE ENERGY PREDICTED BY IDOCK:   -0.23 KCAL/MOL
REMARK 927      BINDING AFFINITY PREDICTED BY RF-SCORE:    0.00 PKD
ROOT
HETATM    1  C   UNL     1      -9.442   9.012  70.697  1.00  0.00    -0.286 C  
HETATM    2  C   UNL     1     -10.583   9.787  70.063  1.00  0.00    -0.276 C  
ENDROOT
BRANCH   2   3
HETATM    3  O   UNL     1     -10.699   9.369  68.698  1.00  0.00    -0.213 OA 
BRANCH   3   4
HETATM    4  C   UNL     1     -11.113  10.320  67.827  1.00  0.00    -0.269 C  
HETATM    5  O   UNL     1     -12.037  11.101  67.992  1.00  0.00    -0.635 OA 
BRANCH   4   6
HETATM    6  C   UNL     1     -10.204  10.353  66.650  1.00  0.00    -0.292 A  
HETATM    7  C   UNL     1     -10.531  11.195  65.578  1.00  0.00    -0.317 A  
HETATM    8  C   UNL     1      -9.677  11.297  64.479  1.00  0.00    -0.293 A  
HETATM    9  C   UNL     1      -8.495  10.561  64.460  1.00  0.00    -0.132 A  
HETATM   10  O   UNL     1      -7.634  10.625  63.406  1.00  0.00    -0.338 OA 
HETATM   11  C   UNL     1      -8.152   9.734  65.519  1.00  0.00    -0.125 A  
HETATM   12  C   UNL     1      -9.006   9.625  66.617  1.00  0.00    -0.166 A  
HETATM   13  H   UNL     1      -6.828  10.123  63.392  1.00  0.00     0.000 HD 
ENDBRANCH   4   6
ENDBRANCH   3   4
ENDBRANCH   2   3
TORSDOF 3
ENDMDL
MODEL      134
REMARK 921   NORMALIZED FREE ENERGY PREDICTED BY IDOCK:   -2.82 KCAL/MOL
REMARK 922        TOTAL FREE ENERGY PREDICTED BY IDOCK:   -3.55 KCAL/MOL
REMARK 923 INTER-LIGAND FREE ENERGY PREDICTED BY IDOCK:   -3.27 KCAL/MOL
REMARK 924 INTRA-LIGAND FREE ENERGY PREDICTED BY IDOCK:   -0.28 KCAL/MOL
REMARK 927      BINDING AFFINITY PREDICTED BY RF-SCORE:    0.00 PKD
ROOT
HETATM    1  C   UNL     1     -11.414  10.260  69.846  1.00  0.00    -0.340 C  
HETATM    2  C   UNL     1     -12.388  10.237  71.011  1.00  0.00    -0.381 C  
ENDROOT
BRANCH   2   3
HETATM    3  O   UNL     1     -11.893   9.311  71.984  1.00  0.00    -0.363 OA 
BRANCH   3   4
HETATM    4  C   UNL     1     -12.295   8.026  71.828  1.00  0.00    -0.319 C  
HETATM    5  O   UNL     1     -13.393   7.652  71.449  1.00  0.00    -0.337 OA 
BRANCH   4   6
HETATM    6  C   UNL     1     -11.154   7.108  72.091  1.00  0.00    -0.282 A  
HETATM    7  C   UNL     1     -11.093   5.901  71.381  1.00  0.00    -0.313 A  
HETATM    8  C   UNL     1     -10.012   5.037  71.559  1.00  0.00    -0.254 A  
HETATM    9  C   UNL     1      -8.992   5.387  72.441  1.00  0.00    -0.135 A  
HETATM   10  O   UNL     1      -7.921   4.571  72.650  1.00  0.00    -0.085 OA 
HETATM   11  C   UNL     1      -9.034   6.584  73.140  1.00  0.00    -0.137 A  
HETATM   12  C   UNL     1     -10.116   7.448  72.970  1.00  0.00    -0.323 A  
HETATM   13  H   UNL     1      -7.226   4.810  73.251  1.00  0.00     0.000 HD 
ENDBRANCH   4   6
ENDBRANCH   3   4
ENDBRANCH   2   3
TORSDOF 3
ENDMDL
MODEL      135
REMARK 921   NORMALIZED FREE ENERGY PREDICTED BY IDOCK:   -2.81 KCAL/MOL
REMARK 922        TOTAL FREE ENERGY PREDICTED BY IDOCK:   -3.53 KCAL/MOL
REMARK 923 INTER-LIGAND FREE ENERGY PREDICTED BY IDOCK:   -3.27 KCAL/MOL
REMARK 924 INTRA-LIGAND FREE ENERGY PREDICTED BY IDOCK:   -0.26 KCAL/MOL
REMARK 927      BINDING AFFINITY PREDICTED BY RF-SCORE:    0.00 PKD
ROOT
HETATM    1  C   UNL     1      -5.959  15.163  68.431  1.00  0.00    -0.105 C  
HETATM    2  C   UNL     1      -7.114  15.089  69.414  1.00  0.00    -0.186 C  
ENDROOT
BRANCH   2   3
HETATM    3  O   UNL     1      -7.982  16.201  69.162  1.00  0.00    -0.227 OA 
BRANCH   3   4
HETATM    4  C   UNL     1      -9.046  15.944  68.363  1.00  0.00    -0.189 C  
HETATM    5  O   UNL     1      -9.655  14.890  68.284  1.00  0.00    -0.203 OA 
BRANCH   4   6
HETATM    6  C   UNL     1      -9.447  17.186  67.649  1.00  0.00    -0.241 A  
HETATM    7  C   UNL     1      -8.877  18.402  68.054  1.00  0.00    -0.302 A  
HETATM    8  C   UNL     1      -9.186  19.581  67.376  1.00  0.00    -0.393 A  
HETATM    9  C   UNL     1     -10.058  19.540  66.291  1.00  0.00    -0.468 A  
HETATM   10  O   UNL     1     -10.391  20.668  65.603  1.00  0.00    -0.340 OA 
HETATM   11  C   UNL     1     -10.619  18.343  65.871  1.00  0.00    -0.313 A  
HETATM   12  C   UNL     1     -10.318  17.162  66.551  1.00  0.00    -0.306 A  
HETATM   13  H   UNL     1     -10.986  20.640  64.863  1.00  0.00     0.000 HD 
ENDBRANCH   4   6
ENDBRANCH   3   4
ENDBRANCH   2   3
TORSDOF 3
ENDMDL
MODEL      136
REMARK 921   NORMALIZED FREE ENERGY PREDICTED BY IDOCK:   -2.81 KCAL/MOL
REMARK 922        TOTAL FREE ENERGY PREDICTED BY IDOCK:   -3.53 KCAL/MOL
REMARK 923 INTER-LIGAND FREE ENERGY PREDICTED BY IDOCK:   -3.33 KCAL/MOL
REMARK 924 INTRA-LIGAND FREE ENERGY PREDICTED BY IDOCK:   -0.21 KCAL/MOL
REMARK 927      BINDING AFFINITY PREDICTED BY RF-SCORE:    0.00 PKD
ROOT
HETATM    1  C   UNL     1     -12.176  12.378  70.450  1.00  0.00    -0.370 C  
HETATM    2  C   UNL     1     -11.906  12.412  68.956  1.00  0.00    -0.300 C  
ENDROOT
BRANCH   2   3
HETATM    3  O   UNL     1     -11.633  13.768  68.586  1.00  0.00    -0.287 OA 
BRANCH   3   4
HETATM    4  C   UNL     1     -10.457  13.975  67.946  1.00  0.00    -0.241 C  
HETATM    5  O   UNL     1      -9.767  13.125  67.405  1.00  0.00    -0.212 OA 
BRANCH   4   6
HETATM    6  C   UNL     1     -10.159  15.432  67.901  1.00  0.00    -0.226 A  
HETATM    7  C   UNL     1     -10.527  16.221  69.000  1.00  0.00    -0.276 A  
HETATM    8  C   UNL     1     -10.218  17.581  69.022  1.00  0.00    -0.314 A  
HETATM    9  C   UNL     1      -9.536  18.146  67.947  1.00  0.00    -0.288 A  
HETATM   10  O   UNL     1      -9.219  19.471  67.922  1.00  0.00    -0.312 OA 
HETATM   11  C   UNL     1      -9.155  17.375  66.859  1.00  0.00    -0.258 A  
HETATM   12  C   UNL     1      -9.467  16.016  66.831  1.00  0.00    -0.242 A  
HETATM   13  H   UNL     1      -8.754  19.857  67.190  1.00  0.00     0.000 HD 
ENDBRANCH   4   6
ENDBRANCH   3   4
ENDBRANCH   2   3
TORSDOF 3
ENDMDL
MODEL      137
REMARK 921   NORMALIZED FREE ENERGY PREDICTED BY IDOCK:   -2.80 KCAL/MOL
REMARK 922        TOTAL FREE ENERGY PREDICTED BY IDOCK:   -3.53 KCAL/MOL
REMARK 923 INTER-LIGAND FREE ENERGY PREDICTED BY IDOCK:   -3.37 KCAL/MOL
REMARK 924 INTRA-LIGAND FREE ENERGY PREDICTED BY IDOCK:   -0.15 KCAL/MOL
REMARK 927      BINDING AFFINITY PREDICTED BY RF-SCORE:    0.00 PKD
ROOT
HETATM    1  C   UNL     1     -12.434  12.962  64.850  1.00  0.00    -0.540 C  
HETATM    2  C   UNL     1     -12.511  13.752  66.144  1.00  0.00    -0.418 C  
ENDROOT
BRANCH   2   3
HETATM    3  O   UNL     1     -11.447  14.710  66.143  1.00  0.00    -0.346 OA 
BRANCH   3   4
HETATM    4  C   UNL     1     -11.112  15.217  67.354  1.00  0.00    -0.325 C  
HETATM    5  O   UNL     1     -11.861  15.375  68.305  1.00  0.00    -0.339 OA 
BRANCH   4   6
HETATM    6  C   UNL     1      -9.647  15.467  67.406  1.00  0.00    -0.210 A  
HETATM    7  C   UNL     1      -9.048  16.144  66.334  1.00  0.00    -0.339 A  
HETATM    8  C   UNL     1      -7.686  16.446  66.368  1.00  0.00    -0.249 A  
HETATM    9  C   UNL     1      -6.930  16.077  67.477  1.00  0.00    -0.176 A  
HETATM   10  O   UNL     1      -5.596  16.346  67.551  1.00  0.00    -0.129 OA 
HETATM   11  C   UNL     1      -7.511  15.418  68.550  1.00  0.00    -0.117 A  
HETATM   12  C   UNL     1      -8.872  15.108  68.518  1.00  0.00    -0.185 A  
HETATM   13  H   UNL     1      -5.080  16.094  68.307  1.00  0.00     0.000 HD 
ENDBRANCH   4   6
ENDBRANCH   3   4
ENDBRANCH   2   3
TORSDOF 3
ENDMDL
MODEL      138
REMARK 921   NORMALIZED FREE ENERGY PREDICTED BY IDOCK:   -2.80 KCAL/MOL
REMARK 922        TOTAL FREE ENERGY PREDICTED BY IDOCK:   -3.52 KCAL/MOL
REMARK 923 INTER-LIGAND FREE ENERGY PREDICTED BY IDOCK:   -3.38 KCAL/MOL
REMARK 924 INTRA-LIGAND FREE ENERGY PREDICTED BY IDOCK:   -0.14 KCAL/MOL
REMARK 927      BINDING AFFINITY PREDICTED BY RF-SCORE:    0.00 PKD
ROOT
HETATM    1  C   UNL     1      -8.297   7.827  67.432  1.00  0.00    -0.123 C  
HETATM    2  C   UNL     1      -9.704   8.276  67.081  1.00  0.00    -0.195 C  
ENDROOT
BRANCH   2   3
HETATM    3  O   UNL     1      -9.653   9.665  66.736  1.00  0.00    -0.156 OA 
BRANCH   3   4
HETATM    4  C   UNL     1     -10.640  10.435  67.255  1.00  0.00    -0.267 C  
HETATM    5  O   UNL     1     -11.397  10.127  68.161  1.00  0.00    -0.237 OA 
BRANCH   4   6
HETATM    6  C   UNL     1     -10.610  11.781  66.624  1.00  0.00    -0.275 A  
HETATM    7  C   UNL     1      -9.670  12.713  67.086  1.00  0.00    -0.211 A  
HETATM    8  C   UNL     1      -9.573  13.969  66.484  1.00  0.00    -0.307 A  
HETATM    9  C   UNL     1     -10.412  14.285  65.418  1.00  0.00    -0.365 A  
HETATM   10  O   UNL     1     -10.356  15.500  64.805  1.00  0.00    -0.506 OA 
HETATM   11  C   UNL     1     -11.338  13.368  64.943  1.00  0.00    -0.345 A  
HETATM   12  C   UNL     1     -11.443  12.114  65.546  1.00  0.00    -0.394 A  
HETATM   13  H   UNL     1     -10.928  15.716  64.078  1.00  0.00     0.000 HD 
ENDBRANCH   4   6
ENDBRANCH   3   4
ENDBRANCH   2   3
TORSDOF 3
ENDMDL
MODEL      139
REMARK 921   NORMALIZED FREE ENERGY PREDICTED BY IDOCK:   -2.76 KCAL/MOL
REMARK 922        TOTAL FREE ENERGY PREDICTED BY IDOCK:   -3.48 KCAL/MOL
REMARK 923 INTER-LIGAND FREE ENERGY PREDICTED BY IDOCK:   -3.31 KCAL/MOL
REMARK 924 INTRA-LIGAND FREE ENERGY PREDICTED BY IDOCK:   -0.18 KCAL/MOL
REMARK 927      BINDING AFFINITY PREDICTED BY RF-SCORE:    0.00 PKD
ROOT
HETATM    1  C   UNL     1      -9.657   4.636  68.223  1.00  0.00    -0.207 C  
HETATM    2  C   UNL     1     -10.608   5.801  68.428  1.00  0.00    -0.220 C  
ENDROOT
BRANCH   2   3
HETATM    3  O   UNL     1      -9.825   6.989  68.588  1.00  0.00    -0.144 OA 
BRANCH   3   4
HETATM    4  C   UNL     1     -10.052   7.967  67.678  1.00  0.00    -0.209 C  
HETATM    5  O   UNL     1      -9.910   7.879  66.469  1.00  0.00    -0.228 OA 
BRANCH   4   6
HETATM    6  C   UNL     1     -10.609   9.167  68.359  1.00  0.00    -0.217 A  
HETATM    7  C   UNL     1     -10.619   9.193  69.761  1.00  0.00    -0.240 A  
HETATM    8  C   UNL     1     -11.083  10.321  70.439  1.00  0.00    -0.391 A  
HETATM    9  C   UNL     1     -11.529  11.422  69.712  1.00  0.00    -0.300 A  
HETATM   10  O   UNL     1     -11.996  12.542  70.331  1.00  0.00    -0.463 OA 
HETATM   11  C   UNL     1     -11.514  11.415  68.325  1.00  0.00    -0.369 A  
HETATM   12  C   UNL     1     -11.056  10.286  67.643  1.00  0.00    -0.319 A  
HETATM   13  H   UNL     1     -12.301  13.292  69.836  1.00  0.00     0.000 HD 
ENDBRANCH   4   6
ENDBRANCH   3   4
ENDBRANCH   2   3
TORSDOF 3
ENDMDL
MODEL      140
REMARK 921   NORMALIZED FREE ENERGY PREDICTED BY IDOCK:   -2.76 KCAL/MOL
REMARK 922        TOTAL FREE ENERGY PREDICTED BY IDOCK:   -3.48 KCAL/MOL
REMARK 923 INTER-LIGAND FREE ENERGY PREDICTED BY IDOCK:   -3.29 KCAL/MOL
REMARK 924 INTRA-LIGAND FREE ENERGY PREDICTED BY IDOCK:   -0.19 KCAL/MOL
REMARK 927      BINDING AFFINITY PREDICTED BY RF-SCORE:    0.00 PKD
ROOT
HETATM    1  C   UNL     1      -9.952   4.165  72.105  1.00  0.00    -0.243 C  
HETATM    2  C   UNL     1      -9.963   5.669  71.901  1.00  0.00    -0.180 C  
ENDROOT
BRANCH   2   3
HETATM    3  O   UNL     1     -11.082   5.995  71.069  1.00  0.00    -0.288 OA 
BRANCH   3   4
HETATM    4  C   UNL     1     -11.290   7.317  70.858  1.00  0.00    -0.280 C  
HETATM    5  O   UNL     1     -11.672   8.131  71.684  1.00  0.00    -0.265 OA 
BRANCH   4   6
HETATM    6  C   UNL     1     -10.883   7.674  69.473  1.00  0.00    -0.171 A  
HETATM    7  C   UNL     1     -10.503   8.998  69.210  1.00  0.00    -0.238 A  
HETATM    8  C   UNL     1     -10.062   9.362  67.937  1.00  0.00    -0.239 A  
HETATM    9  C   UNL     1      -9.997   8.399  66.933  1.00  0.00    -0.271 A  
HETATM   10  O   UNL     1      -9.579   8.711  65.675  1.00  0.00    -0.442 OA 
HETATM   11  C   UNL     1     -10.358   7.083  67.182  1.00  0.00    -0.351 A  
HETATM   12  C   UNL     1     -10.805   6.717  68.452  1.00  0.00    -0.320 A  
HETATM   13  H   UNL     1      -9.534   8.055  64.990  1.00  0.00     0.000 HD 
ENDBRANCH   4   6
ENDBRANCH   3   4
ENDBRANCH   2   3
TORSDOF 3
ENDMDL
MODEL      141
REMARK 921   NORMALIZED FREE ENERGY PREDICTED BY IDOCK:   -2.76 KCAL/MOL
REMARK 922        TOTAL FREE ENERGY PREDICTED BY IDOCK:   -3.48 KCAL/MOL
REMARK 923 INTER-LIGAND FREE ENERGY PREDICTED BY IDOCK:   -3.43 KCAL/MOL
REMARK 924 INTRA-LIGAND FREE ENERGY PREDICTED BY IDOCK:   -0.05 KCAL/MOL
REMARK 927      BINDING AFFINITY PREDICTED BY RF-SCORE:    0.00 PKD
ROOT
HETATM    1  C   UNL     1     -11.291  13.132  67.613  1.00  0.00    -0.335 C  
HETATM    2  C   UNL     1     -11.191  14.518  67.003  1.00  0.00    -0.337 C  
ENDROOT
BRANCH   2   3
HETATM    3  O   UNL     1     -11.970  15.413  67.807  1.00  0.00    -0.156 OA 
BRANCH   3   4
HETATM    4  C   UNL     1     -11.486  15.656  69.049  1.00  0.00    -0.363 C  
HETATM    5  O   UNL     1     -11.968  15.271  70.102  1.00  0.00    -0.292 OA 
BRANCH   4   6
HETATM    6  C   UNL     1     -10.196  16.391  68.950  1.00  0.00    -0.258 A  
HETATM    7  C   UNL     1      -9.009  15.690  69.205  1.00  0.00    -0.257 A  
HETATM    8  C   UNL     1      -7.775  16.327  69.070  1.00  0.00    -0.224 A  
HETATM    9  C   UNL     1      -7.733  17.662  68.675  1.00  0.00    -0.281 A  
HETATM   10  O   UNL     1      -6.552  18.327  68.537  1.00  0.00    -0.208 OA 
HETATM   11  C   UNL     1      -8.899  18.365  68.408  1.00  0.00    -0.340 A  
HETATM   12  C   UNL     1     -10.135  17.732  68.547  1.00  0.00    -0.377 A  
HETATM   13  H   UNL     1      -6.523  19.237  68.267  1.00  0.00     0.000 HD 
ENDBRANCH   4   6
ENDBRANCH   3   4
ENDBRANCH   2   3
TORSDOF 3
ENDMDL
MODEL      142
REMARK 921   NORMALIZED FREE ENERGY PREDICTED BY IDOCK:   -2.76 KCAL/MOL
REMARK 922        TOTAL FREE ENERGY PREDICTED BY IDOCK:   -3.48 KCAL/MOL
REMARK 923 INTER-LIGAND FREE ENERGY PREDICTED BY IDOCK:   -3.21 KCAL/MOL
REMARK 924 INTRA-LIGAND FREE ENERGY PREDICTED BY IDOCK:   -0.26 KCAL/MOL
REMARK 927      BINDING AFFINITY PREDICTED BY RF-SCORE:    0.00 PKD
ROOT
HETATM    1  C   UNL     1      -7.133  14.340  67.942  1.00  0.00    -0.169 C  
HETATM    2  C   UNL     1      -8.187  13.333  67.520  1.00  0.00    -0.184 C  
ENDROOT
BRANCH   2   3
HETATM    3  O   UNL     1      -9.408  13.662  68.193  1.00  0.00    -0.201 OA 
BRANCH   3   4
HETATM    4  C   UNL     1     -10.429  14.058  67.395  1.00  0.00    -0.263 C  
HETATM    5  O   UNL     1     -11.338  13.358  66.980  1.00  0.00    -0.295 OA 
BRANCH   4   6
HETATM    6  C   UNL     1     -10.347  15.526  67.167  1.00  0.00    -0.272 A  
HETATM    7  C   UNL     1     -10.627  16.383  68.241  1.00  0.00    -0.318 A  
HETATM    8  C   UNL     1     -10.510  17.765  68.085  1.00  0.00    -0.382 A  
HETATM    9  C   UNL     1     -10.105  18.284  66.857  1.00  0.00    -0.366 A  
HETATM   10  O   UNL     1      -9.982  19.626  66.658  1.00  0.00    -0.356 OA 
HETATM   11  C   UNL     1      -9.812  17.447  65.790  1.00  0.00    -0.028 A  
HETATM   12  C   UNL     1      -9.935  16.065  65.941  1.00  0.00    -0.380 A  
HETATM   13  H   UNL     1      -9.706  19.980  65.821  1.00  0.00     0.000 HD 
ENDBRANCH   4   6
ENDBRANCH   3   4
ENDBRANCH   2   3
TORSDOF 3
ENDMDL
MODEL      143
REMARK 921   NORMALIZED FREE ENERGY PREDICTED BY IDOCK:   -2.76 KCAL/MOL
REMARK 922        TOTAL FREE ENERGY PREDICTED BY IDOCK:   -3.47 KCAL/MOL
REMARK 923 INTER-LIGAND FREE ENERGY PREDICTED BY IDOCK:   -3.27 KCAL/MOL
REMARK 924 INTRA-LIGAND FREE ENERGY PREDICTED BY IDOCK:   -0.20 KCAL/MOL
REMARK 927      BINDING AFFINITY PREDICTED BY RF-SCORE:    0.00 PKD
ROOT
HETATM    1  C   UNL     1      -7.582   8.607  71.588  1.00  0.00    -0.139 C  
HETATM    2  C   UNL     1      -9.051   8.223  71.603  1.00  0.00    -0.185 C  
ENDROOT
BRANCH   2   3
HETATM    3  O   UNL     1      -9.822   9.408  71.377  1.00  0.00    -0.260 OA 
BRANCH   3   4
HETATM    4  C   UNL     1     -11.018   9.222  70.767  1.00  0.00    -0.284 C  
HETATM    5  O   UNL     1     -11.983   8.636  71.230  1.00  0.00    -0.284 OA 
BRANCH   4   6
HETATM    6  C   UNL     1     -11.031   9.935  69.461  1.00  0.00    -0.274 A  
HETATM    7  C   UNL     1     -11.473  11.265  69.433  1.00  0.00    -0.370 A  
HETATM    8  C   UNL     1     -11.450  11.986  68.239  1.00  0.00    -0.361 A  
HETATM    9  C   UNL     1     -10.978  11.376  67.079  1.00  0.00    -0.292 A  
HETATM   10  O   UNL     1     -10.944  12.040  65.889  1.00  0.00    -0.278 OA 
HETATM   11  C   UNL     1     -10.527  10.065  67.095  1.00  0.00    -0.305 A  
HETATM   12  C   UNL     1     -10.554   9.338  68.286  1.00  0.00    -0.237 A  
HETATM   13  H   UNL     1     -10.622  11.625  65.098  1.00  0.00     0.000 HD 
ENDBRANCH   4   6
ENDBRANCH   3   4
ENDBRANCH   2   3
TORSDOF 3
ENDMDL
MODEL      144
REMARK 921   NORMALIZED FREE ENERGY PREDICTED BY IDOCK:   -2.75 KCAL/MOL
REMARK 922        TOTAL FREE ENERGY PREDICTED BY IDOCK:   -3.47 KCAL/MOL
REMARK 923 INTER-LIGAND FREE ENERGY PREDICTED BY IDOCK:   -3.23 KCAL/MOL
REMARK 924 INTRA-LIGAND FREE ENERGY PREDICTED BY IDOCK:   -0.24 KCAL/MOL
REMARK 927      BINDING AFFINITY PREDICTED BY RF-SCORE:    0.00 PKD
ROOT
HETATM    1  C   UNL     1      -6.231  18.679  68.038  1.00  0.00    -0.198 C  
HETATM    2  C   UNL     1      -6.091  17.863  66.767  1.00  0.00    -0.161 C  
ENDROOT
BRANCH   2   3
HETATM    3  O   UNL     1      -7.307  17.130  66.574  1.00  0.00    -0.219 OA 
BRANCH   3   4
HETATM    4  C   UNL     1      -7.327  15.881  67.098  1.00  0.00    -0.223 C  
HETATM    5  O   UNL     1      -6.360  15.164  67.299  1.00  0.00    -0.312 OA 
BRANCH   4   6
HETATM    6  C   UNL     1      -8.715  15.528  67.500  1.00  0.00    -0.183 A  
HETATM    7  C   UNL     1      -9.004  15.411  68.867  1.00  0.00    -0.208 A  
HETATM    8  C   UNL     1     -10.305  15.135  69.288  1.00  0.00    -0.258 A  
HETATM    9  C   UNL     1     -11.315  14.984  68.341  1.00  0.00    -0.309 A  
HETATM   10  O   UNL     1     -12.598  14.708  68.706  1.00  0.00    -0.535 OA 
HETATM   11  C   UNL     1     -11.046  15.109  66.986  1.00  0.00    -0.328 A  
HETATM   12  C   UNL     1      -9.745  15.379  66.560  1.00  0.00    -0.292 A  
HETATM   13  H   UNL     1     -13.286  14.604  68.061  1.00  0.00     0.000 HD 
ENDBRANCH   4   6
ENDBRANCH   3   4
ENDBRANCH   2   3
TORSDOF 3
ENDMDL
MODEL      145
REMARK 921   NORMALIZED FREE ENERGY PREDICTED BY IDOCK:   -2.75 KCAL/MOL
REMARK 922        TOTAL FREE ENERGY PREDICTED BY IDOCK:   -3.47 KCAL/MOL
REMARK 923 INTER-LIGAND FREE ENERGY PREDICTED BY IDOCK:   -3.21 KCAL/MOL
REMARK 924 INTRA-LIGAND FREE ENERGY PREDICTED BY IDOCK:   -0.26 KCAL/MOL
REMARK 927      BINDING AFFINITY PREDICTED BY RF-SCORE:    0.00 PKD
ROOT
HETATM    1  C   UNL     1      -9.621   8.851  71.506  1.00  0.00    -0.362 C  
HETATM    2  C   UNL     1     -10.843   8.471  70.689  1.00  0.00    -0.225 C  
ENDROOT
BRANCH   2   3
HETATM    3  O   UNL     1     -11.374   9.666  70.103  1.00  0.00    -0.244 OA 
BRANCH   3   4
HETATM    4  C   UNL     1     -10.857  10.008  68.899  1.00  0.00    -0.220 C  
HETATM    5  O   UNL     1     -10.561   9.244  67.994  1.00  0.00    -0.228 OA 
BRANCH   4   6
HETATM    6  C   UNL     1     -10.789  11.490  68.785  1.00  0.00    -0.258 A  
HETATM    7  C   UNL     1     -11.845  12.247  69.311  1.00  0.00    -0.363 A  
HETATM    8  C   UNL     1     -11.796  13.641  69.273  1.00  0.00    -0.395 A  
HETATM    9  C   UNL     1     -10.687  14.273  68.715  1.00  0.00    -0.254 A  
HETATM   10  O   UNL     1     -10.599  15.631  68.651  1.00  0.00    -0.229 OA 
HETATM   11  C   UNL     1      -9.629  13.536  68.202  1.00  0.00    -0.215 A  
HETATM   12  C   UNL     1      -9.678  12.142  68.232  1.00  0.00    -0.216 A  
HETATM   13  H   UNL     1      -9.843  16.061  68.271  1.00  0.00     0.000 HD 
ENDBRANCH   4   6
ENDBRANCH   3   4
ENDBRANCH   2   3
TORSDOF 3
ENDMDL
MODEL      146
REMARK 921   NORMALIZED FREE ENERGY PREDICTED BY IDOCK:   -2.73 KCAL/MOL
REMARK 922        TOTAL FREE ENERGY PREDICTED BY IDOCK:   -3.44 KCAL/MOL
REMARK 923 INTER-LIGAND FREE ENERGY PREDICTED BY IDOCK:   -3.30 KCAL/MOL
REMARK 924 INTRA-LIGAND FREE ENERGY PREDICTED BY IDOCK:   -0.14 KCAL/MOL
REMARK 927      BINDING AFFINITY PREDICTED BY RF-SCORE:    0.00 PKD
ROOT
HETATM    1  C   UNL     1     -12.039  10.718  70.016  1.00  0.00    -0.423 C  
HETATM    2  C   UNL     1     -12.122  10.065  71.384  1.00  0.00    -0.407 C  
ENDROOT
BRANCH   2   3
HETATM    3  O   UNL     1     -11.738   8.692  71.244  1.00  0.00    -0.271 OA 
BRANCH   3   4
HETATM    4  C   UNL     1     -10.499   8.382  71.695  1.00  0.00    -0.252 C  
HETATM    5  O   UNL     1      -9.592   9.167  71.922  1.00  0.00    -0.310 OA 
BRANCH   4   6
HETATM    6  C   UNL     1     -10.420   6.924  71.981  1.00  0.00    -0.229 A  
HETATM    7  C   UNL     1     -10.942   6.454  73.195  1.00  0.00    -0.249 A  
HETATM    8  C   UNL     1     -10.937   5.088  73.479  1.00  0.00    -0.393 A  
HETATM    9  C   UNL     1     -10.416   4.196  72.544  1.00  0.00    -0.133 A  
HETATM   10  O   UNL     1     -10.386   2.854  72.782  1.00  0.00    -0.150 OA 
HETATM   11  C   UNL     1      -9.908   4.645  71.335  1.00  0.00    -0.264 A  
HETATM   12  C   UNL     1      -9.905   6.011  71.050  1.00  0.00    -0.220 A  
HETATM   13  H   UNL     1     -10.030   2.246  72.145  1.00  0.00     0.000 HD 
ENDBRANCH   4   6
ENDBRANCH   3   4
ENDBRANCH   2   3
TORSDOF 3
ENDMDL
MODEL      147
REMARK 921   NORMALIZED FREE ENERGY PREDICTED BY IDOCK:   -2.73 KCAL/MOL
REMARK 922        TOTAL FREE ENERGY PREDICTED BY IDOCK:   -3.44 KCAL/MOL
REMARK 923 INTER-LIGAND FREE ENERGY PREDICTED BY IDOCK:   -3.26 KCAL/MOL
REMARK 924 INTRA-LIGAND FREE ENERGY PREDICTED BY IDOCK:   -0.18 KCAL/MOL
REMARK 927      BINDING AFFINITY PREDICTED BY RF-SCORE:    0.00 PKD
ROOT
HETATM    1  C   UNL     1      -8.695   3.604  66.428  1.00  0.00    -0.121 C  
HETATM    2  C   UNL     1      -8.436   4.474  67.644  1.00  0.00    -0.103 C  
ENDROOT
BRANCH   2   3
HETATM    3  O   UNL     1      -9.673   4.633  68.347  1.00  0.00    -0.149 OA 
BRANCH   3   4
HETATM    4  C   UNL     1      -9.695   4.150  69.613  1.00  0.00    -0.199 C  
HETATM    5  O   UNL     1      -9.186   3.111  70.000  1.00  0.00    -0.121 OA 
BRANCH   4   6
HETATM    6  C   UNL     1     -10.355   5.133  70.513  1.00  0.00    -0.314 A  
HETATM    7  C   UNL     1     -10.037   5.103  71.879  1.00  0.00    -0.255 A  
HETATM    8  C   UNL     1     -10.592   6.042  72.749  1.00  0.00    -0.254 A  
HETATM    9  C   UNL     1     -11.458   7.012  72.249  1.00  0.00    -0.270 A  
HETATM   10  O   UNL     1     -12.029   7.944  73.063  1.00  0.00    -0.617 OA 
HETATM   11  C   UNL     1     -11.772   7.060  70.899  1.00  0.00    -0.387 A  
HETATM   12  C   UNL     1     -11.224   6.119  70.026  1.00  0.00    -0.471 A  
HETATM   13  H   UNL     1     -12.619   8.605  72.722  1.00  0.00     0.000 HD 
ENDBRANCH   4   6
ENDBRANCH   3   4
ENDBRANCH   2   3
TORSDOF 3
ENDMDL
MODEL      148
REMARK 921   NORMALIZED FREE ENERGY PREDICTED BY IDOCK:   -2.73 KCAL/MOL
REMARK 922        TOTAL FREE ENERGY PREDICTED BY IDOCK:   -3.44 KCAL/MOL
REMARK 923 INTER-LIGAND FREE ENERGY PREDICTED BY IDOCK:   -3.26 KCAL/MOL
REMARK 924 INTRA-LIGAND FREE ENERGY PREDICTED BY IDOCK:   -0.18 KCAL/MOL
REMARK 927      BINDING AFFINITY PREDICTED BY RF-SCORE:    0.00 PKD
ROOT
HETATM    1  C   UNL     1      -9.074   2.745  71.652  1.00  0.00    -0.156 C  
HETATM    2  C   UNL     1      -9.098   3.504  72.966  1.00  0.00    -0.098 C  
ENDROOT
BRANCH   2   3
HETATM    3  O   UNL     1      -9.583   4.826  72.706  1.00  0.00    -0.131 OA 
BRANCH   3   4
HETATM    4  C   UNL     1     -10.820   5.102  73.186  1.00  0.00    -0.287 C  
HETATM    5  O   UNL     1     -11.409   4.492  74.064  1.00  0.00    -0.220 OA 
BRANCH   4   6
HETATM    6  C   UNL     1     -11.339   6.343  72.551  1.00  0.00    -0.299 A  
HETATM    7  C   UNL     1     -12.655   6.344  72.066  1.00  0.00    -0.141 A  
HETATM    8  C   UNL     1     -13.198   7.504  71.513  1.00  0.00    -0.404 A  
HETATM    9  C   UNL     1     -12.425   8.661  71.453  1.00  0.00    -0.301 A  
HETATM   10  O   UNL     1     -12.912   9.815  70.916  1.00  0.00    -0.487 OA 
HETATM   11  C   UNL     1     -11.127   8.678  71.939  1.00  0.00    -0.416 A  
HETATM   12  C   UNL     1     -10.578   7.519  72.488  1.00  0.00    -0.321 A  
HETATM   13  H   UNL     1     -12.386  10.604  70.874  1.00  0.00     0.000 HD 
ENDBRANCH   4   6
ENDBRANCH   3   4
ENDBRANCH   2   3
TORSDOF 3
ENDMDL
MODEL      149
REMARK 921   NORMALIZED FREE ENERGY PREDICTED BY IDOCK:   -2.71 KCAL/MOL
REMARK 922        TOTAL FREE ENERGY PREDICTED BY IDOCK:   -3.42 KCAL/MOL
REMARK 923 INTER-LIGAND FREE ENERGY PREDICTED BY IDOCK:   -3.23 KCAL/MOL
REMARK 924 INTRA-LIGAND FREE ENERGY PREDICTED BY IDOCK:   -0.19 KCAL/MOL
REMARK 927      BINDING AFFINITY PREDICTED BY RF-SCORE:    0.00 PKD
ROOT
HETATM    1  C   UNL     1      -8.832   4.417  66.819  1.00  0.00    -0.114 C  
HETATM    2  C   UNL     1      -8.940   5.657  67.688  1.00  0.00    -0.107 C  
ENDROOT
BRANCH   2   3
HETATM    3  O   UNL     1      -9.762   5.337  68.816  1.00  0.00    -0.128 OA 
BRANCH   3   4
HETATM    4  C   UNL     1      -9.217   5.591  70.030  1.00  0.00    -0.140 C  
HETATM    5  O   UNL     1      -8.099   5.272  70.403  1.00  0.00    -0.092 OA 
BRANCH   4   6
HETATM    6  C   UNL     1     -10.151   6.422  70.836  1.00  0.00    -0.218 A  
HETATM    7  C   UNL     1     -11.520   6.365  70.537  1.00  0.00    -0.444 A  
HETATM    8  C   UNL     1     -12.436   7.088  71.303  1.00  0.00    -0.430 A  
HETATM    9  C   UNL     1     -11.980   7.858  72.370  1.00  0.00    -0.320 A  
HETATM   10  O   UNL     1     -12.837   8.584  73.142  1.00  0.00    -0.673 OA 
HETATM   11  C   UNL     1     -10.630   7.914  72.685  1.00  0.00    -0.394 A  
HETATM   12  C   UNL     1      -9.710   7.198  71.917  1.00  0.00    -0.169 A  
HETATM   13  H   UNL     1     -12.526   9.109  73.869  1.00  0.00     0.000 HD 
ENDBRANCH   4   6
ENDBRANCH   3   4
ENDBRANCH   2   3
TORSDOF 3
ENDMDL
MODEL      150
REMARK 921   NORMALIZED FREE ENERGY PREDICTED BY IDOCK:   -2.70 KCAL/MOL
REMARK 922        TOTAL FREE ENERGY PREDICTED BY IDOCK:   -3.40 KCAL/MOL
REMARK 923 INTER-LIGAND FREE ENERGY PREDICTED BY IDOCK:   -3.17 KCAL/MOL
REMARK 924 INTRA-LIGAND FREE ENERGY PREDICTED BY IDOCK:   -0.23 KCAL/MOL
REMARK 927      BINDING AFFINITY PREDICTED BY RF-SCORE:    0.00 PKD
ROOT
HETATM    1  C   UNL     1      -9.190   6.266  74.076  1.00  0.00    -0.150 C  
HETATM    2  C   UNL     1     -10.559   6.831  73.743  1.00  0.00    -0.295 C  
ENDROOT
BRANCH   2   3
HETATM    3  O   UNL     1     -10.382   8.171  73.268  1.00  0.00    -0.222 OA 
BRANCH   3   4
HETATM    4  C   UNL     1     -11.266   8.579  72.325  1.00  0.00    -0.362 C  
HETATM    5  O   UNL     1     -12.481   8.602  72.433  1.00  0.00    -0.382 OA 
BRANCH   4   6
HETATM    6  C   UNL     1     -10.531   9.108  71.145  1.00  0.00    -0.385 A  
HETATM    7  C   UNL     1     -11.270   9.698  70.109  1.00  0.00    -0.302 A  
HETATM    8  C   UNL     1     -10.616  10.254  69.009  1.00  0.00    -0.247 A  
HETATM    9  C   UNL     1      -9.224  10.224  68.952  1.00  0.00    -0.175 A  
HETATM   10  O   UNL     1      -8.544  10.750  67.895  1.00  0.00    -0.122 OA 
HETATM   11  C   UNL     1      -8.480   9.655  69.975  1.00  0.00    -0.223 A  
HETATM   12  C   UNL     1      -9.131   9.092  71.074  1.00  0.00    -0.305 A  
HETATM   13  H   UNL     1      -7.596  10.730  67.856  1.00  0.00     0.000 HD 
ENDBRANCH   4   6
ENDBRANCH   3   4
ENDBRANCH   2   3
TORSDOF 3
ENDMDL
MODEL      151
REMARK 921   NORMALIZED FREE ENERGY PREDICTED BY IDOCK:   -2.69 KCAL/MOL
REMARK 922        TOTAL FREE ENERGY PREDICTED BY IDOCK:   -3.39 KCAL/MOL
REMARK 923 INTER-LIGAND FREE ENERGY PREDICTED BY IDOCK:   -3.35 KCAL/MOL
REMARK 924 INTRA-LIGAND FREE ENERGY PREDICTED BY IDOCK:   -0.04 KCAL/MOL
REMARK 927      BINDING AFFINITY PREDICTED BY RF-SCORE:    0.00 PKD
ROOT
HETATM    1  C   UNL     1     -10.136  19.473  68.415  1.00  0.00    -0.546 C  
HETATM    2  C   UNL     1     -10.363  18.035  67.984  1.00  0.00    -0.387 C  
ENDROOT
BRANCH   2   3
HETATM    3  O   UNL     1     -10.144  17.955  66.571  1.00  0.00    -0.334 OA 
BRANCH   3   4
HETATM    4  C   UNL     1      -8.862  17.744  66.188  1.00  0.00    -0.091 C  
HETATM    5  O   UNL     1      -8.113  18.563  65.681  1.00  0.00    -0.445 OA 
BRANCH   4   6
HETATM    6  C   UNL     1      -8.445  16.368  66.571  1.00  0.00    -0.336 A  
HETATM    7  C   UNL     1      -7.137  16.174  67.038  1.00  0.00    -0.248 A  
HETATM    8  C   UNL     1      -6.723  14.909  67.458  1.00  0.00    -0.167 A  
HETATM    9  C   UNL     1      -7.621  13.845  67.416  1.00  0.00    -0.142 A  
HETATM   10  O   UNL     1      -7.258  12.592  67.811  1.00  0.00    -0.100 OA 
HETATM   11  C   UNL     1      -8.921  14.025  66.969  1.00  0.00    -0.248 A  
HETATM   12  C   UNL     1      -9.337  15.287  66.542  1.00  0.00    -0.309 A  
HETATM   13  H   UNL     1      -7.870  11.867  67.783  1.00  0.00     0.000 HD 
ENDBRANCH   4   6
ENDBRANCH   3   4
ENDBRANCH   2   3
TORSDOF 3
ENDMDL
MODEL      152
REMARK 921   NORMALIZED FREE ENERGY PREDICTED BY IDOCK:   -2.65 KCAL/MOL
REMARK 922        TOTAL FREE ENERGY PREDICTED BY IDOCK:   -3.35 KCAL/MOL
REMARK 923 INTER-LIGAND FREE ENERGY PREDICTED BY IDOCK:   -3.12 KCAL/MOL
REMARK 924 INTRA-LIGAND FREE ENERGY PREDICTED BY IDOCK:   -0.23 KCAL/MOL
REMARK 927      BINDING AFFINITY PREDICTED BY RF-SCORE:    0.00 PKD
ROOT
HETATM    1  C   UNL     1     -10.718  14.612  68.660  1.00  0.00    -0.252 C  
HETATM    2  C   UNL     1     -10.790  14.044  67.254  1.00  0.00    -0.284 C  
ENDROOT
BRANCH   2   3
HETATM    3  O   UNL     1     -11.624  12.880  67.289  1.00  0.00    -0.319 OA 
BRANCH   3   4
HETATM    4  C   UNL     1     -11.448  12.003  66.271  1.00  0.00    -0.345 C  
HETATM    5  O   UNL     1     -11.749  12.180  65.102  1.00  0.00    -0.350 OA 
BRANCH   4   6
HETATM    6  C   UNL     1     -10.726  10.799  66.765  1.00  0.00    -0.291 A  
HETATM    7  C   UNL     1      -9.702  10.264  65.972  1.00  0.00    -0.274 A  
HETATM    8  C   UNL     1      -8.964   9.169  66.423  1.00  0.00    -0.182 A  
HETATM    9  C   UNL     1      -9.249   8.618  67.670  1.00  0.00    -0.134 A  
HETATM   10  O   UNL     1      -8.559   7.545  68.148  1.00  0.00    -0.123 OA 
HETATM   11  C   UNL     1     -10.252   9.144  68.471  1.00  0.00    -0.223 A  
HETATM   12  C   UNL     1     -10.996  10.236  68.021  1.00  0.00    -0.345 A  
HETATM   13  H   UNL     1      -8.753   7.169  68.998  1.00  0.00     0.000 HD 
ENDBRANCH   4   6
ENDBRANCH   3   4
ENDBRANCH   2   3
TORSDOF 3
ENDMDL
MODEL      153
REMARK 921   NORMALIZED FREE ENERGY PREDICTED BY IDOCK:   -2.64 KCAL/MOL
REMARK 922        TOTAL FREE ENERGY PREDICTED BY IDOCK:   -3.33 KCAL/MOL
REMARK 923 INTER-LIGAND FREE ENERGY PREDICTED BY IDOCK:   -3.16 KCAL/MOL
REMARK 924 INTRA-LIGAND FREE ENERGY PREDICTED BY IDOCK:   -0.17 KCAL/MOL
REMARK 927      BINDING AFFINITY PREDICTED BY RF-SCORE:    0.00 PKD
ROOT
HETATM    1  C   UNL     1      -9.018   9.571  62.487  1.00  0.00    -0.268 C  
HETATM    2  C   UNL     1      -9.652  10.947  62.581  1.00  0.00    -0.255 C  
ENDROOT
BRANCH   2   3
HETATM    3  O   UNL     1     -10.395  11.010  63.804  1.00  0.00    -0.342 OA 
BRANCH   3   4
HETATM    4  C   UNL     1     -10.494  12.238  64.367  1.00  0.00    -0.325 C  
HETATM    5  O   UNL     1     -11.113  13.191  63.923  1.00  0.00    -0.388 OA 
BRANCH   4   6
HETATM    6  C   UNL     1      -9.810  12.240  65.689  1.00  0.00    -0.247 A  
HETATM    7  C   UNL     1      -8.981  11.156  66.012  1.00  0.00    -0.210 A  
HETATM    8  C   UNL     1      -8.280  11.145  67.218  1.00  0.00    -0.136 A  
HETATM    9  C   UNL     1      -8.405  12.221  68.094  1.00  0.00    -0.174 A  
HETATM   10  O   UNL     1      -7.743  12.249  69.284  1.00  0.00    -0.328 OA 
HETATM   11  C   UNL     1      -9.212  13.305  67.782  1.00  0.00    -0.209 A  
HETATM   12  C   UNL     1      -9.920  13.318  66.579  1.00  0.00    -0.280 A  
HETATM   13  H   UNL     1      -7.828  12.983  69.882  1.00  0.00     0.000 HD 
ENDBRANCH   4   6
ENDBRANCH   3   4
ENDBRANCH   2   3
TORSDOF 3
ENDMDL
MODEL      154
REMARK 921   NORMALIZED FREE ENERGY PREDICTED BY IDOCK:   -2.64 KCAL/MOL
REMARK 922        TOTAL FREE ENERGY PREDICTED BY IDOCK:   -3.33 KCAL/MOL
REMARK 923 INTER-LIGAND FREE ENERGY PREDICTED BY IDOCK:   -3.14 KCAL/MOL
REMARK 924 INTRA-LIGAND FREE ENERGY PREDICTED BY IDOCK:   -0.19 KCAL/MOL
REMARK 927      BINDING AFFINITY PREDICTED BY RF-SCORE:    0.00 PKD
ROOT
HETATM    1  C   UNL     1     -13.837   8.878  71.512  1.00  0.00    -0.388 C  
HETATM    2  C   UNL     1     -12.444   9.398  71.818  1.00  0.00    -0.391 C  
ENDROOT
BRANCH   2   3
HETATM    3  O   UNL     1     -11.884   9.908  70.602  1.00  0.00    -0.277 OA 
BRANCH   3   4
HETATM    4  C   UNL     1     -10.590   9.579  70.369  1.00  0.00    -0.276 C  
HETATM    5  O   UNL     1      -9.783   9.184  71.195  1.00  0.00    -0.269 OA 
BRANCH   4   6
HETATM    6  C   UNL     1     -10.304   9.669  68.912  1.00  0.00    -0.220 A  
HETATM    7  C   UNL     1     -11.141  10.464  68.117  1.00  0.00    -0.344 A  
HETATM    8  C   UNL     1     -10.876  10.619  66.755  1.00  0.00    -0.233 A  
HETATM    9  C   UNL     1      -9.770   9.983  66.196  1.00  0.00    -0.227 A  
HETATM   10  O   UNL     1      -9.476  10.101  64.871  1.00  0.00    -0.242 OA 
HETATM   11  C   UNL     1      -8.926   9.203  66.974  1.00  0.00    -0.139 A  
HETATM   12  C   UNL     1      -9.192   9.041  68.334  1.00  0.00    -0.137 A  
HETATM   13  H   UNL     1      -8.722   9.668  64.490  1.00  0.00     0.000 HD 
ENDBRANCH   4   6
ENDBRANCH   3   4
ENDBRANCH   2   3
TORSDOF 3
ENDMDL
MODEL      155
REMARK 921   NORMALIZED FREE ENERGY PREDICTED BY IDOCK:   -2.62 KCAL/MOL
REMARK 922        TOTAL FREE ENERGY PREDICTED BY IDOCK:   -3.32 KCAL/MOL
REMARK 923 INTER-LIGAND FREE ENERGY PREDICTED BY IDOCK:   -3.16 KCAL/MOL
REMARK 924 INTRA-LIGAND FREE ENERGY PREDICTED BY IDOCK:   -0.16 KCAL/MOL
REMARK 927      BINDING AFFINITY PREDICTED BY RF-SCORE:    0.00 PKD
ROOT
HETATM    1  C   UNL     1      -7.817   5.696  66.213  1.00  0.00    -0.100 C  
HETATM    2  C   UNL     1      -9.125   6.452  66.355  1.00  0.00    -0.154 C  
ENDROOT
BRANCH   2   3
HETATM    3  O   UNL     1      -9.026   7.296  67.508  1.00  0.00    -0.122 OA 
BRANCH   3   4
HETATM    4  C   UNL     1      -9.970   8.263  67.609  1.00  0.00    -0.190 C  
HETATM    5  O   UNL     1     -10.375   8.977  66.706  1.00  0.00    -0.261 OA 
BRANCH   4   6
HETATM    6  C   UNL     1     -10.535   8.270  68.985  1.00  0.00    -0.212 A  
HETATM    7  C   UNL     1     -10.969   7.055  69.534  1.00  0.00    -0.251 A  
HETATM    8  C   UNL     1     -11.455   7.009  70.841  1.00  0.00    -0.349 A  
HETATM    9  C   UNL     1     -11.499   8.178  71.597  1.00  0.00    -0.274 A  
HETATM   10  O   UNL     1     -11.971   8.181  72.875  1.00  0.00    -0.581 OA 
HETATM   11  C   UNL     1     -11.062   9.385  71.072  1.00  0.00    -0.414 A  
HETATM   12  C   UNL     1     -10.581   9.436  69.763  1.00  0.00    -0.247 A  
HETATM   13  H   UNL     1     -12.002   8.978  73.391  1.00  0.00     0.000 HD 
ENDBRANCH   4   6
ENDBRANCH   3   4
ENDBRANCH   2   3
TORSDOF 3
ENDMDL
MODEL      156
REMARK 921   NORMALIZED FREE ENERGY PREDICTED BY IDOCK:   -2.62 KCAL/MOL
REMARK 922        TOTAL FREE ENERGY PREDICTED BY IDOCK:   -3.31 KCAL/MOL
REMARK 923 INTER-LIGAND FREE ENERGY PREDICTED BY IDOCK:   -3.06 KCAL/MOL
REMARK 924 INTRA-LIGAND FREE ENERGY PREDICTED BY IDOCK:   -0.25 KCAL/MOL
REMARK 927      BINDING AFFINITY PREDICTED BY RF-SCORE:    0.00 PKD
ROOT
HETATM    1  C   UNL     1     -12.320  10.868  69.957  1.00  0.00    -0.385 C  
HETATM    2  C   UNL     1     -12.942  10.089  71.102  1.00  0.00    -0.387 C  
ENDROOT
BRANCH   2   3
HETATM    3  O   UNL     1     -11.884   9.613  71.941  1.00  0.00    -0.367 OA 
BRANCH   3   4
HETATM    4  C   UNL     1     -11.309   8.448  71.554  1.00  0.00    -0.276 C  
HETATM    5  O   UNL     1     -11.891   7.437  71.195  1.00  0.00    -0.284 OA 
BRANCH   4   6
HETATM    6  C   UNL     1      -9.830   8.604  71.529  1.00  0.00    -0.342 A  
HETATM    7  C   UNL     1      -9.080   8.015  72.557  1.00  0.00    -0.271 A  
HETATM    8  C   UNL     1      -7.686   8.091  72.541  1.00  0.00    -0.155 A  
HETATM    9  C   UNL     1      -7.048   8.749  71.493  1.00  0.00    -0.083 A  
HETATM   10  O   UNL     1      -5.690   8.853  71.440  1.00  0.00    -0.040 OA 
HETATM   11  C   UNL     1      -7.776   9.326  70.463  1.00  0.00    -0.160 A  
HETATM   12  C   UNL     1      -9.170   9.257  70.478  1.00  0.00    -0.311 A  
HETATM   13  H   UNL     1      -5.255   9.302  70.725  1.00  0.00     0.000 HD 
ENDBRANCH   4   6
ENDBRANCH   3   4
ENDBRANCH   2   3
TORSDOF 3
ENDMDL
MODEL      157
REMARK 921   NORMALIZED FREE ENERGY PREDICTED BY IDOCK:   -2.61 KCAL/MOL
REMARK 922        TOTAL FREE ENERGY PREDICTED BY IDOCK:   -3.30 KCAL/MOL
REMARK 923 INTER-LIGAND FREE ENERGY PREDICTED BY IDOCK:   -3.11 KCAL/MOL
REMARK 924 INTRA-LIGAND FREE ENERGY PREDICTED BY IDOCK:   -0.19 KCAL/MOL
REMARK 927      BINDING AFFINITY PREDICTED BY RF-SCORE:    0.00 PKD
ROOT
HETATM    1  C   UNL     1      -8.258   5.085  66.720  1.00  0.00    -0.107 C  
HETATM    2  C   UNL     1      -8.006   6.582  66.717  1.00  0.00    -0.108 C  
ENDROOT
BRANCH   2   3
HETATM    3  O   UNL     1      -9.087   7.212  66.020  1.00  0.00    -0.148 OA 
BRANCH   3   4
HETATM    4  C   UNL     1      -9.824   8.084  66.748  1.00  0.00    -0.257 C  
HETATM    5  O   UNL     1     -10.274   7.895  67.867  1.00  0.00    -0.189 OA 
BRANCH   4   6
HETATM    6  C   UNL     1      -9.931   9.378  66.023  1.00  0.00    -0.352 A  
HETATM    7  C   UNL     1     -10.616  10.434  66.641  1.00  0.00    -0.245 A  
HETATM    8  C   UNL     1     -10.693  11.680  66.018  1.00  0.00    -0.328 A  
HETATM    9  C   UNL     1     -10.078  11.868  64.782  1.00  0.00    -0.262 A  
HETATM   10  O   UNL     1     -10.132  13.066  64.135  1.00  0.00    -0.593 OA 
HETATM   11  C   UNL     1      -9.387  10.837  64.165  1.00  0.00    -0.286 A  
HETATM   12  C   UNL     1      -9.313   9.587  64.782  1.00  0.00    -0.235 A  
HETATM   13  H   UNL     1      -9.713  13.194  63.293  1.00  0.00     0.000 HD 
ENDBRANCH   4   6
ENDBRANCH   3   4
ENDBRANCH   2   3
TORSDOF 3
ENDMDL
MODEL      158
REMARK 921   NORMALIZED FREE ENERGY PREDICTED BY IDOCK:   -2.60 KCAL/MOL
REMARK 922        TOTAL FREE ENERGY PREDICTED BY IDOCK:   -3.29 KCAL/MOL
REMARK 923 INTER-LIGAND FREE ENERGY PREDICTED BY IDOCK:   -3.10 KCAL/MOL
REMARK 924 INTRA-LIGAND FREE ENERGY PREDICTED BY IDOCK:   -0.19 KCAL/MOL
REMARK 927      BINDING AFFINITY PREDICTED BY RF-SCORE:    0.00 PKD
ROOT
HETATM    1  C   UNL     1      -9.008  13.268  67.771  1.00  0.00    -0.196 C  
HETATM    2  C   UNL     1      -9.568  14.327  68.703  1.00  0.00    -0.192 C  
ENDROOT
BRANCH   2   3
HETATM    3  O   UNL     1      -9.359  15.608  68.095  1.00  0.00    -0.191 OA 
BRANCH   3   4
HETATM    4  C   UNL     1      -8.268  16.288  68.523  1.00  0.00    -0.195 C  
HETATM    5  O   UNL     1      -7.550  15.989  69.464  1.00  0.00    -0.219 OA 
BRANCH   4   6
HETATM    6  C   UNL     1      -7.995  17.425  67.603  1.00  0.00    -0.199 A  
HETATM    7  C   UNL     1      -9.063  18.254  67.232  1.00  0.00    -0.256 A  
HETATM    8  C   UNL     1      -8.840  19.363  66.415  1.00  0.00    -0.385 A  
HETATM    9  C   UNL     1      -7.548  19.643  65.978  1.00  0.00    -0.321 A  
HETATM   10  O   UNL     1      -7.285  20.712  65.175  1.00  0.00    -0.525 OA 
HETATM   11  C   UNL     1      -6.480  18.839  66.347  1.00  0.00    -0.223 A  
HETATM   12  C   UNL     1      -6.699  17.726  67.159  1.00  0.00    -0.192 A  
HETATM   13  H   UNL     1      -6.404  20.903  64.876  1.00  0.00     0.000 HD 
ENDBRANCH   4   6
ENDBRANCH   3   4
ENDBRANCH   2   3
TORSDOF 3
ENDMDL
MODEL      159
REMARK 921   NORMALIZED FREE ENERGY PREDICTED BY IDOCK:   -2.57 KCAL/MOL
REMARK 922        TOTAL FREE ENERGY PREDICTED BY IDOCK:   -3.26 KCAL/MOL
REMARK 923 INTER-LIGAND FREE ENERGY PREDICTED BY IDOCK:   -3.09 KCAL/MOL
REMARK 924 INTRA-LIGAND FREE ENERGY PREDICTED BY IDOCK:   -0.17 KCAL/MOL
REMARK 927      BINDING AFFINITY PREDICTED BY RF-SCORE:    0.00 PKD
ROOT
HETATM    1  C   UNL     1     -10.405   5.001  68.951  1.00  0.00    -0.134 C  
HETATM    2  C   UNL     1     -11.155   6.267  68.576  1.00  0.00    -0.308 C  
ENDROOT
BRANCH   2   3
HETATM    3  O   UNL     1     -10.245   7.368  68.681  1.00  0.00    -0.181 OA 
BRANCH   3   4
HETATM    4  C   UNL     1     -10.743   8.485  69.265  1.00  0.00    -0.133 C  
HETATM    5  O   UNL     1     -11.092   8.601  70.428  1.00  0.00    -0.240 OA 
BRANCH   4   6
HETATM    6  C   UNL     1     -10.713   9.613  68.295  1.00  0.00    -0.262 A  
HETATM    7  C   UNL     1     -10.030   9.432  67.084  1.00  0.00    -0.263 A  
HETATM    8  C   UNL     1     -10.023  10.446  66.124  1.00  0.00    -0.290 A  
HETATM    9  C   UNL     1     -10.705  11.633  66.377  1.00  0.00    -0.272 A  
HETATM   10  O   UNL     1     -10.720  12.652  65.472  1.00  0.00    -0.265 OA 
HETATM   11  C   UNL     1     -11.395  11.821  67.565  1.00  0.00    -0.377 A  
HETATM   12  C   UNL     1     -11.399  10.813  68.530  1.00  0.00    -0.360 A  
HETATM   13  H   UNL     1     -11.184  13.462  65.644  1.00  0.00     0.000 HD 
ENDBRANCH   4   6
ENDBRANCH   3   4
ENDBRANCH   2   3
TORSDOF 3
ENDMDL
MODEL      160
REMARK 921   NORMALIZED FREE ENERGY PREDICTED BY IDOCK:   -2.57 KCAL/MOL
REMARK 922        TOTAL FREE ENERGY PREDICTED BY IDOCK:   -3.25 KCAL/MOL
REMARK 923 INTER-LIGAND FREE ENERGY PREDICTED BY IDOCK:   -3.13 KCAL/MOL
REMARK 924 INTRA-LIGAND FREE ENERGY PREDICTED BY IDOCK:   -0.12 KCAL/MOL
REMARK 927      BINDING AFFINITY PREDICTED BY RF-SCORE:    0.00 PKD
ROOT
HETATM    1  C   UNL     1     -10.434  19.498  67.553  1.00  0.00    -0.596 C  
HETATM    2  C   UNL     1     -10.301  18.327  68.509  1.00  0.00    -0.317 C  
ENDROOT
BRANCH   2   3
HETATM    3  O   UNL     1     -10.485  17.120  67.760  1.00  0.00    -0.336 OA 
BRANCH   3   4
HETATM    4  C   UNL     1     -10.832  16.028  68.483  1.00  0.00    -0.304 C  
HETATM    5  O   UNL     1     -11.893  15.847  69.059  1.00  0.00    -0.389 OA 
BRANCH   4   6
HETATM    6  C   UNL     1      -9.755  15.006  68.396  1.00  0.00    -0.216 A  
HETATM    7  C   UNL     1     -10.046  13.782  67.778  1.00  0.00    -0.245 A  
HETATM    8  C   UNL     1      -9.050  12.817  67.627  1.00  0.00    -0.193 A  
HETATM    9  C   UNL     1      -7.763  13.083  68.089  1.00  0.00    -0.143 A  
HETATM   10  O   UNL     1      -6.760  12.168  67.969  1.00  0.00    -0.063 OA 
HETATM   11  C   UNL     1      -7.457  14.294  68.691  1.00  0.00    -0.127 A  
HETATM   12  C   UNL     1      -8.453  15.259  68.849  1.00  0.00    -0.202 A  
HETATM   13  H   UNL     1      -5.883  12.349  68.284  1.00  0.00     0.000 HD 
ENDBRANCH   4   6
ENDBRANCH   3   4
ENDBRANCH   2   3
TORSDOF 3
ENDMDL
MODEL      161
REMARK 921   NORMALIZED FREE ENERGY PREDICTED BY IDOCK:   -2.56 KCAL/MOL
REMARK 922        TOTAL FREE ENERGY PREDICTED BY IDOCK:   -3.24 KCAL/MOL
REMARK 923 INTER-LIGAND FREE ENERGY PREDICTED BY IDOCK:   -3.78 KCAL/MOL
REMARK 924 INTRA-LIGAND FREE ENERGY PREDICTED BY IDOCK:    0.53 KCAL/MOL
REMARK 927      BINDING AFFINITY PREDICTED BY RF-SCORE:    0.00 PKD
ROOT
HETATM    1  C   UNL     1      -8.471  18.009  67.192  1.00  0.00    -0.241 C  
HETATM    2  C   UNL     1      -8.966  16.682  66.644  1.00  0.00    -0.255 C  
ENDROOT
BRANCH   2   3
HETATM    3  O   UNL     1     -10.375  16.602  66.883  1.00  0.00    -0.297 OA 
BRANCH   3   4
HETATM    4  C   UNL     1     -10.789  17.030  68.101  1.00  0.00    -0.338 C  
HETATM    5  O   UNL     1     -10.782  18.182  68.504  1.00  0.00    -0.218 OA 
BRANCH   4   6
HETATM    6  C   UNL     1     -11.362  15.890  68.865  1.00  0.00    -0.377 A  
HETATM    7  C   UNL     1     -11.550  14.669  68.201  1.00  0.00    -0.362 A  
HETATM    8  C   UNL     1     -12.034  13.560  68.895  1.00  0.00    -0.378 A  
HETATM    9  C   UNL     1     -12.323  13.674  70.252  1.00  0.00    -0.322 A  
HETATM   10  O   UNL     1     -12.804  12.619  70.968  1.00  0.00    -0.275 OA 
HETATM   11  C   UNL     1     -12.131  14.871  70.925  1.00  0.00    -0.377 A  
HETATM   12  C   UNL     1     -11.652  15.985  70.233  1.00  0.00    -0.335 A  
HETATM   13  H   UNL     1     -13.001  12.696  71.894  1.00  0.00     0.000 HD 
ENDBRANCH   4   6
ENDBRANCH   3   4
ENDBRANCH   2   3
TORSDOF 3
ENDMDL
MODEL      162
REMARK 921   NORMALIZED FREE ENERGY PREDICTED BY IDOCK:   -2.55 KCAL/MOL
REMARK 922        TOTAL FREE ENERGY PREDICTED BY IDOCK:   -3.23 KCAL/MOL
REMARK 923 INTER-LIGAND FREE ENERGY PREDICTED BY IDOCK:   -3.07 KCAL/MOL
REMARK 924 INTRA-LIGAND FREE ENERGY PREDICTED BY IDOCK:   -0.16 KCAL/MOL
REMARK 927      BINDING AFFINITY PREDICTED BY RF-SCORE:    0.00 PKD
ROOT
HETATM    1  C   UNL     1     -12.422  13.291  70.912  1.00  0.00    -0.424 C  
HETATM    2  C   UNL     1     -12.120  13.970  69.588  1.00  0.00    -0.355 C  
ENDROOT
BRANCH   2   3
HETATM    3  O   UNL     1     -10.845  14.612  69.700  1.00  0.00    -0.241 OA 
BRANCH   3   4
HETATM    4  C   UNL     1     -10.638  15.655  68.860  1.00  0.00    -0.228 C  
HETATM    5  O   UNL     1     -11.458  16.501  68.539  1.00  0.00    -0.317 OA 
BRANCH   4   6
HETATM    6  C   UNL     1      -9.209  15.692  68.448  1.00  0.00    -0.191 A  
HETATM    7  C   UNL     1      -8.626  14.513  67.962  1.00  0.00    -0.162 A  
HETATM    8  C   UNL     1      -7.304  14.518  67.515  1.00  0.00    -0.212 A  
HETATM    9  C   UNL     1      -6.573  15.703  67.547  1.00  0.00    -0.182 A  
HETATM   10  O   UNL     1      -5.279  15.753  67.126  1.00  0.00    -0.338 OA 
HETATM   11  C   UNL     1      -7.142  16.879  68.013  1.00  0.00    -0.163 A  
HETATM   12  C   UNL     1      -8.461  16.878  68.468  1.00  0.00    -0.258 A  
HETATM   13  H   UNL     1      -4.780  16.561  67.148  1.00  0.00     0.000 HD 
ENDBRANCH   4   6
ENDBRANCH   3   4
ENDBRANCH   2   3
TORSDOF 3
ENDMDL
MODEL      163
REMARK 921   NORMALIZED FREE ENERGY PREDICTED BY IDOCK:   -2.54 KCAL/MOL
REMARK 922        TOTAL FREE ENERGY PREDICTED BY IDOCK:   -3.22 KCAL/MOL
REMARK 923 INTER-LIGAND FREE ENERGY PREDICTED BY IDOCK:   -3.03 KCAL/MOL
REMARK 924 INTRA-LIGAND FREE ENERGY PREDICTED BY IDOCK:   -0.18 KCAL/MOL
REMARK 927      BINDING AFFINITY PREDICTED BY RF-SCORE:    0.00 PKD
ROOT
HETATM    1  C   UNL     1      -5.552  13.602  69.804  1.00  0.00    -0.100 C  
HETATM    2  C   UNL     1      -6.525  14.765  69.868  1.00  0.00    -0.164 C  
ENDROOT
BRANCH   2   3
HETATM    3  O   UNL     1      -6.322  15.578  68.707  1.00  0.00    -0.100 OA 
BRANCH   3   4
HETATM    4  C   UNL     1      -7.322  15.554  67.793  1.00  0.00    -0.156 C  
HETATM    5  O   UNL     1      -7.806  14.561  67.275  1.00  0.00    -0.192 OA 
BRANCH   4   6
HETATM    6  C   UNL     1      -7.834  16.933  67.574  1.00  0.00    -0.186 A  
HETATM    7  C   UNL     1      -8.901  17.114  66.683  1.00  0.00    -0.279 A  
HETATM    8  C   UNL     1      -9.446  18.384  66.490  1.00  0.00    -0.317 A  
HETATM    9  C   UNL     1      -8.927  19.467  67.194  1.00  0.00    -0.303 A  
HETATM   10  O   UNL     1      -9.424  20.726  67.033  1.00  0.00    -0.634 OA 
HETATM   11  C   UNL     1      -7.880  19.301  68.088  1.00  0.00    -0.343 A  
HETATM   12  C   UNL     1      -7.327  18.034  68.280  1.00  0.00    -0.259 A  
HETATM   13  H   UNL     1      -9.070  21.464  67.513  1.00  0.00     0.000 HD 
ENDBRANCH   4   6
ENDBRANCH   3   4
ENDBRANCH   2   3
TORSDOF 3
ENDMDL
MODEL      164
REMARK 921   NORMALIZED FREE ENERGY PREDICTED BY IDOCK:   -2.53 KCAL/MOL
REMARK 922        TOTAL FREE ENERGY PREDICTED BY IDOCK:   -3.21 KCAL/MOL
REMARK 923 INTER-LIGAND FREE ENERGY PREDICTED BY IDOCK:   -3.04 KCAL/MOL
REMARK 924 INTRA-LIGAND FREE ENERGY PREDICTED BY IDOCK:   -0.17 KCAL/MOL
REMARK 927      BINDING AFFINITY PREDICTED BY RF-SCORE:    0.00 PKD
ROOT
HETATM    1  C   UNL     1      -9.447  16.297  69.144  1.00  0.00    -0.246 C  
HETATM    2  C   UNL     1      -8.789  15.100  68.483  1.00  0.00    -0.185 C  
ENDROOT
BRANCH   2   3
HETATM    3  O   UNL     1      -9.381  13.913  69.023  1.00  0.00     0.000 OA 
BRANCH   3   4
HETATM    4  C   UNL     1      -9.987  13.100  68.126  1.00  0.00    -0.234 C  
HETATM    5  O   UNL     1      -9.931  13.192  66.910  1.00  0.00    -0.235 OA 
BRANCH   4   6
HETATM    6  C   UNL     1     -10.669  11.986  68.839  1.00  0.00    -0.222 A  
HETATM    7  C   UNL     1     -10.182  10.684  68.662  1.00  0.00    -0.196 A  
HETATM    8  C   UNL     1     -10.758   9.619  69.354  1.00  0.00    -0.248 A  
HETATM    9  C   UNL     1     -11.816   9.861  70.227  1.00  0.00    -0.184 A  
HETATM   10  O   UNL     1     -12.414   8.851  70.920  1.00  0.00    -0.478 OA 
HETATM   11  C   UNL     1     -12.301  11.146  70.422  1.00  0.00    -0.430 A  
HETATM   12  C   UNL     1     -11.731  12.213  69.726  1.00  0.00    -0.381 A  
HETATM   13  H   UNL     1     -13.135   9.016  71.515  1.00  0.00     0.000 HD 
ENDBRANCH   4   6
ENDBRANCH   3   4
ENDBRANCH   2   3
TORSDOF 3
ENDMDL
MODEL      165
REMARK 921   NORMALIZED FREE ENERGY PREDICTED BY IDOCK:   -2.53 KCAL/MOL
REMARK 922        TOTAL FREE ENERGY PREDICTED BY IDOCK:   -3.20 KCAL/MOL
REMARK 923 INTER-LIGAND FREE ENERGY PREDICTED BY IDOCK:   -3.06 KCAL/MOL
REMARK 924 INTRA-LIGAND FREE ENERGY PREDICTED BY IDOCK:   -0.14 KCAL/MOL
REMARK 927      BINDING AFFINITY PREDICTED BY RF-SCORE:    0.00 PKD
ROOT
HETATM    1  C   UNL     1      -6.660   8.223  68.676  1.00  0.00    -0.054 C  
HETATM    2  C   UNL     1      -7.020   8.178  70.150  1.00  0.00    -0.040 C  
ENDROOT
BRANCH   2   3
HETATM    3  O   UNL     1      -7.663   9.413  70.488  1.00  0.00    -0.134 OA 
BRANCH   3   4
HETATM    4  C   UNL     1      -8.983   9.486  70.191  1.00  0.00    -0.236 C  
HETATM    5  O   UNL     1      -9.505  10.250  69.396  1.00  0.00    -0.207 OA 
BRANCH   4   6
HETATM    6  C   UNL     1      -9.719   8.412  70.910  1.00  0.00    -0.212 A  
HETATM    7  C   UNL     1      -9.763   8.457  72.311  1.00  0.00    -0.386 A  
HETATM    8  C   UNL     1     -10.488   7.499  73.021  1.00  0.00    -0.396 A  
HETATM    9  C   UNL     1     -11.172   6.504  72.327  1.00  0.00    -0.273 A  
HETATM   10  O   UNL     1     -11.887   5.545  72.979  1.00  0.00    -0.537 OA 
HETATM   11  C   UNL     1     -11.147   6.454  70.941  1.00  0.00    -0.354 A  
HETATM   12  C   UNL     1     -10.418   7.406  70.227  1.00  0.00    -0.229 A  
HETATM   13  H   UNL     1     -12.354   4.866  72.507  1.00  0.00     0.000 HD 
ENDBRANCH   4   6
ENDBRANCH   3   4
ENDBRANCH   2   3
TORSDOF 3
ENDMDL
MODEL      166
REMARK 921   NORMALIZED FREE ENERGY PREDICTED BY IDOCK:   -2.51 KCAL/MOL
REMARK 922        TOTAL FREE ENERGY PREDICTED BY IDOCK:   -3.18 KCAL/MOL
REMARK 923 INTER-LIGAND FREE ENERGY PREDICTED BY IDOCK:   -3.08 KCAL/MOL
REMARK 924 INTRA-LIGAND FREE ENERGY PREDICTED BY IDOCK:   -0.10 KCAL/MOL
REMARK 927      BINDING AFFINITY PREDICTED BY RF-SCORE:    0.00 PKD
ROOT
HETATM    1  C   UNL     1     -10.770  19.745  65.597  1.00  0.00    -0.418 C  
HETATM    2  C   UNL     1     -10.000  18.821  66.522  1.00  0.00    -0.380 C  
ENDROOT
BRANCH   2   3
HETATM    3  O   UNL     1     -10.654  17.547  66.522  1.00  0.00    -0.291 OA 
BRANCH   3   4
HETATM    4  C   UNL     1     -10.012  16.559  67.191  1.00  0.00    -0.266 C  
HETATM    5  O   UNL     1      -8.974  16.012  66.856  1.00  0.00    -0.200 OA 
BRANCH   4   6
HETATM    6  C   UNL     1     -10.708  16.291  68.478  1.00  0.00    -0.307 A  
HETATM    7  C   UNL     1     -11.432  15.097  68.608  1.00  0.00    -0.341 A  
HETATM    8  C   UNL     1     -12.054  14.782  69.817  1.00  0.00    -0.364 A  
HETATM    9  C   UNL     1     -11.944  15.659  70.893  1.00  0.00    -0.397 A  
HETATM   10  O   UNL     1     -12.540  15.395  72.090  1.00  0.00    -0.319 OA 
HETATM   11  C   UNL     1     -11.221  16.838  70.783  1.00  0.00     0.282 A  
HETATM   12  C   UNL     1     -10.602  17.159  69.574  1.00  0.00    -0.083 A  
HETATM   13  H   UNL     1     -12.466  15.993  72.824  1.00  0.00     0.000 HD 
ENDBRANCH   4   6
ENDBRANCH   3   4
ENDBRANCH   2   3
TORSDOF 3
ENDMDL
MODEL      167
REMARK 921   NORMALIZED FREE ENERGY PREDICTED BY IDOCK:   -2.49 KCAL/MOL
REMARK 922        TOTAL FREE ENERGY PREDICTED BY IDOCK:   -3.15 KCAL/MOL
REMARK 923 INTER-LIGAND FREE ENERGY PREDICTED BY IDOCK:   -2.95 KCAL/MOL
REMARK 924 INTRA-LIGAND FREE ENERGY PREDICTED BY IDOCK:   -0.21 KCAL/MOL
REMARK 927      BINDING AFFINITY PREDICTED BY RF-SCORE:    0.00 PKD
ROOT
HETATM    1  C   UNL     1      -6.971   9.877  70.454  1.00  0.00    -0.145 C  
HETATM    2  C   UNL     1      -8.235   9.165  70.007  1.00  0.00    -0.143 C  
ENDROOT
BRANCH   2   3
HETATM    3  O   UNL     1      -9.256  10.151  69.820  1.00  0.00    -0.208 OA 
BRANCH   3   4
HETATM    4  C   UNL     1      -9.413  10.598  68.551  1.00  0.00    -0.176 C  
HETATM    5  O   UNL     1      -9.078  10.017  67.531  1.00  0.00    -0.134 OA 
BRANCH   4   6
HETATM    6  C   UNL     1     -10.161  11.884  68.561  1.00  0.00    -0.211 A  
HETATM    7  C   UNL     1      -9.691  12.935  67.760  1.00  0.00    -0.214 A  
HETATM    8  C   UNL     1     -10.393  14.139  67.700  1.00  0.00    -0.241 A  
HETATM    9  C   UNL     1     -11.567  14.286  68.435  1.00  0.00    -0.320 A  
HETATM   10  O   UNL     1     -12.281  15.446  68.411  1.00  0.00    -0.535 OA 
HETATM   11  C   UNL     1     -12.050  13.251  69.223  1.00  0.00    -0.291 A  
HETATM   12  C   UNL     1     -11.347  12.047  69.291  1.00  0.00    -0.330 A  
HETATM   13  H   UNL     1     -13.081  15.546  68.913  1.00  0.00     0.000 HD 
ENDBRANCH   4   6
ENDBRANCH   3   4
ENDBRANCH   2   3
TORSDOF 3
ENDMDL
MODEL      168
REMARK 921   NORMALIZED FREE ENERGY PREDICTED BY IDOCK:   -2.47 KCAL/MOL
REMARK 922        TOTAL FREE ENERGY PREDICTED BY IDOCK:   -3.14 KCAL/MOL
REMARK 923 INTER-LIGAND FREE ENERGY PREDICTED BY IDOCK:   -3.19 KCAL/MOL
REMARK 924 INTRA-LIGAND FREE ENERGY PREDICTED BY IDOCK:    0.06 KCAL/MOL
REMARK 927      BINDING AFFINITY PREDICTED BY RF-SCORE:    0.00 PKD
ROOT
HETATM    1  C   UNL     1     -11.714  14.505  69.886  1.00  0.00    -0.354 C  
HETATM    2  C   UNL     1     -10.606  14.605  68.853  1.00  0.00    -0.253 C  
ENDROOT
BRANCH   2   3
HETATM    3  O   UNL     1      -9.654  15.570  69.315  1.00  0.00    -0.231 OA 
BRANCH   3   4
HETATM    4  C   UNL     1      -9.961  16.864  69.060  1.00  0.00    -0.265 C  
HETATM    5  O   UNL     1     -10.764  17.552  69.670  1.00  0.00     0.014 OA 
BRANCH   4   6
HETATM    6  C   UNL     1      -9.091  17.381  67.970  1.00  0.00    -0.259 A  
HETATM    7  C   UNL     1      -9.018  18.767  67.776  1.00  0.00    -0.308 A  
HETATM    8  C   UNL     1      -8.172  19.296  66.800  1.00  0.00    -0.301 A  
HETATM    9  C   UNL     1      -7.397  18.435  66.026  1.00  0.00    -0.238 A  
HETATM   10  O   UNL     1      -6.562  18.906  65.057  1.00  0.00    -0.476 OA 
HETATM   11  C   UNL     1      -7.450  17.062  66.215  1.00  0.00    -0.318 A  
HETATM   12  C   UNL     1      -8.299  16.530  67.186  1.00  0.00    -0.206 A  
HETATM   13  H   UNL     1      -6.034  18.320  64.529  1.00  0.00     0.000 HD 
ENDBRANCH   4   6
ENDBRANCH   3   4
ENDBRANCH   2   3
TORSDOF 3
ENDMDL
MODEL      169
REMARK 921   NORMALIZED FREE ENERGY PREDICTED BY IDOCK:   -2.45 KCAL/MOL
REMARK 922        TOTAL FREE ENERGY PREDICTED BY IDOCK:   -3.12 KCAL/MOL
REMARK 923 INTER-LIGAND FREE ENERGY PREDICTED BY IDOCK:   -2.89 KCAL/MOL
REMARK 924 INTRA-LIGAND FREE ENERGY PREDICTED BY IDOCK:   -0.22 KCAL/MOL
REMARK 927      BINDING AFFINITY PREDICTED BY RF-SCORE:    0.00 PKD
ROOT
HETATM    1  C   UNL     1     -10.214   4.769  65.871  1.00  0.00    -0.286 C  
HETATM    2  C   UNL     1     -10.180   5.199  67.327  1.00  0.00    -0.190 C  
ENDROOT
BRANCH   2   3
HETATM    3  O   UNL     1     -11.116   6.270  67.495  1.00  0.00    -0.348 OA 
BRANCH   3   4
HETATM    4  C   UNL     1     -10.583   7.515  67.532  1.00  0.00    -0.261 C  
HETATM    5  O   UNL     1     -10.576   8.328  66.622  1.00  0.00    -0.268 OA 
BRANCH   4   6
HETATM    6  C   UNL     1     -10.081   7.804  68.903  1.00  0.00    -0.201 A  
HETATM    7  C   UNL     1      -8.717   8.085  69.067  1.00  0.00    -0.137 A  
HETATM    8  C   UNL     1      -8.216   8.415  70.327  1.00  0.00    -0.121 A  
HETATM    9  C   UNL     1      -9.082   8.469  71.417  1.00  0.00    -0.206 A  
HETATM   10  O   UNL     1      -8.636   8.780  72.666  1.00  0.00    -0.411 OA 
HETATM   11  C   UNL     1     -10.435   8.205  71.266  1.00  0.00    -0.254 A  
HETATM   12  C   UNL     1     -10.940   7.869  70.009  1.00  0.00    -0.208 A  
HETATM   13  H   UNL     1      -9.226   8.817  73.409  1.00  0.00     0.000 HD 
ENDBRANCH   4   6
ENDBRANCH   3   4
ENDBRANCH   2   3
TORSDOF 3
ENDMDL
MODEL      170
REMARK 921   NORMALIZED FREE ENERGY PREDICTED BY IDOCK:   -2.44 KCAL/MOL
REMARK 922        TOTAL FREE ENERGY PREDICTED BY IDOCK:   -3.10 KCAL/MOL
REMARK 923 INTER-LIGAND FREE ENERGY PREDICTED BY IDOCK:   -2.84 KCAL/MOL
REMARK 924 INTRA-LIGAND FREE ENERGY PREDICTED BY IDOCK:   -0.27 KCAL/MOL
REMARK 927      BINDING AFFINITY PREDICTED BY RF-SCORE:    0.00 PKD
ROOT
HETATM    1  C   UNL     1      -9.843   2.847  72.614  1.00  0.00    -0.207 C  
HETATM    2  C   UNL     1      -8.699   3.844  72.597  1.00  0.00    -0.099 C  
ENDROOT
BRANCH   2   3
HETATM    3  O   UNL     1      -8.417   4.171  71.231  1.00  0.00    -0.082 OA 
BRANCH   3   4
HETATM    4  C   UNL     1      -8.261   5.490  70.965  1.00  0.00    -0.120 C  
HETATM    5  O   UNL     1      -7.228   6.044  70.626  1.00  0.00    -0.075 OA 
BRANCH   4   6
HETATM    6  C   UNL     1      -9.578   6.177  71.045  1.00  0.00    -0.194 A  
HETATM    7  C   UNL     1      -9.688   7.315  71.857  1.00  0.00    -0.171 A  
HETATM    8  C   UNL     1     -10.891   8.019  71.918  1.00  0.00    -0.316 A  
HETATM    9  C   UNL     1     -11.978   7.587  71.162  1.00  0.00    -0.308 A  
HETATM   10  O   UNL     1     -13.173   8.240  71.195  1.00  0.00    -0.507 OA 
HETATM   11  C   UNL     1     -11.880   6.471  70.345  1.00  0.00    -0.378 A  
HETATM   12  C   UNL     1     -10.680   5.760  70.285  1.00  0.00    -0.380 A  
HETATM   13  H   UNL     1     -13.914   7.946  70.679  1.00  0.00     0.000 HD 
ENDBRANCH   4   6
ENDBRANCH   3   4
ENDBRANCH   2   3
TORSDOF 3
ENDMDL
MODEL      171
REMARK 921   NORMALIZED FREE ENERGY PREDICTED BY IDOCK:   -2.44 KCAL/MOL
REMARK 922        TOTAL FREE ENERGY PREDICTED BY IDOCK:   -3.10 KCAL/MOL
REMARK 923 INTER-LIGAND FREE ENERGY PREDICTED BY IDOCK:   -2.88 KCAL/MOL
REMARK 924 INTRA-LIGAND FREE ENERGY PREDICTED BY IDOCK:   -0.21 KCAL/MOL
REMARK 927      BINDING AFFINITY PREDICTED BY RF-SCORE:    0.00 PKD
ROOT
HETATM    1  C   UNL     1     -10.443  11.272  64.475  1.00  0.00    -0.396 C  
HETATM    2  C   UNL     1      -9.304  10.272  64.377  1.00  0.00    -0.277 C  
ENDROOT
BRANCH   2   3
HETATM    3  O   UNL     1      -9.226   9.566  65.621  1.00  0.00    -0.188 OA 
BRANCH   3   4
HETATM    4  C   UNL     1      -8.763  10.284  66.673  1.00  0.00    -0.127 C  
HETATM    5  O   UNL     1      -7.783  11.011  66.679  1.00  0.00    -0.141 OA 
BRANCH   4   6
HETATM    6  C   UNL     1      -9.693  10.141  67.825  1.00  0.00    -0.176 A  
HETATM    7  C   UNL     1      -9.463   9.107  68.743  1.00  0.00    -0.147 A  
HETATM    8  C   UNL     1     -10.279   8.971  69.867  1.00  0.00    -0.214 A  
HETATM    9  C   UNL     1     -11.319   9.874  70.071  1.00  0.00    -0.249 A  
HETATM   10  O   UNL     1     -12.145   9.777  71.150  1.00  0.00    -0.319 OA 
HETATM   11  C   UNL     1     -11.551  10.910  69.177  1.00  0.00    -0.389 A  
HETATM   12  C   UNL     1     -10.741  11.045  68.049  1.00  0.00    -0.260 A  
HETATM   13  H   UNL     1     -12.854  10.392  71.290  1.00  0.00     0.000 HD 
ENDBRANCH   4   6
ENDBRANCH   3   4
ENDBRANCH   2   3
TORSDOF 3
ENDMDL
MODEL      172
REMARK 921   NORMALIZED FREE ENERGY PREDICTED BY IDOCK:   -2.42 KCAL/MOL
REMARK 922        TOTAL FREE ENERGY PREDICTED BY IDOCK:   -3.08 KCAL/MOL
REMARK 923 INTER-LIGAND FREE ENERGY PREDICTED BY IDOCK:   -2.78 KCAL/MOL
REMARK 924 INTRA-LIGAND FREE ENERGY PREDICTED BY IDOCK:   -0.31 KCAL/MOL
REMARK 927      BINDING AFFINITY PREDICTED BY RF-SCORE:    0.00 PKD
ROOT
HETATM    1  C   UNL     1      -7.434   8.741  68.395  1.00  0.00    -0.091 C  
HETATM    2  C   UNL     1      -7.828   7.397  67.811  1.00  0.00    -0.113 C  
ENDROOT
BRANCH   2   3
HETATM    3  O   UNL     1      -9.245   7.403  67.601  1.00  0.00    -0.128 OA 
BRANCH   3   4
HETATM    4  C   UNL     1      -9.926   6.381  68.172  1.00  0.00    -0.136 C  
HETATM    5  O   UNL     1     -10.031   5.246  67.735  1.00  0.00    -0.147 OA 
BRANCH   4   6
HETATM    6  C   UNL     1     -10.460   6.810  69.493  1.00  0.00    -0.248 A  
HETATM    7  C   UNL     1     -10.991   8.102  69.609  1.00  0.00    -0.094 A  
HETATM    8  C   UNL     1     -11.551   8.525  70.815  1.00  0.00    -0.257 A  
HETATM    9  C   UNL     1     -11.584   7.651  71.899  1.00  0.00    -0.280 A  
HETATM   10  O   UNL     1     -12.116   8.023  73.097  1.00  0.00    -0.656 OA 
HETATM   11  C   UNL     1     -11.074   6.365  71.795  1.00  0.00    -0.311 A  
HETATM   12  C   UNL     1     -10.508   5.941  70.592  1.00  0.00    -0.316 A  
HETATM   13  H   UNL     1     -12.139   7.427  73.836  1.00  0.00     0.000 HD 
ENDBRANCH   4   6
ENDBRANCH   3   4
ENDBRANCH   2   3
TORSDOF 3
ENDMDL
MODEL      173
REMARK 921   NORMALIZED FREE ENERGY PREDICTED BY IDOCK:   -2.42 KCAL/MOL
REMARK 922        TOTAL FREE ENERGY PREDICTED BY IDOCK:   -3.08 KCAL/MOL
REMARK 923 INTER-LIGAND FREE ENERGY PREDICTED BY IDOCK:   -3.91 KCAL/MOL
REMARK 924 INTRA-LIGAND FREE ENERGY PREDICTED BY IDOCK:    0.83 KCAL/MOL
REMARK 927      BINDING AFFINITY PREDICTED BY RF-SCORE:    0.00 PKD
ROOT
HETATM    1  C   UNL     1      -8.086   8.922  62.997  1.00  0.00    -0.172 C  
HETATM    2  C   UNL     1      -7.963  10.282  62.334  1.00  0.00    -0.147 C  
ENDROOT
BRANCH   2   3
HETATM    3  O   UNL     1      -8.941  11.150  62.918  1.00  0.00    -0.272 OA 
BRANCH   3   4
HETATM    4  C   UNL     1      -9.181  10.958  64.237  1.00  0.00    -0.197 C  
HETATM    5  O   UNL     1      -8.488  10.322  65.015  1.00  0.00    -0.160 OA 
BRANCH   4   6
HETATM    6  C   UNL     1     -10.385  11.731  64.645  1.00  0.00    -0.336 A  
HETATM    7  C   UNL     1     -10.399  12.320  65.918  1.00  0.00    -0.280 A  
HETATM    8  C   UNL     1     -11.485  13.098  66.319  1.00  0.00    -0.372 A  
HETATM    9  C   UNL     1     -12.550  13.291  65.443  1.00  0.00    -0.468 A  
HETATM   10  O   UNL     1     -13.634  14.039  65.794  1.00  0.00    -0.576 OA 
HETATM   11  C   UNL     1     -12.544  12.725  64.177  1.00  0.00    -0.390 A  
HETATM   12  C   UNL     1     -11.463  11.941  63.774  1.00  0.00    -0.542 A  
HETATM   13  H   UNL     1     -14.361  14.170  65.197  1.00  0.00     0.000 HD 
ENDBRANCH   4   6
ENDBRANCH   3   4
ENDBRANCH   2   3
TORSDOF 3
ENDMDL
MODEL      174
REMARK 921   NORMALIZED FREE ENERGY PREDICTED BY IDOCK:   -2.42 KCAL/MOL
REMARK 922        TOTAL FREE ENERGY PREDICTED BY IDOCK:   -3.08 KCAL/MOL
REMARK 923 INTER-LIGAND FREE ENERGY PREDICTED BY IDOCK:   -2.91 KCAL/MOL
REMARK 924 INTRA-LIGAND FREE ENERGY PREDICTED BY IDOCK:   -0.17 KCAL/MOL
REMARK 927      BINDING AFFINITY PREDICTED BY RF-SCORE:    0.00 PKD
ROOT
HETATM    1  C   UNL     1      -9.000   9.587  64.429  1.00  0.00    -0.255 C  
HETATM    2  C   UNL     1      -8.568  10.610  65.464  1.00  0.00    -0.185 C  
ENDROOT
BRANCH   2   3
HETATM    3  O   UNL     1      -8.702  10.013  66.760  1.00  0.00    -0.128 OA 
BRANCH   3   4
HETATM    4  C   UNL     1      -8.407  10.818  67.809  1.00  0.00    -0.113 C  
HETATM    5  O   UNL     1      -7.399  10.774  68.495  1.00  0.00    -0.085 OA 
BRANCH   4   6
HETATM    6  C   UNL     1      -9.461  11.859  67.953  1.00  0.00    -0.194 A  
HETATM    7  C   UNL     1     -10.786  11.443  68.147  1.00  0.00    -0.241 A  
HETATM    8  C   UNL     1     -11.795  12.387  68.341  1.00  0.00    -0.361 A  
HETATM    9  C   UNL     1     -11.475  13.742  68.348  1.00  0.00    -0.316 A  
HETATM   10  O   UNL     1     -12.429  14.698  68.528  1.00  0.00    -0.587 OA 
HETATM   11  C   UNL     1     -10.167  14.167  68.169  1.00  0.00    -0.241 A  
HETATM   12  C   UNL     1      -9.155  13.227  67.969  1.00  0.00    -0.202 A  
HETATM   13  H   UNL     1     -12.211  15.622  68.532  1.00  0.00     0.000 HD 
ENDBRANCH   4   6
ENDBRANCH   3   4
ENDBRANCH   2   3
TORSDOF 3
ENDMDL
MODEL      175
REMARK 921   NORMALIZED FREE ENERGY PREDICTED BY IDOCK:   -2.42 KCAL/MOL
REMARK 922        TOTAL FREE ENERGY PREDICTED BY IDOCK:   -3.08 KCAL/MOL
REMARK 923 INTER-LIGAND FREE ENERGY PREDICTED BY IDOCK:   -2.87 KCAL/MOL
REMARK 924 INTRA-LIGAND FREE ENERGY PREDICTED BY IDOCK:   -0.21 KCAL/MOL
REMARK 927      BINDING AFFINITY PREDICTED BY RF-SCORE:    0.00 PKD
ROOT
HETATM    1  C   UNL     1      -7.144   9.668  67.010  1.00  0.00    -0.086 C  
HETATM    2  C   UNL     1      -8.353   9.818  67.916  1.00  0.00    -0.114 C  
ENDROOT
BRANCH   2   3
HETATM    3  O   UNL     1      -7.964   9.438  69.241  1.00  0.00    -0.085 OA 
BRANCH   3   4
HETATM    4  C   UNL     1      -8.165   8.136  69.560  1.00  0.00    -0.121 C  
HETATM    5  O   UNL     1      -7.370   7.223  69.410  1.00  0.00    -0.084 OA 
BRANCH   4   6
HETATM    6  C   UNL     1      -9.484   7.982  70.230  1.00  0.00    -0.167 A  
HETATM    7  C   UNL     1     -10.360   6.995  69.757  1.00  0.00    -0.225 A  
HETATM    8  C   UNL     1     -11.585   6.782  70.392  1.00  0.00    -0.422 A  
HETATM    9  C   UNL     1     -11.925   7.551  71.502  1.00  0.00    -0.307 A  
HETATM   10  O   UNL     1     -13.111   7.381  72.149  1.00  0.00    -0.495 OA 
HETATM   11  C   UNL     1     -11.062   8.522  71.989  1.00  0.00    -0.412 A  
HETATM   12  C   UNL     1      -9.839   8.743  71.353  1.00  0.00    -0.353 A  
HETATM   13  H   UNL     1     -13.344   7.905  72.906  1.00  0.00     0.000 HD 
ENDBRANCH   4   6
ENDBRANCH   3   4
ENDBRANCH   2   3
TORSDOF 3
ENDMDL
MODEL      176
REMARK 921   NORMALIZED FREE ENERGY PREDICTED BY IDOCK:   -2.42 KCAL/MOL
REMARK 922        TOTAL FREE ENERGY PREDICTED BY IDOCK:   -3.07 KCAL/MOL
REMARK 923 INTER-LIGAND FREE ENERGY PREDICTED BY IDOCK:   -2.95 KCAL/MOL
REMARK 924 INTRA-LIGAND FREE ENERGY PREDICTED BY IDOCK:   -0.12 KCAL/MOL
REMARK 927      BINDING AFFINITY PREDICTED BY RF-SCORE:    0.00 PKD
ROOT
HETATM    1  C   UNL     1      -9.301   3.917  70.226  1.00  0.00    -0.238 C  
HETATM    2  C   UNL     1     -10.195   5.094  69.879  1.00  0.00    -0.291 C  
ENDROOT
BRANCH   2   3
HETATM    3  O   UNL     1     -10.562   5.747  71.100  1.00  0.00    -0.231 OA 
BRANCH   3   4
HETATM    4  C   UNL     1     -11.301   6.874  70.962  1.00  0.00    -0.299 C  
HETATM    5  O   UNL     1     -12.503   6.979  71.145  1.00  0.00    -0.368 OA 
BRANCH   4   6
HETATM    6  C   UNL     1     -10.409   8.023  70.648  1.00  0.00    -0.211 A  
HETATM    7  C   UNL     1      -9.139   8.063  71.241  1.00  0.00    -0.168 A  
HETATM    8  C   UNL     1      -8.252   9.094  70.931  1.00  0.00    -0.220 A  
HETATM    9  C   UNL     1      -8.635  10.078  70.022  1.00  0.00    -0.090 A  
HETATM   10  O   UNL     1      -7.804  11.106  69.694  1.00  0.00    -0.365 OA 
HETATM   11  C   UNL     1      -9.883  10.044  69.418  1.00  0.00    -0.240 A  
HETATM   12  C   UNL     1     -10.776   9.017  69.731  1.00  0.00    -0.233 A  
HETATM   13  H   UNL     1      -8.065  11.777  69.075  1.00  0.00     0.000 HD 
ENDBRANCH   4   6
ENDBRANCH   3   4
ENDBRANCH   2   3
TORSDOF 3
ENDMDL
MODEL      177
REMARK 921   NORMALIZED FREE ENERGY PREDICTED BY IDOCK:   -2.42 KCAL/MOL
REMARK 922        TOTAL FREE ENERGY PREDICTED BY IDOCK:   -3.07 KCAL/MOL
REMARK 923 INTER-LIGAND FREE ENERGY PREDICTED BY IDOCK:   -2.80 KCAL/MOL
REMARK 924 INTRA-LIGAND FREE ENERGY PREDICTED BY IDOCK:   -0.28 KCAL/MOL
REMARK 927      BINDING AFFINITY PREDICTED BY RF-SCORE:    0.00 PKD
ROOT
HETATM    1  C   UNL     1      -7.814   9.148  69.119  1.00  0.00    -0.092 C  
HETATM    2  C   UNL     1      -8.954   9.416  70.085  1.00  0.00    -0.227 C  
ENDROOT
BRANCH   2   3
HETATM    3  O   UNL     1     -10.104   8.698  69.624  1.00  0.00    -0.191 OA 
BRANCH   3   4
HETATM    4  C   UNL     1     -10.205   7.417  70.054  1.00  0.00    -0.209 C  
HETATM    5  O   UNL     1     -10.376   7.051  71.206  1.00  0.00    -0.202 OA 
BRANCH   4   6
HETATM    6  C   UNL     1     -10.181   6.493  68.888  1.00  0.00    -0.206 A  
HETATM    7  C   UNL     1      -9.702   5.190  69.081  1.00  0.00    -0.232 A  
HETATM    8  C   UNL     1      -9.712   4.275  68.027  1.00  0.00    -0.168 A  
HETATM    9  C   UNL     1     -10.209   4.666  66.786  1.00  0.00    -0.185 A  
HETATM   10  O   UNL     1     -10.234   3.809  65.727  1.00  0.00    -0.419 OA 
HETATM   11  C   UNL     1     -10.698   5.948  66.584  1.00  0.00    -0.323 A  
HETATM   12  C   UNL     1     -10.684   6.868  67.634  1.00  0.00    -0.344 A  
HETATM   13  H   UNL     1     -10.572   4.075  64.881  1.00  0.00     0.000 HD 
ENDBRANCH   4   6
ENDBRANCH   3   4
ENDBRANCH   2   3
TORSDOF 3
ENDMDL
MODEL      178
REMARK 921   NORMALIZED FREE ENERGY PREDICTED BY IDOCK:   -2.38 KCAL/MOL
REMARK 922        TOTAL FREE ENERGY PREDICTED BY IDOCK:   -3.03 KCAL/MOL
REMARK 923 INTER-LIGAND FREE ENERGY PREDICTED BY IDOCK:   -2.86 KCAL/MOL
REMARK 924 INTRA-LIGAND FREE ENERGY PREDICTED BY IDOCK:   -0.17 KCAL/MOL
REMARK 927      BINDING AFFINITY PREDICTED BY RF-SCORE:    0.00 PKD
ROOT
HETATM    1  C   UNL     1      -6.476   9.677  67.963  1.00  0.00    -0.057 C  
HETATM    2  C   UNL     1      -7.690   9.291  67.138  1.00  0.00    -0.095 C  
ENDROOT
BRANCH   2   3
HETATM    3  O   UNL     1      -8.492  10.463  66.953  1.00  0.00    -0.123 OA 
BRANCH   3   4
HETATM    4  C   UNL     1      -9.815  10.243  66.759  1.00  0.00    -0.197 C  
HETATM    5  O   UNL     1     -10.336   9.810  65.745  1.00  0.00    -0.209 OA 
BRANCH   4   6
HETATM    6  C   UNL     1     -10.557  10.513  68.020  1.00  0.00    -0.251 A  
HETATM    7  C   UNL     1     -11.155  11.771  68.185  1.00  0.00    -0.297 A  
HETATM    8  C   UNL     1     -11.906  12.046  69.328  1.00  0.00    -0.377 A  
HETATM    9  C   UNL     1     -12.063  11.060  70.299  1.00  0.00    -0.362 A  
HETATM   10  O   UNL     1     -12.782  11.286  71.434  1.00  0.00    -0.398 OA 
HETATM   11  C   UNL     1     -11.488   9.807  70.143  1.00  0.00    -0.272 A  
HETATM   12  C   UNL     1     -10.731   9.530  69.004  1.00  0.00    -0.224 A  
HETATM   13  H   UNL     1     -12.889  10.614  72.096  1.00  0.00     0.000 HD 
ENDBRANCH   4   6
ENDBRANCH   3   4
ENDBRANCH   2   3
TORSDOF 3
ENDMDL
MODEL      179
REMARK 921   NORMALIZED FREE ENERGY PREDICTED BY IDOCK:   -2.37 KCAL/MOL
REMARK 922        TOTAL FREE ENERGY PREDICTED BY IDOCK:   -3.02 KCAL/MOL
REMARK 923 INTER-LIGAND FREE ENERGY PREDICTED BY IDOCK:   -2.81 KCAL/MOL
REMARK 924 INTRA-LIGAND FREE ENERGY PREDICTED BY IDOCK:   -0.21 KCAL/MOL
REMARK 927      BINDING AFFINITY PREDICTED BY RF-SCORE:    0.00 PKD
ROOT
HETATM    1  C   UNL     1      -5.774   8.175  70.253  1.00  0.00    -0.022 C  
HETATM    2  C   UNL     1      -6.646   7.200  71.023  1.00  0.00    -0.044 C  
ENDROOT
BRANCH   2   3
HETATM    3  O   UNL     1      -7.642   7.953  71.723  1.00  0.00    -0.075 OA 
BRANCH   3   4
HETATM    4  C   UNL     1      -8.898   7.445  71.681  1.00  0.00    -0.116 C  
HETATM    5  O   UNL     1      -9.279   6.410  72.203  1.00  0.00    -0.142 OA 
BRANCH   4   6
HETATM    6  C   UNL     1      -9.800   8.397  70.978  1.00  0.00    -0.232 A  
HETATM    7  C   UNL     1      -9.694   8.509  69.584  1.00  0.00    -0.179 A  
HETATM    8  C   UNL     1     -10.557   9.350  68.881  1.00  0.00    -0.231 A  
HETATM    9  C   UNL     1     -11.529  10.069  69.573  1.00  0.00    -0.120 A  
HETATM   10  O   UNL     1     -12.389  10.906  68.928  1.00  0.00    -0.752 OA 
HETATM   11  C   UNL     1     -11.653   9.958  70.950  1.00  0.00    -0.456 A  
HETATM   12  C   UNL     1     -10.787   9.123  71.658  1.00  0.00    -0.442 A  
HETATM   13  H   UNL     1     -13.051  11.397  69.400  1.00  0.00     0.000 HD 
ENDBRANCH   4   6
ENDBRANCH   3   4
ENDBRANCH   2   3
TORSDOF 3
ENDMDL
MODEL      180
REMARK 921   NORMALIZED FREE ENERGY PREDICTED BY IDOCK:   -2.36 KCAL/MOL
REMARK 922        TOTAL FREE ENERGY PREDICTED BY IDOCK:   -3.01 KCAL/MOL
REMARK 923 INTER-LIGAND FREE ENERGY PREDICTED BY IDOCK:   -2.77 KCAL/MOL
REMARK 924 INTRA-LIGAND FREE ENERGY PREDICTED BY IDOCK:   -0.24 KCAL/MOL
REMARK 927      BINDING AFFINITY PREDICTED BY RF-SCORE:    0.00 PKD
ROOT
HETATM    1  C   UNL     1      -9.657   9.177  70.925  1.00  0.00    -0.347 C  
HETATM    2  C   UNL     1     -10.601   9.930  70.005  1.00  0.00    -0.288 C  
ENDROOT
BRANCH   2   3
HETATM    3  O   UNL     1     -10.820   9.126  68.841  1.00  0.00    -0.178 OA 
BRANCH   3   4
HETATM    4  C   UNL     1     -10.746   9.779  67.656  1.00  0.00    -0.274 C  
HETATM    5  O   UNL     1     -11.257  10.854  67.388  1.00  0.00    -0.316 OA 
BRANCH   4   6
HETATM    6  C   UNL     1      -9.850   9.036  66.729  1.00  0.00    -0.300 A  
HETATM    7  C   UNL     1      -9.609   7.678  66.981  1.00  0.00    -0.228 A  
HETATM    8  C   UNL     1      -8.818   6.932  66.106  1.00  0.00    -0.163 A  
HETATM    9  C   UNL     1      -8.276   7.546  64.980  1.00  0.00    -0.103 A  
HETATM   10  O   UNL     1      -7.492   6.858  64.102  1.00  0.00    -0.086 OA 
HETATM   11  C   UNL     1      -8.515   8.886  64.712  1.00  0.00    -0.193 A  
HETATM   12  C   UNL     1      -9.301   9.637  65.588  1.00  0.00    -0.296 A  
HETATM   13  H   UNL     1      -7.122   7.276  63.334  1.00  0.00     0.000 HD 
ENDBRANCH   4   6
ENDBRANCH   3   4
ENDBRANCH   2   3
TORSDOF 3
ENDMDL
MODEL      181
REMARK 921   NORMALIZED FREE ENERGY PREDICTED BY IDOCK:   -2.32 KCAL/MOL
REMARK 922        TOTAL FREE ENERGY PREDICTED BY IDOCK:   -2.97 KCAL/MOL
REMARK 923 INTER-LIGAND FREE ENERGY PREDICTED BY IDOCK:   -2.67 KCAL/MOL
REMARK 924 INTRA-LIGAND FREE ENERGY PREDICTED BY IDOCK:   -0.29 KCAL/MOL
REMARK 927      BINDING AFFINITY PREDICTED BY RF-SCORE:    0.00 PKD
ROOT
HETATM    1  C   UNL     1      -7.944   8.168  70.107  1.00  0.00    -0.107 C  
HETATM    2  C   UNL     1      -9.366   8.489  70.530  1.00  0.00    -0.170 C  
ENDROOT
BRANCH   2   3
HETATM    3  O   UNL     1     -10.257   7.786  69.658  1.00  0.00    -0.196 OA 
BRANCH   3   4
HETATM    4  C   UNL     1     -10.440   6.473  69.940  1.00  0.00    -0.213 C  
HETATM    5  O   UNL     1     -10.810   6.006  71.005  1.00  0.00    -0.257 OA 
BRANCH   4   6
HETATM    6  C   UNL     1     -10.221   5.661  68.713  1.00  0.00    -0.269 A  
HETATM    7  C   UNL     1     -10.867   6.051  67.531  1.00  0.00    -0.393 A  
HETATM    8  C   UNL     1     -10.646   5.349  66.346  1.00  0.00    -0.322 A  
HETATM    9  C   UNL     1      -9.773   4.263  66.345  1.00  0.00    -0.214 A  
HETATM   10  O   UNL     1      -9.532   3.545  65.213  1.00  0.00    -0.153 OA 
HETATM   11  C   UNL     1      -9.117   3.874  67.503  1.00  0.00    -0.176 A  
HETATM   12  C   UNL     1      -9.341   4.570  68.692  1.00  0.00    -0.199 A  
HETATM   13  H   UNL     1      -8.937   2.805  65.212  1.00  0.00     0.000 HD 
ENDBRANCH   4   6
ENDBRANCH   3   4
ENDBRANCH   2   3
TORSDOF 3
ENDMDL
MODEL      182
REMARK 921   NORMALIZED FREE ENERGY PREDICTED BY IDOCK:   -2.31 KCAL/MOL
REMARK 922        TOTAL FREE ENERGY PREDICTED BY IDOCK:   -2.95 KCAL/MOL
REMARK 923 INTER-LIGAND FREE ENERGY PREDICTED BY IDOCK:   -2.81 KCAL/MOL
REMARK 924 INTRA-LIGAND FREE ENERGY PREDICTED BY IDOCK:   -0.14 KCAL/MOL
REMARK 927      BINDING AFFINITY PREDICTED BY RF-SCORE:    0.00 PKD
ROOT
HETATM    1  C   UNL     1     -10.065   4.439  65.385  1.00  0.00    -0.238 C  
HETATM    2  C   UNL     1     -10.650   5.403  66.401  1.00  0.00    -0.260 C  
ENDROOT
BRANCH   2   3
HETATM    3  O   UNL     1      -9.565   6.016  67.106  1.00  0.00    -0.117 OA 
BRANCH   3   4
HETATM    4  C   UNL     1      -9.017   7.102  66.509  1.00  0.00    -0.151 C  
HETATM    5  O   UNL     1      -8.118   7.099  65.684  1.00  0.00    -0.118 OA 
BRANCH   4   6
HETATM    6  C   UNL     1      -9.747   8.328  66.932  1.00  0.00    -0.291 A  
HETATM    7  C   UNL     1     -10.103   8.459  68.281  1.00  0.00    -0.232 A  
HETATM    8  C   UNL     1     -10.740   9.617  68.729  1.00  0.00    -0.234 A  
HETATM    9  C   UNL     1     -11.013  10.642  67.826  1.00  0.00    -0.306 A  
HETATM   10  O   UNL     1     -11.639  11.787  68.217  1.00  0.00    -0.269 OA 
HETATM   11  C   UNL     1     -10.656  10.530  66.490  1.00  0.00    -0.240 A  
HETATM   12  C   UNL     1     -10.024   9.371  66.038  1.00  0.00    -0.352 A  
HETATM   13  H   UNL     1     -11.826  12.486  67.602  1.00  0.00     0.000 HD 
ENDBRANCH   4   6
ENDBRANCH   3   4
ENDBRANCH   2   3
TORSDOF 3
ENDMDL
MODEL      183
REMARK 921   NORMALIZED FREE ENERGY PREDICTED BY IDOCK:   -2.31 KCAL/MOL
REMARK 922        TOTAL FREE ENERGY PREDICTED BY IDOCK:   -2.95 KCAL/MOL
REMARK 923 INTER-LIGAND FREE ENERGY PREDICTED BY IDOCK:   -2.98 KCAL/MOL
REMARK 924 INTRA-LIGAND FREE ENERGY PREDICTED BY IDOCK:    0.03 KCAL/MOL
REMARK 927      BINDING AFFINITY PREDICTED BY RF-SCORE:    0.00 PKD
ROOT
HETATM    1  C   UNL     1     -11.580  13.885  64.376  1.00  0.00    -0.401 C  
HETATM    2  C   UNL     1     -11.538  12.614  65.204  1.00  0.00    -0.348 C  
ENDROOT
BRANCH   2   3
HETATM    3  O   UNL     1     -11.540  11.499  64.304  1.00  0.00    -0.265 OA 
BRANCH   3   4
HETATM    4  C   UNL     1     -10.347  10.878  64.138  1.00  0.00    -0.364 C  
HETATM    5  O   UNL     1      -9.739  10.748  63.088  1.00  0.00    -0.305 OA 
BRANCH   4   6
HETATM    6  C   UNL     1      -9.814  10.453  65.460  1.00  0.00    -0.332 A  
HETATM    7  C   UNL     1      -8.726  11.155  65.997  1.00  0.00    -0.185 A  
HETATM    8  C   UNL     1      -8.231  10.823  67.259  1.00  0.00    -0.121 A  
HETATM    9  C   UNL     1      -8.830   9.795  67.981  1.00  0.00    -0.119 A  
HETATM   10  O   UNL     1      -8.376   9.433  69.214  1.00  0.00    -0.118 OA 
HETATM   11  C   UNL     1      -9.915   9.100  67.468  1.00  0.00    -0.258 A  
HETATM   12  C   UNL     1     -10.409   9.424  66.204  1.00  0.00    -0.162 A  
HETATM   13  H   UNL     1      -8.784   8.731  69.707  1.00  0.00     0.000 HD 
ENDBRANCH   4   6
ENDBRANCH   3   4
ENDBRANCH   2   3
TORSDOF 3
ENDMDL
MODEL      184
REMARK 921   NORMALIZED FREE ENERGY PREDICTED BY IDOCK:   -2.29 KCAL/MOL
REMARK 922        TOTAL FREE ENERGY PREDICTED BY IDOCK:   -2.93 KCAL/MOL
REMARK 923 INTER-LIGAND FREE ENERGY PREDICTED BY IDOCK:   -2.77 KCAL/MOL
REMARK 924 INTRA-LIGAND FREE ENERGY PREDICTED BY IDOCK:   -0.16 KCAL/MOL
REMARK 927      BINDING AFFINITY PREDICTED BY RF-SCORE:    0.00 PKD
ROOT
HETATM    1  C   UNL     1     -11.295  10.644  70.271  1.00  0.00    -0.401 C  
HETATM    2  C   UNL     1     -11.728   9.433  71.077  1.00  0.00    -0.323 C  
ENDROOT
BRANCH   2   3
HETATM    3  O   UNL     1     -10.556   8.832  71.640  1.00  0.00    -0.274 OA 
BRANCH   3   4
HETATM    4  C   UNL     1     -10.745   7.636  72.247  1.00  0.00    -0.260 C  
HETATM    5  O   UNL     1     -11.337   7.442  73.297  1.00  0.00    -0.264 OA 
BRANCH   4   6
HETATM    6  C   UNL     1     -10.207   6.547  71.389  1.00  0.00    -0.221 A  
HETATM    7  C   UNL     1     -10.475   5.219  71.751  1.00  0.00    -0.278 A  
HETATM    8  C   UNL     1     -10.034   4.169  70.944  1.00  0.00    -0.207 A  
HETATM    9  C   UNL     1      -9.333   4.452  69.774  1.00  0.00    -0.154 A  
HETATM   10  O   UNL     1      -8.879   3.459  68.959  1.00  0.00    -0.087 OA 
HETATM   11  C   UNL     1      -9.071   5.761  69.397  1.00  0.00    -0.138 A  
HETATM   12  C   UNL     1      -9.505   6.813  70.205  1.00  0.00    -0.159 A  
HETATM   13  H   UNL     1      -8.401   3.651  68.162  1.00  0.00     0.000 HD 
ENDBRANCH   4   6
ENDBRANCH   3   4
ENDBRANCH   2   3
TORSDOF 3
ENDMDL
MODEL      185
REMARK 921   NORMALIZED FREE ENERGY PREDICTED BY IDOCK:   -2.27 KCAL/MOL
REMARK 922        TOTAL FREE ENERGY PREDICTED BY IDOCK:   -2.90 KCAL/MOL
REMARK 923 INTER-LIGAND FREE ENERGY PREDICTED BY IDOCK:   -2.85 KCAL/MOL
REMARK 924 INTRA-LIGAND FREE ENERGY PREDICTED BY IDOCK:   -0.06 KCAL/MOL
REMARK 927      BINDING AFFINITY PREDICTED BY RF-SCORE:    0.00 PKD
ROOT
HETATM    1  C   UNL     1      -9.226   8.697  72.133  1.00  0.00    -0.326 C  
HETATM    2  C   UNL     1      -8.744   7.502  71.331  1.00  0.00    -0.124 C  
ENDROOT
BRANCH   2   3
HETATM    3  O   UNL     1      -9.762   7.164  70.383  1.00  0.00    -0.176 OA 
BRANCH   3   4
HETATM    4  C   UNL     1     -10.959   6.807  70.910  1.00  0.00    -0.260 C  
HETATM    5  O   UNL     1     -12.017   7.399  70.771  1.00  0.00    -0.292 OA 
BRANCH   4   6
HETATM    6  C   UNL     1     -10.827   5.505  71.617  1.00  0.00    -0.271 A  
HETATM    7  C   UNL     1     -10.101   4.480  70.995  1.00  0.00    -0.222 A  
HETATM    8  C   UNL     1      -9.908   3.261  71.648  1.00  0.00    -0.220 A  
HETATM    9  C   UNL     1     -10.436   3.076  72.923  1.00  0.00    -0.148 A  
HETATM   10  O   UNL     1     -10.277   1.901  73.595  1.00  0.00    -0.089 OA 
HETATM   11  C   UNL     1     -11.146   4.086  73.555  1.00  0.00    -0.350 A  
HETATM   12  C   UNL     1     -11.346   5.303  72.904  1.00  0.00    -0.368 A  
HETATM   13  H   UNL     1     -10.637   1.774  74.464  1.00  0.00     0.000 HD 
ENDBRANCH   4   6
ENDBRANCH   3   4
ENDBRANCH   2   3
TORSDOF 3
ENDMDL
MODEL      186
REMARK 921   NORMALIZED FREE ENERGY PREDICTED BY IDOCK:   -2.25 KCAL/MOL
REMARK 922        TOTAL FREE ENERGY PREDICTED BY IDOCK:   -2.88 KCAL/MOL
REMARK 923 INTER-LIGAND FREE ENERGY PREDICTED BY IDOCK:   -2.61 KCAL/MOL
REMARK 924 INTRA-LIGAND FREE ENERGY PREDICTED BY IDOCK:   -0.27 KCAL/MOL
REMARK 927      BINDING AFFINITY PREDICTED BY RF-SCORE:    0.00 PKD
ROOT
HETATM    1  C   UNL     1      -9.332   2.758  71.645  1.00  0.00    -0.194 C  
HETATM    2  C   UNL     1      -9.606   3.852  70.629  1.00  0.00    -0.189 C  
ENDROOT
BRANCH   2   3
HETATM    3  O   UNL     1     -10.717   4.625  71.099  1.00  0.00     0.022 OA 
BRANCH   3   4
HETATM    4  C   UNL     1     -10.707   5.935  70.752  1.00  0.00    -0.277 C  
HETATM    5  O   UNL     1     -11.362   6.454  69.863  1.00  0.00    -0.380 OA 
BRANCH   4   6
HETATM    6  C   UNL     1      -9.842   6.696  71.693  1.00  0.00    -0.177 A  
HETATM    7  C   UNL     1      -8.794   7.463  71.163  1.00  0.00    -0.142 A  
HETATM    8  C   UNL     1      -7.994   8.234  72.006  1.00  0.00    -0.176 A  
HETATM    9  C   UNL     1      -8.248   8.242  73.375  1.00  0.00    -0.178 A  
HETATM   10  O   UNL     1      -7.488   8.975  74.236  1.00  0.00    -0.405 OA 
HETATM   11  C   UNL     1      -9.289   7.498  73.912  1.00  0.00    -0.301 A  
HETATM   12  C   UNL     1     -10.088   6.720  73.073  1.00  0.00    -0.212 A  
HETATM   13  H   UNL     1      -7.662   8.980  75.170  1.00  0.00     0.000 HD 
ENDBRANCH   4   6
ENDBRANCH   3   4
ENDBRANCH   2   3
TORSDOF 3
ENDMDL
MODEL      187
REMARK 921   NORMALIZED FREE ENERGY PREDICTED BY IDOCK:   -2.24 KCAL/MOL
REMARK 922        TOTAL FREE ENERGY PREDICTED BY IDOCK:   -2.87 KCAL/MOL
REMARK 923 INTER-LIGAND FREE ENERGY PREDICTED BY IDOCK:   -2.59 KCAL/MOL
REMARK 924 INTRA-LIGAND FREE ENERGY PREDICTED BY IDOCK:   -0.28 KCAL/MOL
REMARK 927      BINDING AFFINITY PREDICTED BY RF-SCORE:    0.00 PKD
ROOT
HETATM    1  C   UNL     1      -6.434  11.126  69.294  1.00  0.00    -0.088 C  
HETATM    2  C   UNL     1      -6.175  12.577  69.658  1.00  0.00    -0.126 C  
ENDROOT
BRANCH   2   3
HETATM    3  O   UNL     1      -7.327  13.340  69.282  1.00  0.00     0.043 OA 
BRANCH   3   4
HETATM    4  C   UNL     1      -7.309  13.847  68.025  1.00  0.00    -0.141 C  
HETATM    5  O   UNL     1      -6.326  14.237  67.415  1.00  0.00    -0.324 OA 
BRANCH   4   6
HETATM    6  C   UNL     1      -8.672  13.770  67.434  1.00  0.00    -0.210 A  
HETATM    7  C   UNL     1      -9.049  12.587  66.782  1.00  0.00    -0.214 A  
HETATM    8  C   UNL     1     -10.337  12.454  66.261  1.00  0.00    -0.267 A  
HETATM    9  C   UNL     1     -11.245  13.501  66.400  1.00  0.00    -0.307 A  
HETATM   10  O   UNL     1     -12.510  13.416  65.902  1.00  0.00    -0.439 OA 
HETATM   11  C   UNL     1     -10.889  14.672  67.054  1.00  0.00    -0.304 A  
HETATM   12  C   UNL     1      -9.600  14.812  67.571  1.00  0.00    -0.208 A  
HETATM   13  H   UNL     1     -13.129  14.130  65.997  1.00  0.00     0.000 HD 
ENDBRANCH   4   6
ENDBRANCH   3   4
ENDBRANCH   2   3
TORSDOF 3
ENDMDL
MODEL      188
REMARK 921   NORMALIZED FREE ENERGY PREDICTED BY IDOCK:   -2.24 KCAL/MOL
REMARK 922        TOTAL FREE ENERGY PREDICTED BY IDOCK:   -2.87 KCAL/MOL
REMARK 923 INTER-LIGAND FREE ENERGY PREDICTED BY IDOCK:   -2.56 KCAL/MOL
REMARK 924 INTRA-LIGAND FREE ENERGY PREDICTED BY IDOCK:   -0.31 KCAL/MOL
REMARK 927      BINDING AFFINITY PREDICTED BY RF-SCORE:    0.00 PKD
ROOT
HETATM    1  C   UNL     1      -8.804   8.994  68.050  1.00  0.00    -0.129 C  
HETATM    2  C   UNL     1      -9.456   7.659  67.741  1.00  0.00    -0.142 C  
ENDROOT
BRANCH   2   3
HETATM    3  O   UNL     1     -10.502   7.445  68.696  1.00  0.00    -0.196 OA 
BRANCH   3   4
HETATM    4  C   UNL     1     -10.370   6.343  69.473  1.00  0.00    -0.208 C  
HETATM    5  O   UNL     1     -10.502   5.184  69.115  1.00  0.00    -0.198 OA 
BRANCH   4   6
HETATM    6  C   UNL     1      -9.929   6.741  70.837  1.00  0.00    -0.200 A  
HETATM    7  C   UNL     1      -8.620   6.432  71.231  1.00  0.00    -0.127 A  
HETATM    8  C   UNL     1      -8.150   6.835  72.482  1.00  0.00    -0.104 A  
HETATM    9  C   UNL     1      -8.990   7.553  73.331  1.00  0.00    -0.203 A  
HETATM   10  O   UNL     1      -8.576   7.962  74.562  1.00  0.00    -0.412 OA 
HETATM   11  C   UNL     1     -10.283   7.877  72.948  1.00  0.00    -0.397 A  
HETATM   12  C   UNL     1     -10.759   7.470  71.701  1.00  0.00    -0.242 A  
HETATM   13  H   UNL     1      -9.148   8.451  75.141  1.00  0.00     0.000 HD 
ENDBRANCH   4   6
ENDBRANCH   3   4
ENDBRANCH   2   3
TORSDOF 3
ENDMDL
MODEL      189
REMARK 921   NORMALIZED FREE ENERGY PREDICTED BY IDOCK:   -2.23 KCAL/MOL
REMARK 922        TOTAL FREE ENERGY PREDICTED BY IDOCK:   -2.86 KCAL/MOL
REMARK 923 INTER-LIGAND FREE ENERGY PREDICTED BY IDOCK:   -2.73 KCAL/MOL
REMARK 924 INTRA-LIGAND FREE ENERGY PREDICTED BY IDOCK:   -0.13 KCAL/MOL
REMARK 927      BINDING AFFINITY PREDICTED BY RF-SCORE:    0.00 PKD
ROOT
HETATM    1  C   UNL     1      -6.114  11.651  69.440  1.00  0.00    -0.088 C  
HETATM    2  C   UNL     1      -5.931  13.136  69.697  1.00  0.00    -0.116 C  
ENDROOT
BRANCH   2   3
HETATM    3  O   UNL     1      -7.130  13.807  69.291  1.00  0.00    -0.091 OA 
BRANCH   3   4
HETATM    4  C   UNL     1      -7.097  15.159  69.366  1.00  0.00    -0.189 C  
HETATM    5  O   UNL     1      -6.366  15.829  70.077  1.00  0.00    -0.168 OA 
BRANCH   4   6
HETATM    6  C   UNL     1      -8.030  15.739  68.362  1.00  0.00    -0.141 A  
HETATM    7  C   UNL     1      -7.506  16.166  67.134  1.00  0.00    -0.248 A  
HETATM    8  C   UNL     1      -8.354  16.665  66.145  1.00  0.00    -0.305 A  
HETATM    9  C   UNL     1      -9.724  16.730  66.385  1.00  0.00    -0.290 A  
HETATM   10  O   UNL     1     -10.589  17.216  65.451  1.00  0.00    -0.618 OA 
HETATM   11  C   UNL     1     -10.258  16.300  67.591  1.00  0.00    -0.272 A  
HETATM   12  C   UNL     1      -9.413  15.806  68.585  1.00  0.00    -0.208 A  
HETATM   13  H   UNL     1     -11.523  17.260  65.615  1.00  0.00     0.000 HD 
ENDBRANCH   4   6
ENDBRANCH   3   4
ENDBRANCH   2   3
TORSDOF 3
ENDMDL
MODEL      190
REMARK 921   NORMALIZED FREE ENERGY PREDICTED BY IDOCK:   -2.22 KCAL/MOL
REMARK 922        TOTAL FREE ENERGY PREDICTED BY IDOCK:   -2.84 KCAL/MOL
REMARK 923 INTER-LIGAND FREE ENERGY PREDICTED BY IDOCK:   -2.69 KCAL/MOL
REMARK 924 INTRA-LIGAND FREE ENERGY PREDICTED BY IDOCK:   -0.15 KCAL/MOL
REMARK 927      BINDING AFFINITY PREDICTED BY RF-SCORE:    0.00 PKD
ROOT
HETATM    1  C   UNL     1      -8.507   4.010  67.879  1.00  0.00    -0.103 C  
HETATM    2  C   UNL     1      -8.054   5.343  68.447  1.00  0.00    -0.091 C  
ENDROOT
BRANCH   2   3
HETATM    3  O   UNL     1      -9.214   6.044  68.911  1.00  0.00    -0.124 OA 
BRANCH   3   4
HETATM    4  C   UNL     1      -8.971   7.128  69.687  1.00  0.00    -0.141 C  
HETATM    5  O   UNL     1      -8.215   7.180  70.644  1.00  0.00    -0.115 OA 
BRANCH   4   6
HETATM    6  C   UNL     1      -9.694   8.308  69.141  1.00  0.00    -0.171 A  
HETATM    7  C   UNL     1      -9.991   8.332  67.771  1.00  0.00    -0.235 A  
HETATM    8  C   UNL     1     -10.715   9.395  67.228  1.00  0.00    -0.258 A  
HETATM    9  C   UNL     1     -11.146  10.425  68.060  1.00  0.00    -0.298 A  
HETATM   10  O   UNL     1     -11.851  11.485  67.573  1.00  0.00    -0.605 OA 
HETATM   11  C   UNL     1     -10.871  10.408  69.419  1.00  0.00    -0.287 A  
HETATM   12  C   UNL     1     -10.142   9.351  69.965  1.00  0.00    -0.259 A  
HETATM   13  H   UNL     1     -12.145  12.188  68.139  1.00  0.00     0.000 HD 
ENDBRANCH   4   6
ENDBRANCH   3   4
ENDBRANCH   2   3
TORSDOF 3
ENDMDL
MODEL      191
REMARK 921   NORMALIZED FREE ENERGY PREDICTED BY IDOCK:   -2.21 KCAL/MOL
REMARK 922        TOTAL FREE ENERGY PREDICTED BY IDOCK:   -2.83 KCAL/MOL
REMARK 923 INTER-LIGAND FREE ENERGY PREDICTED BY IDOCK:   -2.71 KCAL/MOL
REMARK 924 INTRA-LIGAND FREE ENERGY PREDICTED BY IDOCK:   -0.12 KCAL/MOL
REMARK 927      BINDING AFFINITY PREDICTED BY RF-SCORE:    0.00 PKD
ROOT
HETATM    1  C   UNL     1      -6.149   3.866  68.794  1.00  0.00    -0.028 C  
HETATM    2  C   UNL     1      -6.888   5.069  69.352  1.00  0.00    -0.053 C  
ENDROOT
BRANCH   2   3
HETATM    3  O   UNL     1      -8.037   4.593  70.063  1.00  0.00    -0.067 OA 
BRANCH   3   4
HETATM    4  C   UNL     1      -8.305   5.224  71.231  1.00  0.00    -0.123 C  
HETATM    5  O   UNL     1      -7.530   5.393  72.158  1.00  0.00    -0.090 OA 
BRANCH   4   6
HETATM    6  C   UNL     1      -9.681   5.789  71.192  1.00  0.00    -0.210 A  
HETATM    7  C   UNL     1     -10.148   6.323  69.982  1.00  0.00    -0.217 A  
HETATM    8  C   UNL     1     -11.451   6.813  69.888  1.00  0.00    -0.355 A  
HETATM    9  C   UNL     1     -12.285   6.761  71.002  1.00  0.00    -0.352 A  
HETATM   10  O   UNL     1     -13.562   7.234  70.957  1.00  0.00    -0.589 OA 
HETATM   11  C   UNL     1     -11.840   6.225  72.202  1.00  0.00    -0.365 A  
HETATM   12  C   UNL     1     -10.536   5.739  72.302  1.00  0.00    -0.264 A  
HETATM   13  H   UNL     1     -14.131   7.199  71.717  1.00  0.00     0.000 HD 
ENDBRANCH   4   6
ENDBRANCH   3   4
ENDBRANCH   2   3
TORSDOF 3
ENDMDL
MODEL      192
REMARK 921   NORMALIZED FREE ENERGY PREDICTED BY IDOCK:   -2.19 KCAL/MOL
REMARK 922        TOTAL FREE ENERGY PREDICTED BY IDOCK:   -2.81 KCAL/MOL
REMARK 923 INTER-LIGAND FREE ENERGY PREDICTED BY IDOCK:   -2.52 KCAL/MOL
REMARK 924 INTRA-LIGAND FREE ENERGY PREDICTED BY IDOCK:   -0.29 KCAL/MOL
REMARK 927      BINDING AFFINITY PREDICTED BY RF-SCORE:    0.00 PKD
ROOT
HETATM    1  C   UNL     1     -11.030  11.715  69.322  1.00  0.00    -0.246 C  
HETATM    2  C   UNL     1     -11.524  10.281  69.255  1.00  0.00    -0.160 C  
ENDROOT
BRANCH   2   3
HETATM    3  O   UNL     1     -10.451   9.423  69.660  1.00  0.00    -0.204 OA 
BRANCH   3   4
HETATM    4  C   UNL     1     -10.144   8.423  68.800  1.00  0.00    -0.196 C  
HETATM    5  O   UNL     1     -10.508   7.261  68.880  1.00  0.00    -0.201 OA 
BRANCH   4   6
HETATM    6  C   UNL     1      -9.363   8.966  67.657  1.00  0.00    -0.156 A  
HETATM    7  C   UNL     1      -9.878   8.807  66.362  1.00  0.00    -0.352 A  
HETATM    8  C   UNL     1      -9.204   9.349  65.267  1.00  0.00    -0.299 A  
HETATM    9  C   UNL     1      -8.021  10.055  65.472  1.00  0.00    -0.139 A  
HETATM   10  O   UNL     1      -7.327  10.596  64.432  1.00  0.00    -0.349 OA 
HETATM   11  C   UNL     1      -7.506  10.231  66.748  1.00  0.00    -0.107 A  
HETATM   12  C   UNL     1      -8.174   9.685  67.845  1.00  0.00    -0.106 A  
HETATM   13  H   UNL     1      -6.520  11.078  64.571  1.00  0.00     0.000 HD 
ENDBRANCH   4   6
ENDBRANCH   3   4
ENDBRANCH   2   3
TORSDOF 3
ENDMDL
MODEL      193
REMARK 921   NORMALIZED FREE ENERGY PREDICTED BY IDOCK:   -2.18 KCAL/MOL
REMARK 922        TOTAL FREE ENERGY PREDICTED BY IDOCK:   -2.80 KCAL/MOL
REMARK 923 INTER-LIGAND FREE ENERGY PREDICTED BY IDOCK:   -2.52 KCAL/MOL
REMARK 924 INTRA-LIGAND FREE ENERGY PREDICTED BY IDOCK:   -0.28 KCAL/MOL
REMARK 927      BINDING AFFINITY PREDICTED BY RF-SCORE:    0.00 PKD
ROOT
HETATM    1  C   UNL     1      -6.902  14.276  67.917  1.00  0.00    -0.174 C  
HETATM    2  C   UNL     1      -7.921  15.118  67.171  1.00  0.00    -0.215 C  
ENDROOT
BRANCH   2   3
HETATM    3  O   UNL     1      -8.891  14.234  66.596  1.00  0.00    -0.223 OA 
BRANCH   3   4
HETATM    4  C   UNL     1      -9.704  13.603  67.477  1.00  0.00    -0.227 C  
HETATM    5  O   UNL     1     -10.427  14.134  68.304  1.00  0.00    -0.237 OA 
BRANCH   4   6
HETATM    6  C   UNL     1      -9.673  12.137  67.226  1.00  0.00    -0.193 A  
HETATM    7  C   UNL     1      -9.733  11.686  65.899  1.00  0.00    -0.260 A  
HETATM    8  C   UNL     1      -9.652  10.322  65.617  1.00  0.00    -0.289 A  
HETATM    9  C   UNL     1      -9.504   9.414  66.662  1.00  0.00    -0.177 A  
HETATM   10  O   UNL     1      -9.427   8.073  66.434  1.00  0.00    -0.198 OA 
HETATM   11  C   UNL     1      -9.430   9.846  67.978  1.00  0.00    -0.147 A  
HETATM   12  C   UNL     1      -9.517  11.209  68.265  1.00  0.00    -0.182 A  
HETATM   13  H   UNL     1      -9.326   7.453  67.147  1.00  0.00     0.000 HD 
ENDBRANCH   4   6
ENDBRANCH   3   4
ENDBRANCH   2   3
TORSDOF 3
ENDMDL
MODEL      194
REMARK 921   NORMALIZED FREE ENERGY PREDICTED BY IDOCK:   -2.14 KCAL/MOL
REMARK 922        TOTAL FREE ENERGY PREDICTED BY IDOCK:   -2.75 KCAL/MOL
REMARK 923 INTER-LIGAND FREE ENERGY PREDICTED BY IDOCK:   -2.46 KCAL/MOL
REMARK 924 INTRA-LIGAND FREE ENERGY PREDICTED BY IDOCK:   -0.29 KCAL/MOL
REMARK 927      BINDING AFFINITY PREDICTED BY RF-SCORE:    0.00 PKD
ROOT
HETATM    1  C   UNL     1      -9.777  11.063  65.876  1.00  0.00    -0.267 C  
HETATM    2  C   UNL     1      -8.401  10.430  65.977  1.00  0.00    -0.149 C  
ENDROOT
BRANCH   2   3
HETATM    3  O   UNL     1      -8.525   9.215  66.724  1.00  0.00    -0.120 OA 
BRANCH   3   4
HETATM    4  C   UNL     1      -8.082   9.267  68.004  1.00  0.00    -0.104 C  
HETATM    5  O   UNL     1      -6.975   9.626  68.373  1.00  0.00    -0.064 OA 
BRANCH   4   6
HETATM    6  C   UNL     1      -9.189   8.913  68.933  1.00  0.00    -0.140 A  
HETATM    7  C   UNL     1      -9.683   9.907  69.790  1.00  0.00    -0.266 A  
HETATM    8  C   UNL     1     -10.756   9.631  70.638  1.00  0.00    -0.388 A  
HETATM    9  C   UNL     1     -11.335   8.365  70.621  1.00  0.00    -0.244 A  
HETATM   10  O   UNL     1     -12.381   8.050  71.437  1.00  0.00    -0.305 OA 
HETATM   11  C   UNL     1     -10.865   7.376  69.770  1.00  0.00    -0.246 A  
HETATM   12  C   UNL     1      -9.788   7.645  68.925  1.00  0.00    -0.164 A  
HETATM   13  H   UNL     1     -12.776   7.187  71.426  1.00  0.00     0.000 HD 
ENDBRANCH   4   6
ENDBRANCH   3   4
ENDBRANCH   2   3
TORSDOF 3
ENDMDL
MODEL      195
REMARK 921   NORMALIZED FREE ENERGY PREDICTED BY IDOCK:   -2.12 KCAL/MOL
REMARK 922        TOTAL FREE ENERGY PREDICTED BY IDOCK:   -2.73 KCAL/MOL
REMARK 923 INTER-LIGAND FREE ENERGY PREDICTED BY IDOCK:   -3.01 KCAL/MOL
REMARK 924 INTRA-LIGAND FREE ENERGY PREDICTED BY IDOCK:    0.28 KCAL/MOL
REMARK 927      BINDING AFFINITY PREDICTED BY RF-SCORE:    0.00 PKD
ROOT
HETATM    1  C   UNL     1      -5.497   9.548  69.187  1.00  0.00    -0.036 C  
HETATM    2  C   UNL     1      -6.915   9.012  69.109  1.00  0.00    -0.058 C  
ENDROOT
BRANCH   2   3
HETATM    3  O   UNL     1      -7.815  10.121  69.215  1.00  0.00    -0.108 OA 
BRANCH   3   4
HETATM    4  C   UNL     1      -9.104   9.862  68.888  1.00  0.00    -0.156 C  
HETATM    5  O   UNL     1      -9.600   9.944  67.775  1.00  0.00    -0.140 OA 
BRANCH   4   6
HETATM    6  C   UNL     1      -9.832   9.354  70.082  1.00  0.00    -0.272 A  
HETATM    7  C   UNL     1     -11.232   9.436  70.093  1.00  0.00    -0.253 A  
HETATM    8  C   UNL     1     -11.956   8.922  71.170  1.00  0.00    -0.344 A  
HETATM    9  C   UNL     1     -11.277   8.322  72.227  1.00  0.00    -0.374 A  
HETATM   10  O   UNL     1     -11.942   7.812  73.302  1.00  0.00    -0.602 OA 
HETATM   11  C   UNL     1      -9.894   8.223  72.224  1.00  0.00    -0.364 A  
HETATM   12  C   UNL     1      -9.166   8.741  71.152  1.00  0.00    -0.299 A  
HETATM   13  H   UNL     1     -11.480   7.402  74.023  1.00  0.00     0.000 HD 
ENDBRANCH   4   6
ENDBRANCH   3   4
ENDBRANCH   2   3
TORSDOF 3
ENDMDL
MODEL      196
REMARK 921   NORMALIZED FREE ENERGY PREDICTED BY IDOCK:   -2.10 KCAL/MOL
REMARK 922        TOTAL FREE ENERGY PREDICTED BY IDOCK:   -2.70 KCAL/MOL
REMARK 923 INTER-LIGAND FREE ENERGY PREDICTED BY IDOCK:   -2.55 KCAL/MOL
REMARK 924 INTRA-LIGAND FREE ENERGY PREDICTED BY IDOCK:   -0.15 KCAL/MOL
REMARK 927      BINDING AFFINITY PREDICTED BY RF-SCORE:    0.00 PKD
ROOT
HETATM    1  C   UNL     1     -10.429   2.359  73.128  1.00  0.00    -0.236 C  
HETATM    2  C   UNL     1      -9.481   3.522  72.897  1.00  0.00    -0.112 C  
ENDROOT
BRANCH   2   3
HETATM    3  O   UNL     1      -9.434   3.782  71.489  1.00  0.00    -0.128 OA 
BRANCH   3   4
HETATM    4  C   UNL     1      -9.634   5.072  71.125  1.00  0.00    -0.166 C  
HETATM    5  O   UNL     1      -9.650   6.040  71.867  1.00  0.00    -0.152 OA 
BRANCH   4   6
HETATM    6  C   UNL     1      -9.733   5.164  69.643  1.00  0.00    -0.255 A  
HETATM    7  C   UNL     1     -10.829   5.843  69.090  1.00  0.00    -0.406 A  
HETATM    8  C   UNL     1     -10.932   5.999  67.708  1.00  0.00    -0.333 A  
HETATM    9  C   UNL     1      -9.936   5.482  66.883  1.00  0.00    -0.179 A  
HETATM   10  O   UNL     1      -9.998   5.606  65.528  1.00  0.00    -0.365 OA 
HETATM   11  C   UNL     1      -8.840   4.819  67.417  1.00  0.00    -0.106 A  
HETATM   12  C   UNL     1      -8.737   4.656  68.799  1.00  0.00    -0.113 A  
HETATM   13  H   UNL     1      -9.319   5.254  64.965  1.00  0.00     0.000 HD 
ENDBRANCH   4   6
ENDBRANCH   3   4
ENDBRANCH   2   3
TORSDOF 3
ENDMDL
MODEL      197
REMARK 921   NORMALIZED FREE ENERGY PREDICTED BY IDOCK:   -2.08 KCAL/MOL
REMARK 922        TOTAL FREE ENERGY PREDICTED BY IDOCK:   -2.68 KCAL/MOL
REMARK 923 INTER-LIGAND FREE ENERGY PREDICTED BY IDOCK:   -2.54 KCAL/MOL
REMARK 924 INTRA-LIGAND FREE ENERGY PREDICTED BY IDOCK:   -0.14 KCAL/MOL
REMARK 927      BINDING AFFINITY PREDICTED BY RF-SCORE:    0.00 PKD
ROOT
HETATM    1  C   UNL     1      -9.989  11.626  64.735  1.00  0.00    -0.292 C  
HETATM    2  C   UNL     1      -8.947  10.531  64.879  1.00  0.00    -0.199 C  
ENDROOT
BRANCH   2   3
HETATM    3  O   UNL     1      -9.538   9.451  65.611  1.00  0.00    -0.258 OA 
BRANCH   3   4
HETATM    4  C   UNL     1      -8.937   8.246  65.465  1.00  0.00    -0.064 C  
HETATM    5  O   UNL     1      -8.100   7.951  64.627  1.00  0.00    -0.139 OA 
BRANCH   4   6
HETATM    6  C   UNL     1      -9.371   7.333  66.556  1.00  0.00    -0.216 A  
HETATM    7  C   UNL     1      -8.386   6.653  67.287  1.00  0.00    -0.120 A  
HETATM    8  C   UNL     1      -8.748   5.829  68.354  1.00  0.00    -0.111 A  
HETATM    9  C   UNL     1     -10.093   5.693  68.689  1.00  0.00    -0.183 A  
HETATM   10  O   UNL     1     -10.493   4.895  69.719  1.00  0.00    -0.232 OA 
HETATM   11  C   UNL     1     -11.077   6.369  67.982  1.00  0.00    -0.365 A  
HETATM   12  C   UNL     1     -10.720   7.189  66.911  1.00  0.00    -0.363 A  
HETATM   13  H   UNL     1     -11.410   4.802  69.947  1.00  0.00     0.000 HD 
ENDBRANCH   4   6
ENDBRANCH   3   4
ENDBRANCH   2   3
TORSDOF 3
ENDMDL
MODEL      198
REMARK 921   NORMALIZED FREE ENERGY PREDICTED BY IDOCK:   -2.07 KCAL/MOL
REMARK 922        TOTAL FREE ENERGY PREDICTED BY IDOCK:   -2.66 KCAL/MOL
REMARK 923 INTER-LIGAND FREE ENERGY PREDICTED BY IDOCK:   -2.48 KCAL/MOL
REMARK 924 INTRA-LIGAND FREE ENERGY PREDICTED BY IDOCK:   -0.18 KCAL/MOL
REMARK 927      BINDING AFFINITY PREDICTED BY RF-SCORE:    0.00 PKD
ROOT
HETATM    1  C   UNL     1      -9.801   4.935  65.795  1.00  0.00    -0.186 C  
HETATM    2  C   UNL     1      -9.867   4.346  67.193  1.00  0.00    -0.178 C  
ENDROOT
BRANCH   2   3
HETATM    3  O   UNL     1      -9.894   5.429  68.130  1.00  0.00    -0.131 OA 
BRANCH   3   4
HETATM    4  C   UNL     1      -8.941   5.395  69.092  1.00  0.00    -0.104 C  
HETATM    5  O   UNL     1      -7.747   5.594  68.936  1.00  0.00    -0.086 OA 
BRANCH   4   6
HETATM    6  C   UNL     1      -9.576   5.176  70.419  1.00  0.00    -0.252 A  
HETATM    7  C   UNL     1     -10.506   6.120  70.876  1.00  0.00    -0.282 A  
HETATM    8  C   UNL     1     -11.165   5.925  72.091  1.00  0.00    -0.342 A  
HETATM    9  C   UNL     1     -10.895   4.782  72.841  1.00  0.00    -0.237 A  
HETATM   10  O   UNL     1     -11.510   4.553  74.035  1.00  0.00    -0.234 OA 
HETATM   11  C   UNL     1      -9.987   3.834  72.395  1.00  0.00    -0.232 A  
HETATM   12  C   UNL     1      -9.321   4.029  71.183  1.00  0.00    -0.216 A  
HETATM   13  H   UNL     1     -11.327   3.774  74.546  1.00  0.00     0.000 HD 
ENDBRANCH   4   6
ENDBRANCH   3   4
ENDBRANCH   2   3
TORSDOF 3
ENDMDL
MODEL      199
REMARK 921   NORMALIZED FREE ENERGY PREDICTED BY IDOCK:   -2.03 KCAL/MOL
REMARK 922        TOTAL FREE ENERGY PREDICTED BY IDOCK:   -2.62 KCAL/MOL
REMARK 923 INTER-LIGAND FREE ENERGY PREDICTED BY IDOCK:   -2.46 KCAL/MOL
REMARK 924 INTRA-LIGAND FREE ENERGY PREDICTED BY IDOCK:   -0.17 KCAL/MOL
REMARK 927      BINDING AFFINITY PREDICTED BY RF-SCORE:    0.00 PKD
ROOT
HETATM    1  C   UNL     1      -7.750   2.235  68.526  1.00  0.00    -0.053 C  
HETATM    2  C   UNL     1      -9.118   2.886  68.619  1.00  0.00    -0.157 C  
ENDROOT
BRANCH   2   3
HETATM    3  O   UNL     1      -8.954   4.178  69.217  1.00  0.00    -0.092 OA 
BRANCH   3   4
HETATM    4  C   UNL     1      -9.582   4.358  70.404  1.00  0.00    -0.196 C  
HETATM    5  O   UNL     1      -9.699   3.532  71.295  1.00  0.00    -0.166 OA 
BRANCH   4   6
HETATM    6  C   UNL     1     -10.037   5.770  70.520  1.00  0.00    -0.269 A  
HETATM    7  C   UNL     1      -9.108   6.791  70.279  1.00  0.00    -0.153 A  
HETATM    8  C   UNL     1      -9.506   8.128  70.325  1.00  0.00    -0.170 A  
HETATM    9  C   UNL     1     -10.835   8.437  70.605  1.00  0.00    -0.231 A  
HETATM   10  O   UNL     1     -11.267   9.728  70.666  1.00  0.00    -0.280 OA 
HETATM   11  C   UNL     1     -11.768   7.437  70.834  1.00  0.00    -0.325 A  
HETATM   12  C   UNL     1     -11.372   6.099  70.795  1.00  0.00    -0.364 A  
HETATM   13  H   UNL     1     -12.173   9.939  70.858  1.00  0.00     0.000 HD 
ENDBRANCH   4   6
ENDBRANCH   3   4
ENDBRANCH   2   3
TORSDOF 3
ENDMDL
MODEL      200
REMARK 921   NORMALIZED FREE ENERGY PREDICTED BY IDOCK:   -2.03 KCAL/MOL
REMARK 922        TOTAL FREE ENERGY PREDICTED BY IDOCK:   -2.62 KCAL/MOL
REMARK 923 INTER-LIGAND FREE ENERGY PREDICTED BY IDOCK:   -2.33 KCAL/MOL
REMARK 924 INTRA-LIGAND FREE ENERGY PREDICTED BY IDOCK:   -0.28 KCAL/MOL
REMARK 927      BINDING AFFINITY PREDICTED BY RF-SCORE:    0.00 PKD
ROOT
HETATM    1  C   UNL     1      -7.027   4.960  70.074  1.00  0.00    -0.049 C  
HETATM    2  C   UNL     1      -8.161   4.285  69.323  1.00  0.00    -0.070 C  
ENDROOT
BRANCH   2   3
HETATM    3  O   UNL     1      -9.361   5.028  69.571  1.00  0.00    -0.111 OA 
BRANCH   3   4
HETATM    4  C   UNL     1      -9.581   6.078  68.744  1.00  0.00    -0.129 C  
HETATM    5  O   UNL     1      -9.404   6.099  67.536  1.00  0.00    -0.115 OA 
BRANCH   4   6
HETATM    6  C   UNL     1     -10.180   7.204  69.511  1.00  0.00    -0.201 A  
HETATM    7  C   UNL     1     -10.382   8.425  68.853  1.00  0.00    -0.231 A  
HETATM    8  C   UNL     1     -10.990   9.489  69.520  1.00  0.00    -0.217 A  
HETATM    9  C   UNL     1     -11.401   9.325  70.841  1.00  0.00    -0.308 A  
HETATM   10  O   UNL     1     -11.993  10.338  71.533  1.00  0.00    -0.358 OA 
HETATM   11  C   UNL     1     -11.218   8.118  71.500  1.00  0.00    -0.307 A  
HETATM   12  C   UNL     1     -10.605   7.054  70.838  1.00  0.00    -0.238 A  
HETATM   13  H   UNL     1     -12.273  10.226  72.433  1.00  0.00     0.000 HD 
ENDBRANCH   4   6
ENDBRANCH   3   4
ENDBRANCH   2   3
TORSDOF 3
ENDMDL
MODEL      201
REMARK 921   NORMALIZED FREE ENERGY PREDICTED BY IDOCK:   -2.03 KCAL/MOL
REMARK 922        TOTAL FREE ENERGY PREDICTED BY IDOCK:   -2.62 KCAL/MOL
REMARK 923 INTER-LIGAND FREE ENERGY PREDICTED BY IDOCK:   -2.44 KCAL/MOL
REMARK 924 INTRA-LIGAND FREE ENERGY PREDICTED BY IDOCK:   -0.18 KCAL/MOL
REMARK 927      BINDING AFFINITY PREDICTED BY RF-SCORE:    0.00 PKD
ROOT
HETATM    1  C   UNL     1      -6.856   7.983  69.227  1.00  0.00    -0.048 C  
HETATM    2  C   UNL     1      -8.175   8.286  69.914  1.00  0.00    -0.123 C  
ENDROOT
BRANCH   2   3
HETATM    3  O   UNL     1      -9.230   7.767  69.096  1.00  0.00    -0.145 OA 
BRANCH   3   4
HETATM    4  C   UNL     1      -9.413   6.426  69.157  1.00  0.00    -0.134 C  
HETATM    5  O   UNL     1      -9.177   5.621  68.270  1.00  0.00    -0.110 OA 
BRANCH   4   6
HETATM    6  C   UNL     1      -9.857   6.042  70.524  1.00  0.00    -0.222 A  
HETATM    7  C   UNL     1     -11.039   6.608  71.024  1.00  0.00    -0.330 A  
HETATM    8  C   UNL     1     -11.519   6.233  72.279  1.00  0.00    -0.351 A  
HETATM    9  C   UNL     1     -10.820   5.289  73.027  1.00  0.00    -0.280 A  
HETATM   10  O   UNL     1     -11.249   4.899  74.260  1.00  0.00    -0.332 OA 
HETATM   11  C   UNL     1      -9.656   4.712  72.540  1.00  0.00    -0.178 A  
HETATM   12  C   UNL     1      -9.169   5.088  71.288  1.00  0.00    -0.186 A  
HETATM   13  H   UNL     1     -10.772   4.255  74.771  1.00  0.00     0.000 HD 
ENDBRANCH   4   6
ENDBRANCH   3   4
ENDBRANCH   2   3
TORSDOF 3
ENDMDL
MODEL      202
REMARK 921   NORMALIZED FREE ENERGY PREDICTED BY IDOCK:   -2.01 KCAL/MOL
REMARK 922        TOTAL FREE ENERGY PREDICTED BY IDOCK:   -2.60 KCAL/MOL
REMARK 923 INTER-LIGAND FREE ENERGY PREDICTED BY IDOCK:   -2.41 KCAL/MOL
REMARK 924 INTRA-LIGAND FREE ENERGY PREDICTED BY IDOCK:   -0.19 KCAL/MOL
REMARK 927      BINDING AFFINITY PREDICTED BY RF-SCORE:    0.00 PKD
ROOT
HETATM    1  C   UNL     1     -10.795  11.641  67.416  1.00  0.00    -0.298 C  
HETATM    2  C   UNL     1     -10.602  10.751  68.630  1.00  0.00    -0.199 C  
ENDROOT
BRANCH   2   3
HETATM    3  O   UNL     1     -10.749   9.389  68.210  1.00  0.00    -0.220 OA 
BRANCH   3   4
HETATM    4  C   UNL     1      -9.618   8.644  68.235  1.00  0.00    -0.147 C  
HETATM    5  O   UNL     1      -8.594   8.860  67.607  1.00  0.00    -0.123 OA 
BRANCH   4   6
HETATM    6  C   UNL     1      -9.759   7.551  69.234  1.00  0.00    -0.163 A  
HETATM    7  C   UNL     1     -10.984   6.873  69.312  1.00  0.00    -0.260 A  
HETATM    8  C   UNL     1     -11.141   5.807  70.198  1.00  0.00    -0.323 A  
HETATM    9  C   UNL     1     -10.070   5.418  70.999  1.00  0.00    -0.216 A  
HETATM   10  O   UNL     1     -10.179   4.386  71.882  1.00  0.00    -0.185 OA 
HETATM   11  C   UNL     1      -8.848   6.071  70.924  1.00  0.00    -0.136 A  
HETATM   12  C   UNL     1      -8.689   7.142  70.043  1.00  0.00    -0.141 A  
HETATM   13  H   UNL     1      -9.449   4.121  72.428  1.00  0.00     0.000 HD 
ENDBRANCH   4   6
ENDBRANCH   3   4
ENDBRANCH   2   3
TORSDOF 3
ENDMDL
MODEL      203
REMARK 921   NORMALIZED FREE ENERGY PREDICTED BY IDOCK:   -2.01 KCAL/MOL
REMARK 922        TOTAL FREE ENERGY PREDICTED BY IDOCK:   -2.60 KCAL/MOL
REMARK 923 INTER-LIGAND FREE ENERGY PREDICTED BY IDOCK:   -2.46 KCAL/MOL
REMARK 924 INTRA-LIGAND FREE ENERGY PREDICTED BY IDOCK:   -0.13 KCAL/MOL
REMARK 927      BINDING AFFINITY PREDICTED BY RF-SCORE:    0.00 PKD
ROOT
HETATM    1  C   UNL     1      -9.858   1.705  72.916  1.00  0.00    -0.146 C  
HETATM    2  C   UNL     1      -9.546   2.736  73.985  1.00  0.00    -0.089 C  
ENDROOT
BRANCH   2   3
HETATM    3  O   UNL     1      -9.369   4.003  73.340  1.00  0.00    -0.107 OA 
BRANCH   3   4
HETATM    4  C   UNL     1     -10.494   4.742  73.181  1.00  0.00    -0.201 C  
HETATM    5  O   UNL     1     -11.602   4.477  73.619  1.00  0.00    -0.225 OA 
BRANCH   4   6
HETATM    6  C   UNL     1     -10.168   6.005  72.466  1.00  0.00    -0.210 A  
HETATM    7  C   UNL     1     -10.306   7.217  73.158  1.00  0.00    -0.336 A  
HETATM    8  C   UNL     1      -9.959   8.420  72.542  1.00  0.00    -0.356 A  
HETATM    9  C   UNL     1      -9.468   8.405  71.239  1.00  0.00    -0.186 A  
HETATM   10  O   UNL     1      -9.122   9.556  70.596  1.00  0.00    -0.245 OA 
HETATM   11  C   UNL     1      -9.314   7.213  70.547  1.00  0.00    -0.158 A  
HETATM   12  C   UNL     1      -9.666   6.008  71.157  1.00  0.00    -0.206 A  
HETATM   13  H   UNL     1      -8.787   9.547  69.708  1.00  0.00     0.000 HD 
ENDBRANCH   4   6
ENDBRANCH   3   4
ENDBRANCH   2   3
TORSDOF 3
ENDMDL
MODEL      204
REMARK 921   NORMALIZED FREE ENERGY PREDICTED BY IDOCK:   -2.00 KCAL/MOL
REMARK 922        TOTAL FREE ENERGY PREDICTED BY IDOCK:   -2.58 KCAL/MOL
REMARK 923 INTER-LIGAND FREE ENERGY PREDICTED BY IDOCK:   -2.28 KCAL/MOL
REMARK 924 INTRA-LIGAND FREE ENERGY PREDICTED BY IDOCK:   -0.31 KCAL/MOL
REMARK 927      BINDING AFFINITY PREDICTED BY RF-SCORE:    0.00 PKD
ROOT
HETATM    1  C   UNL     1      -8.819   8.967  67.967  1.00  0.00    -0.133 C  
HETATM    2  C   UNL     1      -9.591   8.233  66.885  1.00  0.00    -0.207 C  
ENDROOT
BRANCH   2   3
HETATM    3  O   UNL     1     -10.733   7.620  67.494  1.00  0.00    -0.253 OA 
BRANCH   3   4
HETATM    4  C   UNL     1     -10.875   6.292  67.269  1.00  0.00    -0.375 C  
HETATM    5  O   UNL     1     -11.250   5.768  66.233  1.00  0.00     0.003 OA 
BRANCH   4   6
HETATM    6  C   UNL     1     -10.403   5.530  68.457  1.00  0.00    -0.247 A  
HETATM    7  C   UNL     1      -9.280   4.702  68.314  1.00  0.00    -0.166 A  
HETATM    8  C   UNL     1      -8.773   4.012  69.415  1.00  0.00    -0.127 A  
HETATM    9  C   UNL     1      -9.386   4.158  70.657  1.00  0.00    -0.148 A  
HETATM   10  O   UNL     1      -8.929   3.499  71.759  1.00  0.00    -0.098 OA 
HETATM   11  C   UNL     1     -10.490   4.982  70.816  1.00  0.00    -0.222 A  
HETATM   12  C   UNL     1     -11.005   5.669  69.715  1.00  0.00    -0.301 A  
HETATM   13  H   UNL     1      -9.347   3.598  72.606  1.00  0.00     0.000 HD 
ENDBRANCH   4   6
ENDBRANCH   3   4
ENDBRANCH   2   3
TORSDOF 3
ENDMDL
MODEL      205
REMARK 921   NORMALIZED FREE ENERGY PREDICTED BY IDOCK:   -2.00 KCAL/MOL
REMARK 922        TOTAL FREE ENERGY PREDICTED BY IDOCK:   -2.58 KCAL/MOL
REMARK 923 INTER-LIGAND FREE ENERGY PREDICTED BY IDOCK:   -2.26 KCAL/MOL
REMARK 924 INTRA-LIGAND FREE ENERGY PREDICTED BY IDOCK:   -0.32 KCAL/MOL
REMARK 927      BINDING AFFINITY PREDICTED BY RF-SCORE:    0.00 PKD
ROOT
HETATM    1  C   UNL     1      -9.450   7.152  70.846  1.00  0.00    -0.160 C  
HETATM    2  C   UNL     1      -9.413   6.329  69.571  1.00  0.00    -0.141 C  
ENDROOT
BRANCH   2   3
HETATM    3  O   UNL     1     -10.549   6.690  68.777  1.00  0.00    -0.199 OA 
BRANCH   3   4
HETATM    4  C   UNL     1     -10.296   6.932  67.468  1.00  0.00    -0.217 C  
HETATM    5  O   UNL     1     -10.490   6.166  66.539  1.00  0.00    -0.192 OA 
BRANCH   4   6
HETATM    6  C   UNL     1      -9.831   8.335  67.299  1.00  0.00    -0.258 A  
HETATM    7  C   UNL     1     -10.683   9.373  67.704  1.00  0.00    -0.295 A  
HETATM    8  C   UNL     1     -10.264  10.701  67.612  1.00  0.00    -0.229 A  
HETATM    9  C   UNL     1      -8.991  10.986  67.123  1.00  0.00    -0.143 A  
HETATM   10  O   UNL     1      -8.543  12.267  67.011  1.00  0.00    -0.183 OA 
HETATM   11  C   UNL     1      -8.133   9.969  66.731  1.00  0.00    -0.118 A  
HETATM   12  C   UNL     1      -8.551   8.640  66.815  1.00  0.00    -0.126 A  
HETATM   13  H   UNL     1      -7.675  12.462  66.678  1.00  0.00     0.000 HD 
ENDBRANCH   4   6
ENDBRANCH   3   4
ENDBRANCH   2   3
TORSDOF 3
ENDMDL
MODEL      206
REMARK 921   NORMALIZED FREE ENERGY PREDICTED BY IDOCK:   -1.97 KCAL/MOL
REMARK 922        TOTAL FREE ENERGY PREDICTED BY IDOCK:   -2.55 KCAL/MOL
REMARK 923 INTER-LIGAND FREE ENERGY PREDICTED BY IDOCK:   -2.24 KCAL/MOL
REMARK 924 INTRA-LIGAND FREE ENERGY PREDICTED BY IDOCK:   -0.31 KCAL/MOL
REMARK 927      BINDING AFFINITY PREDICTED BY RF-SCORE:    0.00 PKD
ROOT
HETATM    1  C   UNL     1     -11.877  10.787  70.288  1.00  0.00    -0.438 C  
HETATM    2  C   UNL     1     -11.372   9.904  71.414  1.00  0.00    -0.274 C  
ENDROOT
BRANCH   2   3
HETATM    3  O   UNL     1     -10.103   9.367  71.022  1.00  0.00    -0.288 OA 
BRANCH   3   4
HETATM    4  C   UNL     1     -10.135   8.134  70.463  1.00  0.00    -0.192 C  
HETATM    5  O   UNL     1     -10.737   7.161  70.889  1.00  0.00    -0.226 OA 
BRANCH   4   6
HETATM    6  C   UNL     1      -9.400   8.150  69.170  1.00  0.00    -0.151 A  
HETATM    7  C   UNL     1      -9.439   7.001  68.368  1.00  0.00    -0.133 A  
HETATM    8  C   UNL     1      -8.808   6.993  67.123  1.00  0.00    -0.121 A  
HETATM    9  C   UNL     1      -8.148   8.137  66.682  1.00  0.00    -0.103 A  
HETATM   10  O   UNL     1      -7.513   8.173  65.477  1.00  0.00    -0.077 OA 
HETATM   11  C   UNL     1      -8.112   9.285  67.460  1.00  0.00    -0.107 A  
HETATM   12  C   UNL     1      -8.736   9.295  68.708  1.00  0.00    -0.132 A  
HETATM   13  H   UNL     1      -7.063   8.953  65.176  1.00  0.00     0.000 HD 
ENDBRANCH   4   6
ENDBRANCH   3   4
ENDBRANCH   2   3
TORSDOF 3
ENDMDL
MODEL      207
REMARK 921   NORMALIZED FREE ENERGY PREDICTED BY IDOCK:   -1.96 KCAL/MOL
REMARK 922        TOTAL FREE ENERGY PREDICTED BY IDOCK:   -2.54 KCAL/MOL
REMARK 923 INTER-LIGAND FREE ENERGY PREDICTED BY IDOCK:   -2.39 KCAL/MOL
REMARK 924 INTRA-LIGAND FREE ENERGY PREDICTED BY IDOCK:   -0.15 KCAL/MOL
REMARK 927      BINDING AFFINITY PREDICTED BY RF-SCORE:    0.00 PKD
ROOT
HETATM    1  C   UNL     1      -9.432   3.532  66.590  1.00  0.00    -0.179 C  
HETATM    2  C   UNL     1     -10.003   4.823  66.031  1.00  0.00    -0.237 C  
ENDROOT
BRANCH   2   3
HETATM    3  O   UNL     1      -9.176   5.904  66.477  1.00  0.00    -0.137 OA 
BRANCH   3   4
HETATM    4  C   UNL     1      -8.359   6.442  65.539  1.00  0.00    -0.147 C  
HETATM    5  O   UNL     1      -7.570   5.836  64.832  1.00  0.00    -0.079 OA 
BRANCH   4   6
HETATM    6  C   UNL     1      -8.632   7.899  65.413  1.00  0.00    -0.118 A  
HETATM    7  C   UNL     1      -9.658   8.454  66.190  1.00  0.00    -0.246 A  
HETATM    8  C   UNL     1      -9.911   9.826  66.141  1.00  0.00    -0.338 A  
HETATM    9  C   UNL     1      -9.132  10.638  65.321  1.00  0.00    -0.195 A  
HETATM   10  O   UNL     1      -9.347  11.980  65.238  1.00  0.00    -0.423 OA 
HETATM   11  C   UNL     1      -8.105  10.104  64.556  1.00  0.00    -0.160 A  
HETATM   12  C   UNL     1      -7.853   8.732  64.597  1.00  0.00    -0.127 A  
HETATM   13  H   UNL     1      -8.816  12.534  64.678  1.00  0.00     0.000 HD 
ENDBRANCH   4   6
ENDBRANCH   3   4
ENDBRANCH   2   3
TORSDOF 3
ENDMDL
MODEL      208
REMARK 921   NORMALIZED FREE ENERGY PREDICTED BY IDOCK:   -1.91 KCAL/MOL
REMARK 922        TOTAL FREE ENERGY PREDICTED BY IDOCK:   -2.47 KCAL/MOL
REMARK 923 INTER-LIGAND FREE ENERGY PREDICTED BY IDOCK:   -2.31 KCAL/MOL
REMARK 924 INTRA-LIGAND FREE ENERGY PREDICTED BY IDOCK:   -0.17 KCAL/MOL
REMARK 927      BINDING AFFINITY PREDICTED BY RF-SCORE:    0.00 PKD
ROOT
HETATM    1  C   UNL     1      -6.631   9.655  70.716  1.00  0.00    -0.099 C  
HETATM    2  C   UNL     1      -7.676   9.115  69.757  1.00  0.00    -0.082 C  
ENDROOT
BRANCH   2   3
HETATM    3  O   UNL     1      -7.218   9.353  68.421  1.00  0.00    -0.074 OA 
BRANCH   3   4
HETATM    4  C   UNL     1      -7.178  10.652  68.038  1.00  0.00    -0.087 C  
HETATM    5  O   UNL     1      -6.188  11.365  67.995  1.00  0.00    -0.049 OA 
BRANCH   4   6
HETATM    6  C   UNL     1      -8.524  11.078  67.568  1.00  0.00    -0.127 A  
HETATM    7  C   UNL     1      -9.048  12.284  68.054  1.00  0.00    -0.191 A  
HETATM    8  C   UNL     1     -10.283  12.747  67.597  1.00  0.00    -0.219 A  
HETATM    9  C   UNL     1     -10.985  12.004  66.651  1.00  0.00    -0.287 A  
HETATM   10  O   UNL     1     -12.197  12.414  66.181  1.00  0.00    -0.635 OA 
HETATM   11  C   UNL     1     -10.473  10.815  66.152  1.00  0.00    -0.278 A  
HETATM   12  C   UNL     1      -9.241  10.346  66.611  1.00  0.00    -0.178 A  
HETATM   13  H   UNL     1     -12.676  11.908  65.536  1.00  0.00     0.000 HD 
ENDBRANCH   4   6
ENDBRANCH   3   4
ENDBRANCH   2   3
TORSDOF 3
ENDMDL
MODEL      209
REMARK 921   NORMALIZED FREE ENERGY PREDICTED BY IDOCK:   -1.89 KCAL/MOL
REMARK 922        TOTAL FREE ENERGY PREDICTED BY IDOCK:   -2.45 KCAL/MOL
REMARK 923 INTER-LIGAND FREE ENERGY PREDICTED BY IDOCK:   -2.57 KCAL/MOL
REMARK 924 INTRA-LIGAND FREE ENERGY PREDICTED BY IDOCK:    0.12 KCAL/MOL
REMARK 927      BINDING AFFINITY PREDICTED BY RF-SCORE:    0.00 PKD
ROOT
HETATM    1  C   UNL     1      -6.418   6.123  67.243  1.00  0.00    -0.046 C  
HETATM    2  C   UNL     1      -7.793   6.639  66.858  1.00  0.00    -0.108 C  
ENDROOT
BRANCH   2   3
HETATM    3  O   UNL     1      -8.769   5.721  67.365  1.00  0.00    -0.110 OA 
BRANCH   3   4
HETATM    4  C   UNL     1     -10.055   6.142  67.308  1.00  0.00    -0.165 C  
HETATM    5  O   UNL     1     -11.014   5.493  66.924  1.00  0.00    -0.212 OA 
BRANCH   4   6
HETATM    6  C   UNL     1     -10.161   7.508  67.889  1.00  0.00    -0.245 A  
HETATM    7  C   UNL     1     -10.309   8.594  67.014  1.00  0.00    -0.368 A  
HETATM    8  C   UNL     1     -10.466   9.885  67.520  1.00  0.00    -0.310 A  
HETATM    9  C   UNL     1     -10.482  10.084  68.898  1.00  0.00    -0.210 A  
HETATM   10  O   UNL     1     -10.627  11.328  69.435  1.00  0.00    -0.368 OA 
HETATM   11  C   UNL     1     -10.350   9.018  69.775  1.00  0.00    -0.219 A  
HETATM   12  C   UNL     1     -10.186   7.726  69.273  1.00  0.00    -0.211 A  
HETATM   13  H   UNL     1     -10.638  11.464  70.375  1.00  0.00     0.000 HD 
ENDBRANCH   4   6
ENDBRANCH   3   4
ENDBRANCH   2   3
TORSDOF 3
ENDMDL
MODEL      210
REMARK 921   NORMALIZED FREE ENERGY PREDICTED BY IDOCK:   -1.88 KCAL/MOL
REMARK 922        TOTAL FREE ENERGY PREDICTED BY IDOCK:   -2.44 KCAL/MOL
REMARK 923 INTER-LIGAND FREE ENERGY PREDICTED BY IDOCK:   -2.22 KCAL/MOL
REMARK 924 INTRA-LIGAND FREE ENERGY PREDICTED BY IDOCK:   -0.22 KCAL/MOL
REMARK 927      BINDING AFFINITY PREDICTED BY RF-SCORE:    0.00 PKD
ROOT
HETATM    1  C   UNL     1      -6.395   3.293  67.804  1.00  0.00    -0.036 C  
HETATM    2  C   UNL     1      -7.633   3.630  68.615  1.00  0.00    -0.053 C  
ENDROOT
BRANCH   2   3
HETATM    3  O   UNL     1      -8.479   4.459  67.811  1.00  0.00    -0.098 OA 
BRANCH   3   4
HETATM    4  C   UNL     1      -8.372   5.792  68.029  1.00  0.00    -0.103 C  
HETATM    5  O   UNL     1      -7.643   6.568  67.431  1.00  0.00    -0.096 OA 
BRANCH   4   6
HETATM    6  C   UNL     1      -9.362   6.214  69.056  1.00  0.00    -0.133 A  
HETATM    7  C   UNL     1      -8.896   6.888  70.194  1.00  0.00    -0.145 A  
HETATM    8  C   UNL     1      -9.797   7.348  71.155  1.00  0.00    -0.177 A  
HETATM    9  C   UNL     1     -11.162   7.138  70.971  1.00  0.00    -0.269 A  
HETATM   10  O   UNL     1     -12.077   7.564  71.886  1.00  0.00    -0.288 OA 
HETATM   11  C   UNL     1     -11.638   6.483  69.844  1.00  0.00    -0.433 A  
HETATM   12  C   UNL     1     -10.739   6.016  68.884  1.00  0.00    -0.384 A  
HETATM   13  H   UNL     1     -13.007   7.421  71.761  1.00  0.00     0.000 HD 
ENDBRANCH   4   6
ENDBRANCH   3   4
ENDBRANCH   2   3
TORSDOF 3
ENDMDL
MODEL      211
REMARK 921   NORMALIZED FREE ENERGY PREDICTED BY IDOCK:   -1.84 KCAL/MOL
REMARK 922        TOTAL FREE ENERGY PREDICTED BY IDOCK:   -2.39 KCAL/MOL
REMARK 923 INTER-LIGAND FREE ENERGY PREDICTED BY IDOCK:   -2.13 KCAL/MOL
REMARK 924 INTRA-LIGAND FREE ENERGY PREDICTED BY IDOCK:   -0.26 KCAL/MOL
REMARK 927      BINDING AFFINITY PREDICTED BY RF-SCORE:    0.00 PKD
ROOT
HETATM    1  C   UNL     1      -7.413   8.695  65.786  1.00  0.00    -0.085 C  
HETATM    2  C   UNL     1      -8.534   9.586  65.281  1.00  0.00    -0.148 C  
ENDROOT
BRANCH   2   3
HETATM    3  O   UNL     1      -9.753   9.158  65.899  1.00  0.00    -0.270 OA 
BRANCH   3   4
HETATM    4  C   UNL     1     -10.008   9.688  67.120  1.00  0.00    -0.194 C  
HETATM    5  O   UNL     1     -10.242  10.860  67.367  1.00  0.00    -0.188 OA 
BRANCH   4   6
HETATM    6  C   UNL     1     -10.066   8.602  68.135  1.00  0.00    -0.236 A  
HETATM    7  C   UNL     1      -9.182   8.657  69.222  1.00  0.00    -0.150 A  
HETATM    8  C   UNL     1      -9.240   7.688  70.224  1.00  0.00    -0.157 A  
HETATM    9  C   UNL     1     -10.187   6.670  70.139  1.00  0.00    -0.187 A  
HETATM   10  O   UNL     1     -10.276   5.700  71.091  1.00  0.00    -0.201 OA 
HETATM   11  C   UNL     1     -11.076   6.610  69.076  1.00  0.00    -0.318 A  
HETATM   12  C   UNL     1     -11.017   7.574  68.069  1.00  0.00     0.004 A  
HETATM   13  H   UNL     1     -10.922   5.006  71.033  1.00  0.00     0.000 HD 
ENDBRANCH   4   6
ENDBRANCH   3   4
ENDBRANCH   2   3
TORSDOF 3
ENDMDL
MODEL      212
REMARK 921   NORMALIZED FREE ENERGY PREDICTED BY IDOCK:   -1.83 KCAL/MOL
REMARK 922        TOTAL FREE ENERGY PREDICTED BY IDOCK:   -2.39 KCAL/MOL
REMARK 923 INTER-LIGAND FREE ENERGY PREDICTED BY IDOCK:   -2.30 KCAL/MOL
REMARK 924 INTRA-LIGAND FREE ENERGY PREDICTED BY IDOCK:   -0.09 KCAL/MOL
REMARK 927      BINDING AFFINITY PREDICTED BY RF-SCORE:    0.00 PKD
ROOT
HETATM    1  C   UNL     1     -10.133   5.336  67.777  1.00  0.00    -0.205 C  
HETATM    2  C   UNL     1     -10.481   6.740  68.236  1.00  0.00    -0.206 C  
ENDROOT
BRANCH   2   3
HETATM    3  O   UNL     1      -9.274   7.512  68.256  1.00  0.00    -0.139 OA 
BRANCH   3   4
HETATM    4  C   UNL     1      -9.091   8.340  67.200  1.00  0.00    -0.139 C  
HETATM    5  O   UNL     1      -8.859   8.007  66.049  1.00  0.00    -0.153 OA 
BRANCH   4   6
HETATM    6  C   UNL     1      -9.318   9.749  67.622  1.00  0.00    -0.157 A  
HETATM    7  C   UNL     1      -8.216  10.613  67.679  1.00  0.00    -0.107 A  
HETATM    8  C   UNL     1      -8.393  11.955  68.018  1.00  0.00    -0.160 A  
HETATM    9  C   UNL     1      -9.674  12.429  68.292  1.00  0.00    -0.218 A  
HETATM   10  O   UNL     1      -9.893  13.730  68.633  1.00  0.00    -0.285 OA 
HETATM   11  C   UNL     1     -10.775  11.588  68.228  1.00  0.00    -0.247 A  
HETATM   12  C   UNL     1     -10.601  10.244  67.895  1.00  0.00    -0.282 A  
HETATM   13  H   UNL     1     -10.766  14.053  68.820  1.00  0.00     0.000 HD 
ENDBRANCH   4   6
ENDBRANCH   3   4
ENDBRANCH   2   3
TORSDOF 3
ENDMDL
MODEL      213
REMARK 921   NORMALIZED FREE ENERGY PREDICTED BY IDOCK:   -1.80 KCAL/MOL
REMARK 922        TOTAL FREE ENERGY PREDICTED BY IDOCK:   -2.35 KCAL/MOL
REMARK 923 INTER-LIGAND FREE ENERGY PREDICTED BY IDOCK:   -2.13 KCAL/MOL
REMARK 924 INTRA-LIGAND FREE ENERGY PREDICTED BY IDOCK:   -0.22 KCAL/MOL
REMARK 927      BINDING AFFINITY PREDICTED BY RF-SCORE:    0.00 PKD
ROOT
HETATM    1  C   UNL     1      -9.754   4.853  67.206  1.00  0.00    -0.194 C  
HETATM    2  C   UNL     1     -10.613   6.061  67.532  1.00  0.00    -0.273 C  
ENDROOT
BRANCH   2   3
HETATM    3  O   UNL     1     -11.134   5.891  68.855  1.00  0.00    -0.315 OA 
BRANCH   3   4
HETATM    4  C   UNL     1     -10.718   6.799  69.770  1.00  0.00    -0.249 C  
HETATM    5  O   UNL     1     -11.186   7.912  69.950  1.00  0.00    -0.181 OA 
BRANCH   4   6
HETATM    6  C   UNL     1      -9.650   6.205  70.617  1.00  0.00    -0.195 A  
HETATM    7  C   UNL     1      -9.612   4.810  70.761  1.00  0.00    -0.249 A  
HETATM    8  C   UNL     1      -8.595   4.209  71.502  1.00  0.00    -0.126 A  
HETATM    9  C   UNL     1      -7.614   5.004  72.091  1.00  0.00    -0.094 A  
HETATM   10  O   UNL     1      -6.606   4.460  72.829  1.00  0.00    -0.041 OA 
HETATM   11  C   UNL     1      -7.632   6.383  71.947  1.00  0.00    -0.095 A  
HETATM   12  C   UNL     1      -8.652   6.989  71.212  1.00  0.00    -0.119 A  
HETATM   13  H   UNL     1      -5.937   5.002  73.231  1.00  0.00     0.000 HD 
ENDBRANCH   4   6
ENDBRANCH   3   4
ENDBRANCH   2   3
TORSDOF 3
ENDMDL
MODEL      214
REMARK 921   NORMALIZED FREE ENERGY PREDICTED BY IDOCK:   -1.76 KCAL/MOL
REMARK 922        TOTAL FREE ENERGY PREDICTED BY IDOCK:   -2.30 KCAL/MOL
REMARK 923 INTER-LIGAND FREE ENERGY PREDICTED BY IDOCK:   -2.05 KCAL/MOL
REMARK 924 INTRA-LIGAND FREE ENERGY PREDICTED BY IDOCK:   -0.25 KCAL/MOL
REMARK 927      BINDING AFFINITY PREDICTED BY RF-SCORE:    0.00 PKD
ROOT
HETATM    1  C   UNL     1      -9.690   9.252  70.797  1.00  0.00    -0.348 C  
HETATM    2  C   UNL     1     -10.751   9.762  69.838  1.00  0.00    -0.268 C  
ENDROOT
BRANCH   2   3
HETATM    3  O   UNL     1     -11.002   8.738  68.869  1.00  0.00    -0.071 OA 
BRANCH   3   4
HETATM    4  C   UNL     1     -10.002   8.513  67.982  1.00  0.00    -0.183 C  
HETATM    5  O   UNL     1      -9.373   9.360  67.369  1.00  0.00    -0.126 OA 
BRANCH   4   6
HETATM    6  C   UNL     1      -9.695   7.058  67.931  1.00  0.00    -0.141 A  
HETATM    7  C   UNL     1     -10.656   6.194  67.387  1.00  0.00    -0.352 A  
HETATM    8  C   UNL     1     -10.386   4.830  67.270  1.00  0.00    -0.109 A  
HETATM    9  C   UNL     1      -9.154   4.336  67.691  1.00  0.00    -0.134 A  
HETATM   10  O   UNL     1      -8.850   3.011  67.602  1.00  0.00    -0.107 OA 
HETATM   11  C   UNL     1      -8.189   5.182  68.220  1.00  0.00    -0.093 A  
HETATM   12  C   UNL     1      -8.458   6.545  68.344  1.00  0.00    -0.120 A  
HETATM   13  H   UNL     1      -8.009   2.674  67.889  1.00  0.00     0.000 HD 
ENDBRANCH   4   6
ENDBRANCH   3   4
ENDBRANCH   2   3
TORSDOF 3
ENDMDL
MODEL      215
REMARK 921   NORMALIZED FREE ENERGY PREDICTED BY IDOCK:   -1.75 KCAL/MOL
REMARK 922        TOTAL FREE ENERGY PREDICTED BY IDOCK:   -2.30 KCAL/MOL
REMARK 923 INTER-LIGAND FREE ENERGY PREDICTED BY IDOCK:   -2.10 KCAL/MOL
REMARK 924 INTRA-LIGAND FREE ENERGY PREDICTED BY IDOCK:   -0.19 KCAL/MOL
REMARK 927      BINDING AFFINITY PREDICTED BY RF-SCORE:    0.00 PKD
ROOT
HETATM    1  C   UNL     1      -8.501   2.742  70.460  1.00  0.00    -0.093 C  
HETATM    2  C   UNL     1      -8.800   3.797  69.410  1.00  0.00    -0.090 C  
ENDROOT
BRANCH   2   3
HETATM    3  O   UNL     1      -9.786   4.688  69.944  1.00  0.00    -0.172 OA 
BRANCH   3   4
HETATM    4  C   UNL     1     -10.192   5.678  69.113  1.00  0.00    -0.236 C  
HETATM    5  O   UNL     1     -11.061   5.597  68.260  1.00  0.00    -0.093 OA 
BRANCH   4   6
HETATM    6  C   UNL     1      -9.488   6.943  69.458  1.00  0.00    -0.146 A  
HETATM    7  C   UNL     1      -8.743   7.584  68.458  1.00  0.00    -0.128 A  
HETATM    8  C   UNL     1      -8.112   8.800  68.725  1.00  0.00    -0.115 A  
HETATM    9  C   UNL     1      -8.235   9.373  69.989  1.00  0.00    -0.162 A  
HETATM   10  O   UNL     1      -7.631  10.555  70.295  1.00  0.00    -0.436 OA 
HETATM   11  C   UNL     1      -8.979   8.756  70.983  1.00  0.00    -0.269 A  
HETATM   12  C   UNL     1      -9.606   7.537  70.722  1.00  0.00    -0.166 A  
HETATM   13  H   UNL     1      -7.714  10.946  71.157  1.00  0.00     0.000 HD 
ENDBRANCH   4   6
ENDBRANCH   3   4
ENDBRANCH   2   3
TORSDOF 3
ENDMDL
MODEL      216
REMARK 921   NORMALIZED FREE ENERGY PREDICTED BY IDOCK:   -1.74 KCAL/MOL
REMARK 922        TOTAL FREE ENERGY PREDICTED BY IDOCK:   -2.27 KCAL/MOL
REMARK 923 INTER-LIGAND FREE ENERGY PREDICTED BY IDOCK:   -2.09 KCAL/MOL
REMARK 924 INTRA-LIGAND FREE ENERGY PREDICTED BY IDOCK:   -0.19 KCAL/MOL
REMARK 927      BINDING AFFINITY PREDICTED BY RF-SCORE:    0.00 PKD
ROOT
HETATM    1  C   UNL     1      -7.220  14.477  68.755  1.00  0.00    -0.126 C  
HETATM    2  C   UNL     1      -7.487  13.515  67.612  1.00  0.00    -0.181 C  
ENDROOT
BRANCH   2   3
HETATM    3  O   UNL     1      -7.327  12.181  68.108  1.00  0.00    -0.087 OA 
BRANCH   3   4
HETATM    4  C   UNL     1      -7.965  11.214  67.406  1.00  0.00    -0.125 C  
HETATM    5  O   UNL     1      -7.858  10.998  66.209  1.00  0.00    -0.158 OA 
BRANCH   4   6
HETATM    6  C   UNL     1      -8.758  10.361  68.332  1.00  0.00    -0.129 A  
HETATM    7  C   UNL     1      -8.215  10.058  69.588  1.00  0.00    -0.185 A  
HETATM    8  C   UNL     1      -8.949   9.307  70.507  1.00  0.00    -0.296 A  
HETATM    9  C   UNL     1     -10.227   8.868  70.168  1.00  0.00    -0.196 A  
HETATM   10  O   UNL     1     -10.977   8.127  71.031  1.00  0.00    -0.235 OA 
HETATM   11  C   UNL     1     -10.782   9.171  68.934  1.00  0.00    -0.167 A  
HETATM   12  C   UNL     1     -10.048   9.917  68.010  1.00  0.00    -0.202 A  
HETATM   13  H   UNL     1     -11.848   7.828  70.801  1.00  0.00     0.000 HD 
ENDBRANCH   4   6
ENDBRANCH   3   4
ENDBRANCH   2   3
TORSDOF 3
ENDMDL
MODEL      217
REMARK 921   NORMALIZED FREE ENERGY PREDICTED BY IDOCK:   -1.72 KCAL/MOL
REMARK 922        TOTAL FREE ENERGY PREDICTED BY IDOCK:   -2.25 KCAL/MOL
REMARK 923 INTER-LIGAND FREE ENERGY PREDICTED BY IDOCK:   -2.06 KCAL/MOL
REMARK 924 INTRA-LIGAND FREE ENERGY PREDICTED BY IDOCK:   -0.19 KCAL/MOL
REMARK 927      BINDING AFFINITY PREDICTED BY RF-SCORE:    0.00 PKD
ROOT
HETATM    1  C   UNL     1      -7.943   6.550  67.348  1.00  0.00    -0.113 C  
HETATM    2  C   UNL     1      -9.232   7.205  67.812  1.00  0.00    -0.125 C  
ENDROOT
BRANCH   2   3
HETATM    3  O   UNL     1      -8.921   8.059  68.919  1.00  0.00    -0.141 OA 
BRANCH   3   4
HETATM    4  C   UNL     1      -9.983   8.647  69.521  1.00  0.00    -0.196 C  
HETATM    5  O   UNL     1     -10.683   8.160  70.394  1.00  0.00    -0.224 OA 
BRANCH   4   6
HETATM    6  C   UNL     1     -10.124  10.046  69.033  1.00  0.00    -0.211 A  
HETATM    7  C   UNL     1     -11.346  10.433  68.464  1.00  0.00    -0.283 A  
HETATM    8  C   UNL     1     -11.538  11.749  68.043  1.00  0.00    -0.386 A  
HETATM    9  C   UNL     1     -10.510  12.676  68.200  1.00  0.00    -0.231 A  
HETATM   10  O   UNL     1     -10.652  13.970  67.798  1.00  0.00    -0.239 OA 
HETATM   11  C   UNL     1      -9.301  12.310  68.772  1.00  0.00     0.093 A  
HETATM   12  C   UNL     1      -9.102  10.993  69.188  1.00  0.00    -0.006 A  
HETATM   13  H   UNL     1      -9.951  14.602  67.905  1.00  0.00     0.000 HD 
ENDBRANCH   4   6
ENDBRANCH   3   4
ENDBRANCH   2   3
TORSDOF 3
ENDMDL
MODEL      218
REMARK 921   NORMALIZED FREE ENERGY PREDICTED BY IDOCK:   -1.69 KCAL/MOL
REMARK 922        TOTAL FREE ENERGY PREDICTED BY IDOCK:   -2.21 KCAL/MOL
REMARK 923 INTER-LIGAND FREE ENERGY PREDICTED BY IDOCK:   -2.04 KCAL/MOL
REMARK 924 INTRA-LIGAND FREE ENERGY PREDICTED BY IDOCK:   -0.17 KCAL/MOL
REMARK 927      BINDING AFFINITY PREDICTED BY RF-SCORE:    0.00 PKD
ROOT
HETATM    1  C   UNL     1      -5.815   8.219  70.749  1.00  0.00    -0.032 C  
HETATM    2  C   UNL     1      -6.281   6.783  70.591  1.00  0.00    -0.032 C  
ENDROOT
BRANCH   2   3
HETATM    3  O   UNL     1      -6.513   6.543  69.198  1.00  0.00    -0.037 OA 
BRANCH   3   4
HETATM    4  C   UNL     1      -6.781   5.258  68.862  1.00  0.00    -0.053 C  
HETATM    5  O   UNL     1      -6.194   4.266  69.264  1.00  0.00    -0.026 OA 
BRANCH   4   6
HETATM    6  C   UNL     1      -7.985   5.209  67.989  1.00  0.00    -0.091 A  
HETATM    7  C   UNL     1      -8.068   4.194  67.025  1.00  0.00    -0.100 A  
HETATM    8  C   UNL     1      -9.204   4.080  66.223  1.00  0.00    -0.160 A  
HETATM    9  C   UNL     1     -10.256   4.977  66.393  1.00  0.00    -0.273 A  
HETATM   10  O   UNL     1     -11.382   4.906  65.629  1.00  0.00    -0.897 OA 
HETATM   11  C   UNL     1     -10.193   5.977  67.352  1.00  0.00    -0.230 A  
HETATM   12  C   UNL     1      -9.056   6.099  68.151  1.00  0.00    -0.111 A  
HETATM   13  H   UNL     1     -12.100   5.517  65.745  1.00  0.00     0.000 HD 
ENDBRANCH   4   6
ENDBRANCH   3   4
ENDBRANCH   2   3
TORSDOF 3
ENDMDL
MODEL      219
REMARK 921   NORMALIZED FREE ENERGY PREDICTED BY IDOCK:   -1.67 KCAL/MOL
REMARK 922        TOTAL FREE ENERGY PREDICTED BY IDOCK:   -2.20 KCAL/MOL
REMARK 923 INTER-LIGAND FREE ENERGY PREDICTED BY IDOCK:   -1.97 KCAL/MOL
REMARK 924 INTRA-LIGAND FREE ENERGY PREDICTED BY IDOCK:   -0.23 KCAL/MOL
REMARK 927      BINDING AFFINITY PREDICTED BY RF-SCORE:    0.00 PKD
ROOT
HETATM    1  C   UNL     1      -9.908   3.981  64.312  1.00  0.00    -0.175 C  
HETATM    2  C   UNL     1     -10.308   4.521  65.673  1.00  0.00    -0.247 C  
ENDROOT
BRANCH   2   3
HETATM    3  O   UNL     1      -9.112   4.753  66.426  1.00  0.00    -0.114 OA 
BRANCH   3   4
HETATM    4  C   UNL     1      -8.804   6.054  66.651  1.00  0.00    -0.125 C  
HETATM    5  O   UNL     1      -8.141   6.777  65.925  1.00  0.00    -0.109 OA 
BRANCH   4   6
HETATM    6  C   UNL     1      -9.486   6.524  67.886  1.00  0.00    -0.120 A  
HETATM    7  C   UNL     1      -9.203   5.870  69.094  1.00  0.00    -0.131 A  
HETATM    8  C   UNL     1      -9.779   6.315  70.284  1.00  0.00    -0.189 A  
HETATM    9  C   UNL     1     -10.631   7.417  70.264  1.00  0.00    -0.231 A  
HETATM   10  O   UNL     1     -11.221   7.881  71.400  1.00  0.00    -0.240 OA 
HETATM   11  C   UNL     1     -10.910   8.081  69.078  1.00  0.00    -0.020 A  
HETATM   12  C   UNL     1     -10.341   7.635  67.885  1.00  0.00    -0.270 A  
HETATM   13  H   UNL     1     -11.802   8.632  71.386  1.00  0.00     0.000 HD 
ENDBRANCH   4   6
ENDBRANCH   3   4
ENDBRANCH   2   3
TORSDOF 3
ENDMDL
MODEL      220
REMARK 921   NORMALIZED FREE ENERGY PREDICTED BY IDOCK:   -1.67 KCAL/MOL
REMARK 922        TOTAL FREE ENERGY PREDICTED BY IDOCK:   -2.19 KCAL/MOL
REMARK 923 INTER-LIGAND FREE ENERGY PREDICTED BY IDOCK:   -2.10 KCAL/MOL
REMARK 924 INTRA-LIGAND FREE ENERGY PREDICTED BY IDOCK:   -0.09 KCAL/MOL
REMARK 927      BINDING AFFINITY PREDICTED BY RF-SCORE:    0.00 PKD
ROOT
HETATM    1  C   UNL     1      -6.471   5.061  68.727  1.00  0.00    -0.036 C  
HETATM    2  C   UNL     1      -7.098   5.878  69.842  1.00  0.00    -0.068 C  
ENDROOT
BRANCH   2   3
HETATM    3  O   UNL     1      -8.302   5.219  70.252  1.00  0.00    -0.102 OA 
BRANCH   3   4
HETATM    4  C   UNL     1      -9.084   5.912  71.114  1.00  0.00    -0.143 C  
HETATM    5  O   UNL     1      -9.189   5.716  72.314  1.00  0.00    -0.145 OA 
BRANCH   4   6
HETATM    6  C   UNL     1      -9.741   7.039  70.400  1.00  0.00    -0.178 A  
HETATM    7  C   UNL     1      -9.829   8.279  71.051  1.00  0.00    -0.225 A  
HETATM    8  C   UNL     1     -10.389   9.376  70.396  1.00  0.00    -0.318 A  
HETATM    9  C   UNL     1     -10.852   9.233  69.090  1.00  0.00    -0.133 A  
HETATM   10  O   UNL     1     -11.411  10.275  68.415  1.00  0.00    -0.488 OA 
HETATM   11  C   UNL     1     -10.760   8.016  68.430  1.00  0.00    -0.070 A  
HETATM   12  C   UNL     1     -10.207   6.914  69.084  1.00  0.00    -0.196 A  
HETATM   13  H   UNL     1     -11.728  10.178  67.525  1.00  0.00     0.000 HD 
ENDBRANCH   4   6
ENDBRANCH   3   4
ENDBRANCH   2   3
TORSDOF 3
ENDMDL
MODEL      221
REMARK 921   NORMALIZED FREE ENERGY PREDICTED BY IDOCK:   -1.64 KCAL/MOL
REMARK 922        TOTAL FREE ENERGY PREDICTED BY IDOCK:   -2.16 KCAL/MOL
REMARK 923 INTER-LIGAND FREE ENERGY PREDICTED BY IDOCK:   -2.01 KCAL/MOL
REMARK 924 INTRA-LIGAND FREE ENERGY PREDICTED BY IDOCK:   -0.15 KCAL/MOL
REMARK 927      BINDING AFFINITY PREDICTED BY RF-SCORE:    0.00 PKD
ROOT
HETATM    1  C   UNL     1     -10.811   5.814  66.457  1.00  0.00    -0.227 C  
HETATM    2  C   UNL     1     -10.798   7.170  67.139  1.00  0.00    -0.333 C  
ENDROOT
BRANCH   2   3
HETATM    3  O   UNL     1      -9.444   7.475  67.493  1.00  0.00    -0.135 OA 
BRANCH   3   4
HETATM    4  C   UNL     1      -9.273   8.582  68.255  1.00  0.00    -0.138 C  
HETATM    5  O   UNL     1      -9.805   8.812  69.329  1.00  0.00    -0.173 OA 
BRANCH   4   6
HETATM    6  C   UNL     1      -8.242   9.460  67.639  1.00  0.00    -0.114 A  
HETATM    7  C   UNL     1      -6.955   8.940  67.442  1.00  0.00    -0.075 A  
HETATM    8  C   UNL     1      -5.974   9.713  66.819  1.00  0.00    -0.059 A  
HETATM    9  C   UNL     1      -6.286  11.000  66.387  1.00  0.00    -0.133 A  
HETATM   10  O   UNL     1      -5.359  11.791  65.779  1.00  0.00    -0.461 OA 
HETATM   11  C   UNL     1      -7.559  11.522  66.564  1.00  0.00    -0.036 A  
HETATM   12  C   UNL     1      -8.541  10.756  67.193  1.00  0.00    -0.128 A  
HETATM   13  H   UNL     1      -5.572  12.669  65.485  1.00  0.00     0.000 HD 
ENDBRANCH   4   6
ENDBRANCH   3   4
ENDBRANCH   2   3
TORSDOF 3
ENDMDL
MODEL      222
REMARK 921   NORMALIZED FREE ENERGY PREDICTED BY IDOCK:   -1.64 KCAL/MOL
REMARK 922        TOTAL FREE ENERGY PREDICTED BY IDOCK:   -2.16 KCAL/MOL
REMARK 923 INTER-LIGAND FREE ENERGY PREDICTED BY IDOCK:   -2.02 KCAL/MOL
REMARK 924 INTRA-LIGAND FREE ENERGY PREDICTED BY IDOCK:   -0.14 KCAL/MOL
REMARK 927      BINDING AFFINITY PREDICTED BY RF-SCORE:    0.00 PKD
ROOT
HETATM    1  C   UNL     1     -10.339   4.372  65.544  1.00  0.00    -0.247 C  
HETATM    2  C   UNL     1      -9.463   4.026  66.734  1.00  0.00    -0.199 C  
ENDROOT
BRANCH   2   3
HETATM    3  O   UNL     1      -9.703   4.998  67.759  1.00  0.00    -0.140 OA 
BRANCH   3   4
HETATM    4  C   UNL     1      -9.560   4.555  69.031  1.00  0.00    -0.175 C  
HETATM    5  O   UNL     1      -9.725   3.411  69.423  1.00  0.00    -0.133 OA 
BRANCH   4   6
HETATM    6  C   UNL     1      -9.063   5.661  69.894  1.00  0.00    -0.155 A  
HETATM    7  C   UNL     1      -9.918   6.171  70.881  1.00  0.00    -0.223 A  
HETATM    8  C   UNL     1      -9.473   7.171  71.747  1.00  0.00    -0.160 A  
HETATM    9  C   UNL     1      -8.171   7.652  71.626  1.00  0.00    -0.107 A  
HETATM   10  O   UNL     1      -7.695   8.631  72.445  1.00  0.00    -0.305 OA 
HETATM   11  C   UNL     1      -7.311   7.148  70.662  1.00  0.00    -0.075 A  
HETATM   12  C   UNL     1      -7.754   6.152  69.790  1.00  0.00    -0.097 A  
HETATM   13  H   UNL     1      -6.808   8.959  72.363  1.00  0.00     0.000 HD 
ENDBRANCH   4   6
ENDBRANCH   3   4
ENDBRANCH   2   3
TORSDOF 3
ENDMDL
MODEL      223
REMARK 921   NORMALIZED FREE ENERGY PREDICTED BY IDOCK:   -1.61 KCAL/MOL
REMARK 922        TOTAL FREE ENERGY PREDICTED BY IDOCK:   -2.13 KCAL/MOL
REMARK 923 INTER-LIGAND FREE ENERGY PREDICTED BY IDOCK:   -2.66 KCAL/MOL
REMARK 924 INTRA-LIGAND FREE ENERGY PREDICTED BY IDOCK:    0.54 KCAL/MOL
REMARK 927      BINDING AFFINITY PREDICTED BY RF-SCORE:    0.00 PKD
ROOT
HETATM    1  C   UNL     1      -9.302  11.137  68.802  1.00  0.00    -0.156 C  
HETATM    2  C   UNL     1      -8.402  10.212  68.003  1.00  0.00    -0.117 C  
ENDROOT
BRANCH   2   3
HETATM    3  O   UNL     1      -8.912   8.879  68.129  1.00  0.00    -0.137 OA 
BRANCH   3   4
HETATM    4  C   UNL     1      -8.740   8.082  67.047  1.00  0.00    -0.128 C  
HETATM    5  O   UNL     1      -8.509   6.884  67.060  1.00  0.00    -0.119 OA 
BRANCH   4   6
HETATM    6  C   UNL     1      -8.977   8.865  65.804  1.00  0.00    -0.249 A  
HETATM    7  C   UNL     1     -10.101   9.701  65.748  1.00  0.00    -0.274 A  
HETATM    8  C   UNL     1     -10.330  10.493  64.622  1.00  0.00    -0.290 A  
HETATM    9  C   UNL     1      -9.431  10.451  63.560  1.00  0.00    -0.312 A  
HETATM   10  O   UNL     1      -9.618  11.202  62.439  1.00  0.00    -0.560 OA 
HETATM   11  C   UNL     1      -8.308   9.637  63.607  1.00  0.00    -0.172 A  
HETATM   12  C   UNL     1      -8.078   8.839  64.728  1.00  0.00    -0.151 A  
HETATM   13  H   UNL     1      -9.005  11.173  61.714  1.00  0.00     0.000 HD 
ENDBRANCH   4   6
ENDBRANCH   3   4
ENDBRANCH   2   3
TORSDOF 3
ENDMDL
MODEL      224
REMARK 921   NORMALIZED FREE ENERGY PREDICTED BY IDOCK:   -1.59 KCAL/MOL
REMARK 922        TOTAL FREE ENERGY PREDICTED BY IDOCK:   -2.10 KCAL/MOL
REMARK 923 INTER-LIGAND FREE ENERGY PREDICTED BY IDOCK:   -1.82 KCAL/MOL
REMARK 924 INTRA-LIGAND FREE ENERGY PREDICTED BY IDOCK:   -0.29 KCAL/MOL
REMARK 927      BINDING AFFINITY PREDICTED BY RF-SCORE:    0.00 PKD
ROOT
HETATM    1  C   UNL     1     -11.339   6.508  69.533  1.00  0.00    -0.419 C  
HETATM    2  C   UNL     1     -11.115   7.744  70.385  1.00  0.00    -0.251 C  
ENDROOT
BRANCH   2   3
HETATM    3  O   UNL     1      -9.902   7.560  71.124  1.00  0.00    -0.174 OA 
BRANCH   3   4
HETATM    4  C   UNL     1      -9.007   8.573  71.042  1.00  0.00    -0.179 C  
HETATM    5  O   UNL     1      -8.715   9.356  71.932  1.00  0.00    -0.160 OA 
BRANCH   4   6
HETATM    6  C   UNL     1      -8.334   8.542  69.716  1.00  0.00    -0.124 A  
HETATM    7  C   UNL     1      -8.391   9.690  68.912  1.00  0.00    -0.116 A  
HETATM    8  C   UNL     1      -7.728   9.721  67.685  1.00  0.00    -0.094 A  
HETATM    9  C   UNL     1      -7.004   8.606  67.269  1.00  0.00    -0.075 A  
HETATM   10  O   UNL     1      -6.346   8.590  66.076  1.00  0.00    -0.052 OA 
HETATM   11  C   UNL     1      -6.928   7.469  68.059  1.00  0.00    -0.072 A  
HETATM   12  C   UNL     1      -7.595   7.431  69.284  1.00  0.00    -0.101 A  
HETATM   13  H   UNL     1      -5.852   7.830  65.792  1.00  0.00     0.000 HD 
ENDBRANCH   4   6
ENDBRANCH   3   4
ENDBRANCH   2   3
TORSDOF 3
ENDMDL
MODEL      225
REMARK 921   NORMALIZED FREE ENERGY PREDICTED BY IDOCK:   -1.58 KCAL/MOL
REMARK 922        TOTAL FREE ENERGY PREDICTED BY IDOCK:   -2.09 KCAL/MOL
REMARK 923 INTER-LIGAND FREE ENERGY PREDICTED BY IDOCK:   -1.93 KCAL/MOL
REMARK 924 INTRA-LIGAND FREE ENERGY PREDICTED BY IDOCK:   -0.16 KCAL/MOL
REMARK 927      BINDING AFFINITY PREDICTED BY RF-SCORE:    0.00 PKD
ROOT
HETATM    1  C   UNL     1      -7.604   5.807  65.802  1.00  0.00    -0.090 C  
HETATM    2  C   UNL     1      -8.464   7.056  65.852  1.00  0.00    -0.147 C  
ENDROOT
BRANCH   2   3
HETATM    3  O   UNL     1      -7.635   8.149  66.264  1.00  0.00    -0.087 OA 
BRANCH   3   4
HETATM    4  C   UNL     1      -8.289   9.284  66.609  1.00  0.00    -0.122 C  
HETATM    5  O   UNL     1      -8.423  10.281  65.918  1.00  0.00    -0.139 OA 
BRANCH   4   6
HETATM    6  C   UNL     1      -8.928   9.110  67.941  1.00  0.00    -0.131 A  
HETATM    7  C   UNL     1      -8.168   8.548  68.976  1.00  0.00    -0.116 A  
HETATM    8  C   UNL     1      -8.712   8.417  70.254  1.00  0.00    -0.140 A  
HETATM    9  C   UNL     1     -10.012   8.856  70.494  1.00  0.00    -0.201 A  
HETATM   10  O   UNL     1     -10.585   8.743  71.725  1.00  0.00    -0.292 OA 
HETATM   11  C   UNL     1     -10.771   9.425  69.483  1.00  0.00    -0.238 A  
HETATM   12  C   UNL     1     -10.233   9.552  68.201  1.00  0.00    -0.231 A  
HETATM   13  H   UNL     1     -11.472   9.041  71.889  1.00  0.00     0.000 HD 
ENDBRANCH   4   6
ENDBRANCH   3   4
ENDBRANCH   2   3
TORSDOF 3
ENDMDL
MODEL      226
REMARK 921   NORMALIZED FREE ENERGY PREDICTED BY IDOCK:   -1.56 KCAL/MOL
REMARK 922        TOTAL FREE ENERGY PREDICTED BY IDOCK:   -2.07 KCAL/MOL
REMARK 923 INTER-LIGAND FREE ENERGY PREDICTED BY IDOCK:   -1.89 KCAL/MOL
REMARK 924 INTRA-LIGAND FREE ENERGY PREDICTED BY IDOCK:   -0.17 KCAL/MOL
REMARK 927      BINDING AFFINITY PREDICTED BY RF-SCORE:    0.00 PKD
ROOT
HETATM    1  C   UNL     1      -9.225   1.811  70.477  1.00  0.00    -0.166 C  
HETATM    2  C   UNL     1      -8.748   1.862  71.917  1.00  0.00    -0.060 C  
ENDROOT
BRANCH   2   3
HETATM    3  O   UNL     1      -8.556   3.237  72.271  1.00  0.00    -0.081 OA 
BRANCH   3   4
HETATM    4  C   UNL     1      -9.359   3.705  73.258  1.00  0.00    -0.101 C  
HETATM    5  O   UNL     1     -10.240   3.085  73.830  1.00  0.00    -0.111 OA 
BRANCH   4   6
HETATM    6  C   UNL     1      -8.943   5.084  73.630  1.00  0.00    -0.117 A  
HETATM    7  C   UNL     1      -7.578   5.338  73.828  1.00  0.00    -0.098 A  
HETATM    8  C   UNL     1      -7.141   6.629  74.126  1.00  0.00    -0.090 A  
HETATM    9  C   UNL     1      -8.070   7.663  74.217  1.00  0.00    -0.206 A  
HETATM   10  O   UNL     1      -7.689   8.938  74.510  1.00  0.00    -0.403 OA 
HETATM   11  C   UNL     1      -9.421   7.429  74.011  1.00  0.00    -0.264 A  
HETATM   12  C   UNL     1      -9.863   6.138  73.719  1.00  0.00    -0.198 A  
HETATM   13  H   UNL     1      -8.321   9.643  74.573  1.00  0.00     0.000 HD 
ENDBRANCH   4   6
ENDBRANCH   3   4
ENDBRANCH   2   3
TORSDOF 3
ENDMDL
MODEL      227
REMARK 921   NORMALIZED FREE ENERGY PREDICTED BY IDOCK:   -1.54 KCAL/MOL
REMARK 922        TOTAL FREE ENERGY PREDICTED BY IDOCK:   -2.04 KCAL/MOL
REMARK 923 INTER-LIGAND FREE ENERGY PREDICTED BY IDOCK:   -1.76 KCAL/MOL
REMARK 924 INTRA-LIGAND FREE ENERGY PREDICTED BY IDOCK:   -0.28 KCAL/MOL
REMARK 927      BINDING AFFINITY PREDICTED BY RF-SCORE:    0.00 PKD
ROOT
HETATM    1  C   UNL     1      -6.886   8.981  71.512  1.00  0.00    -0.050 C  
HETATM    2  C   UNL     1      -7.200   7.896  70.498  1.00  0.00    -0.053 C  
ENDROOT
BRANCH   2   3
HETATM    3  O   UNL     1      -7.209   8.493  69.197  1.00  0.00    -0.065 OA 
BRANCH   3   4
HETATM    4  C   UNL     1      -8.431   8.812  68.707  1.00  0.00    -0.129 C  
HETATM    5  O   UNL     1      -9.446   8.140  68.796  1.00  0.00    -0.147 OA 
BRANCH   4   6
HETATM    6  C   UNL     1      -8.394  10.177  68.117  1.00  0.00    -0.117 A  
HETATM    7  C   UNL     1      -9.236  10.458  67.032  1.00  0.00    -0.165 A  
HETATM    8  C   UNL     1      -9.271  11.740  66.484  1.00  0.00    -0.206 A  
HETATM    9  C   UNL     1      -8.469  12.740  67.028  1.00  0.00    -0.153 A  
HETATM   10  O   UNL     1      -8.466  14.005  66.522  1.00  0.00    -0.422 OA 
HETATM   11  C   UNL     1      -7.640  12.481  68.110  1.00  0.00    -0.127 A  
HETATM   12  C   UNL     1      -7.598  11.198  68.657  1.00  0.00    -0.127 A  
HETATM   13  H   UNL     1      -7.919  14.687  66.893  1.00  0.00     0.000 HD 
ENDBRANCH   4   6
ENDBRANCH   3   4
ENDBRANCH   2   3
TORSDOF 3
ENDMDL
MODEL      228
REMARK 921   NORMALIZED FREE ENERGY PREDICTED BY IDOCK:   -1.53 KCAL/MOL
REMARK 922        TOTAL FREE ENERGY PREDICTED BY IDOCK:   -2.03 KCAL/MOL
REMARK 923 INTER-LIGAND FREE ENERGY PREDICTED BY IDOCK:   -1.83 KCAL/MOL
REMARK 924 INTRA-LIGAND FREE ENERGY PREDICTED BY IDOCK:   -0.20 KCAL/MOL
REMARK 927      BINDING AFFINITY PREDICTED BY RF-SCORE:    0.00 PKD
ROOT
HETATM    1  C   UNL     1      -8.232   2.708  66.910  1.00  0.00    -0.083 C  
HETATM    2  C   UNL     1      -8.111   3.737  68.020  1.00  0.00    -0.083 C  
ENDROOT
BRANCH   2   3
HETATM    3  O   UNL     1      -9.222   3.564  68.907  1.00  0.00    -0.136 OA 
BRANCH   3   4
HETATM    4  C   UNL     1      -8.905   3.284  70.195  1.00  0.00    -0.086 C  
HETATM    5  O   UNL     1      -8.449   2.234  70.616  1.00  0.00    -0.048 OA 
BRANCH   4   6
HETATM    6  C   UNL     1      -9.100   4.497  71.034  1.00  0.00    -0.185 A  
HETATM    7  C   UNL     1     -10.328   5.169  70.959  1.00  0.00    -0.278 A  
HETATM    8  C   UNL     1     -10.570   6.279  71.770  1.00  0.00    -0.266 A  
HETATM    9  C   UNL     1      -9.586   6.708  72.657  1.00  0.00    -0.146 A  
HETATM   10  O   UNL     1      -9.777   7.790  73.463  1.00  0.00    -0.291 OA 
HETATM   11  C   UNL     1      -8.371   6.045  72.750  1.00  0.00    -0.118 A  
HETATM   12  C   UNL     1      -8.122   4.939  71.937  1.00  0.00    -0.114 A  
HETATM   13  H   UNL     1      -9.106   8.083  74.068  1.00  0.00     0.000 HD 
ENDBRANCH   4   6
ENDBRANCH   3   4
ENDBRANCH   2   3
TORSDOF 3
ENDMDL
MODEL      229
REMARK 921   NORMALIZED FREE ENERGY PREDICTED BY IDOCK:   -1.48 KCAL/MOL
REMARK 922        TOTAL FREE ENERGY PREDICTED BY IDOCK:   -1.97 KCAL/MOL
REMARK 923 INTER-LIGAND FREE ENERGY PREDICTED BY IDOCK:   -1.77 KCAL/MOL
REMARK 924 INTRA-LIGAND FREE ENERGY PREDICTED BY IDOCK:   -0.20 KCAL/MOL
REMARK 927      BINDING AFFINITY PREDICTED BY RF-SCORE:    0.00 PKD
ROOT
HETATM    1  C   UNL     1     -10.946   5.609  67.050  1.00  0.00    -0.135 C  
HETATM    2  C   UNL     1     -10.481   7.011  67.401  1.00  0.00    -0.273 C  
ENDROOT
BRANCH   2   3
HETATM    3  O   UNL     1      -9.601   7.459  66.363  1.00  0.00    -0.176 OA 
BRANCH   3   4
HETATM    4  C   UNL     1      -8.287   7.504  66.687  1.00  0.00    -0.127 C  
HETATM    5  O   UNL     1      -7.543   6.547  66.831  1.00  0.00    -0.092 OA 
BRANCH   4   6
HETATM    6  C   UNL     1      -7.833   8.920  66.747  1.00  0.00    -0.097 A  
HETATM    7  C   UNL     1      -8.509   9.869  65.968  1.00  0.00    -0.135 A  
HETATM    8  C   UNL     1      -8.151  11.216  66.036  1.00  0.00    -0.064 A  
HETATM    9  C   UNL     1      -7.122  11.609  66.888  1.00  0.00    -0.124 A  
HETATM   10  O   UNL     1      -6.734  12.912  66.982  1.00  0.00    -0.418 OA 
HETATM   11  C   UNL     1      -6.452  10.682  67.674  1.00  0.00    -0.057 A  
HETATM   12  C   UNL     1      -6.804   9.334  67.604  1.00  0.00    -0.076 A  
HETATM   13  H   UNL     1      -6.032  13.180  67.563  1.00  0.00     0.000 HD 
ENDBRANCH   4   6
ENDBRANCH   3   4
ENDBRANCH   2   3
TORSDOF 3
ENDMDL
MODEL      230
REMARK 921   NORMALIZED FREE ENERGY PREDICTED BY IDOCK:   -1.44 KCAL/MOL
REMARK 922        TOTAL FREE ENERGY PREDICTED BY IDOCK:   -1.93 KCAL/MOL
REMARK 923 INTER-LIGAND FREE ENERGY PREDICTED BY IDOCK:   -1.73 KCAL/MOL
REMARK 924 INTRA-LIGAND FREE ENERGY PREDICTED BY IDOCK:   -0.20 KCAL/MOL
REMARK 927      BINDING AFFINITY PREDICTED BY RF-SCORE:    0.00 PKD
ROOT
HETATM    1  C   UNL     1     -11.228   6.049  69.914  1.00  0.00    -0.438 C  
HETATM    2  C   UNL     1     -10.840   7.508  69.758  1.00  0.00    -0.225 C  
ENDROOT
BRANCH   2   3
HETATM    3  O   UNL     1      -9.462   7.562  69.373  1.00  0.00    -0.156 OA 
BRANCH   3   4
HETATM    4  C   UNL     1      -9.162   8.444  68.388  1.00  0.00    -0.135 C  
HETATM    5  O   UNL     1      -9.452   9.629  68.364  1.00  0.00    -0.136 OA 
BRANCH   4   6
HETATM    6  C   UNL     1      -8.321   7.777  67.358  1.00  0.00    -0.123 A  
HETATM    7  C   UNL     1      -8.959   7.176  66.264  1.00  0.00    -0.181 A  
HETATM    8  C   UNL     1      -8.204   6.587  65.248  1.00  0.00    -0.135 A  
HETATM    9  C   UNL     1      -6.814   6.609  65.327  1.00  0.00    -0.054 A  
HETATM   10  O   UNL     1      -6.037   6.042  64.362  1.00  0.00    -0.025 OA 
HETATM   11  C   UNL     1      -6.169   7.212  66.397  1.00  0.00    -0.040 A  
HETATM   12  C   UNL     1      -6.920   7.796  67.418  1.00  0.00    -0.078 A  
HETATM   13  H   UNL     1      -5.089   6.057  64.415  1.00  0.00     0.000 HD 
ENDBRANCH   4   6
ENDBRANCH   3   4
ENDBRANCH   2   3
TORSDOF 3
ENDMDL
MODEL      231
REMARK 921   NORMALIZED FREE ENERGY PREDICTED BY IDOCK:   -1.34 KCAL/MOL
REMARK 922        TOTAL FREE ENERGY PREDICTED BY IDOCK:   -1.81 KCAL/MOL
REMARK 923 INTER-LIGAND FREE ENERGY PREDICTED BY IDOCK:   -1.53 KCAL/MOL
REMARK 924 INTRA-LIGAND FREE ENERGY PREDICTED BY IDOCK:   -0.28 KCAL/MOL
REMARK 927      BINDING AFFINITY PREDICTED BY RF-SCORE:    0.00 PKD
ROOT
HETATM    1  C   UNL     1      -6.322   9.329  70.351  1.00  0.00    -0.060 C  
HETATM    2  C   UNL     1      -6.994   8.952  69.043  1.00  0.00    -0.064 C  
ENDROOT
BRANCH   2   3
HETATM    3  O   UNL     1      -7.163  10.146  68.271  1.00  0.00    -0.078 OA 
BRANCH   3   4
HETATM    4  C   UNL     1      -8.383  10.730  68.353  1.00  0.00    -0.132 C  
HETATM    5  O   UNL     1      -9.443  10.165  68.573  1.00  0.00    -0.150 OA 
BRANCH   4   6
HETATM    6  C   UNL     1      -8.242  12.206  68.237  1.00  0.00    -0.168 A  
HETATM    7  C   UNL     1      -9.334  12.944  67.757  1.00  0.00    -0.203 A  
HETATM    8  C   UNL     1      -9.262  14.335  67.683  1.00  0.00    -0.194 A  
HETATM    9  C   UNL     1      -8.101  14.985  68.096  1.00  0.00    -0.131 A  
HETATM   10  O   UNL     1      -7.984  16.341  68.036  1.00  0.00    -0.143 OA 
HETATM   11  C   UNL     1      -7.018  14.268  68.584  1.00  0.00    -0.105 A  
HETATM   12  C   UNL     1      -7.084  12.876  68.654  1.00  0.00    -0.103 A  
HETATM   13  H   UNL     1      -7.193  16.784  68.318  1.00  0.00     0.000 HD 
ENDBRANCH   4   6
ENDBRANCH   3   4
ENDBRANCH   2   3
TORSDOF 3
ENDMDL
MODEL      232
REMARK 921   NORMALIZED FREE ENERGY PREDICTED BY IDOCK:   -1.31 KCAL/MOL
REMARK 922        TOTAL FREE ENERGY PREDICTED BY IDOCK:   -1.78 KCAL/MOL
REMARK 923 INTER-LIGAND FREE ENERGY PREDICTED BY IDOCK:   -1.59 KCAL/MOL
REMARK 924 INTRA-LIGAND FREE ENERGY PREDICTED BY IDOCK:   -0.19 KCAL/MOL
REMARK 927      BINDING AFFINITY PREDICTED BY RF-SCORE:    0.00 PKD
ROOT
HETATM    1  C   UNL     1      -6.254   4.297  68.738  1.00  0.00    -0.032 C  
HETATM    2  C   UNL     1      -7.275   4.232  69.859  1.00  0.00    -0.046 C  
ENDROOT
BRANCH   2   3
HETATM    3  O   UNL     1      -8.548   4.607  69.321  1.00  0.00    -0.081 OA 
BRANCH   3   4
HETATM    4  C   UNL     1      -8.732   5.934  69.121  1.00  0.00    -0.118 C  
HETATM    5  O   UNL     1      -8.972   6.481  68.057  1.00  0.00    -0.118 OA 
BRANCH   4   6
HETATM    6  C   UNL     1      -8.703   6.646  70.427  1.00  0.00    -0.151 A  
HETATM    7  C   UNL     1      -7.685   7.585  70.651  1.00  0.00    -0.090 A  
HETATM    8  C   UNL     1      -7.653   8.313  71.841  1.00  0.00    -0.132 A  
HETATM    9  C   UNL     1      -8.642   8.106  72.799  1.00  0.00    -0.206 A  
HETATM   10  O   UNL     1      -8.646   8.791  73.977  1.00  0.00    -0.241 OA 
HETATM   11  C   UNL     1      -9.661   7.190  72.586  1.00  0.00    -0.186 A  
HETATM   12  C   UNL     1      -9.694   6.455  71.400  1.00  0.00    -0.187 A  
HETATM   13  H   UNL     1      -9.321   8.649  74.631  1.00  0.00     0.000 HD 
ENDBRANCH   4   6
ENDBRANCH   3   4
ENDBRANCH   2   3
TORSDOF 3
ENDMDL
MODEL      233
REMARK 921   NORMALIZED FREE ENERGY PREDICTED BY IDOCK:   -1.31 KCAL/MOL
REMARK 922        TOTAL FREE ENERGY PREDICTED BY IDOCK:   -1.77 KCAL/MOL
REMARK 923 INTER-LIGAND FREE ENERGY PREDICTED BY IDOCK:   -1.65 KCAL/MOL
REMARK 924 INTRA-LIGAND FREE ENERGY PREDICTED BY IDOCK:   -0.12 KCAL/MOL
REMARK 927      BINDING AFFINITY PREDICTED BY RF-SCORE:    0.00 PKD
ROOT
HETATM    1  C   UNL     1      -8.352   9.054  70.666  1.00  0.00    -0.214 C  
HETATM    2  C   UNL     1      -8.778   7.606  70.509  1.00  0.00    -0.138 C  
ENDROOT
BRANCH   2   3
HETATM    3  O   UNL     1      -9.608   7.511  69.345  1.00  0.00    -0.156 OA 
BRANCH   3   4
HETATM    4  C   UNL     1      -9.916   6.254  68.946  1.00  0.00    -0.153 C  
HETATM    5  O   UNL     1     -10.823   5.559  69.375  1.00  0.00    -0.298 OA 
BRANCH   4   6
HETATM    6  C   UNL     1      -9.039   5.859  67.811  1.00  0.00    -0.109 A  
HETATM    7  C   UNL     1      -7.840   5.191  68.097  1.00  0.00    -0.087 A  
HETATM    8  C   UNL     1      -7.015   4.756  67.059  1.00  0.00    -0.057 A  
HETATM    9  C   UNL     1      -7.396   4.984  65.739  1.00  0.00    -0.077 A  
HETATM   10  O   UNL     1      -6.619   4.582  64.694  1.00  0.00    -0.041 OA 
HETATM   11  C   UNL     1      -8.585   5.633  65.441  1.00  0.00    -0.150 A  
HETATM   12  C   UNL     1      -9.410   6.075  66.476  1.00  0.00    -0.166 A  
HETATM   13  H   UNL     1      -6.878   4.738  63.794  1.00  0.00     0.000 HD 
ENDBRANCH   4   6
ENDBRANCH   3   4
ENDBRANCH   2   3
TORSDOF 3
ENDMDL
MODEL      234
REMARK 921   NORMALIZED FREE ENERGY PREDICTED BY IDOCK:   -1.28 KCAL/MOL
REMARK 922        TOTAL FREE ENERGY PREDICTED BY IDOCK:   -1.74 KCAL/MOL
REMARK 923 INTER-LIGAND FREE ENERGY PREDICTED BY IDOCK:   -1.51 KCAL/MOL
REMARK 924 INTRA-LIGAND FREE ENERGY PREDICTED BY IDOCK:   -0.23 KCAL/MOL
REMARK 927      BINDING AFFINITY PREDICTED BY RF-SCORE:    0.00 PKD
ROOT
HETATM    1  C   UNL     1     -11.410   6.119  68.478  1.00  0.00    -0.055 C  
HETATM    2  C   UNL     1     -10.227   7.042  68.250  1.00  0.00    -0.182 C  
ENDROOT
BRANCH   2   3
HETATM    3  O   UNL     1      -9.042   6.358  68.674  1.00  0.00    -0.128 OA 
BRANCH   3   4
HETATM    4  C   UNL     1      -8.106   6.159  67.715  1.00  0.00    -0.113 C  
HETATM    5  O   UNL     1      -7.014   6.701  67.644  1.00  0.00    -0.077 OA 
BRANCH   4   6
HETATM    6  C   UNL     1      -8.557   5.086  66.789  1.00  0.00    -0.109 A  
HETATM    7  C   UNL     1      -8.680   5.390  65.425  1.00  0.00    -0.154 A  
HETATM    8  C   UNL     1      -9.048   4.398  64.516  1.00  0.00    -0.152 A  
HETATM    9  C   UNL     1      -9.285   3.104  64.971  1.00  0.00    -0.149 A  
HETATM   10  O   UNL     1      -9.652   2.106  64.120  1.00  0.00    -0.132 OA 
HETATM   11  C   UNL     1      -9.155   2.785  66.315  1.00  0.00    -0.128 A  
HETATM   12  C   UNL     1      -8.793   3.776  67.229  1.00  0.00    -0.137 A  
HETATM   13  H   UNL     1      -9.814   1.223  64.430  1.00  0.00     0.000 HD 
ENDBRANCH   4   6
ENDBRANCH   3   4
ENDBRANCH   2   3
TORSDOF 3
ENDMDL
MODEL      235
REMARK 921   NORMALIZED FREE ENERGY PREDICTED BY IDOCK:   -1.28 KCAL/MOL
REMARK 922        TOTAL FREE ENERGY PREDICTED BY IDOCK:   -1.74 KCAL/MOL
REMARK 923 INTER-LIGAND FREE ENERGY PREDICTED BY IDOCK:   -1.52 KCAL/MOL
REMARK 924 INTRA-LIGAND FREE ENERGY PREDICTED BY IDOCK:   -0.22 KCAL/MOL
REMARK 927      BINDING AFFINITY PREDICTED BY RF-SCORE:    0.00 PKD
ROOT
HETATM    1  C   UNL     1      -7.878   5.946  66.996  1.00  0.00    -0.102 C  
HETATM    2  C   UNL     1      -9.059   6.800  67.422  1.00  0.00    -0.117 C  
ENDROOT
BRANCH   2   3
HETATM    3  O   UNL     1      -8.748   7.385  68.692  1.00  0.00    -0.128 OA 
BRANCH   3   4
HETATM    4  C   UNL     1      -9.475   8.478  69.027  1.00  0.00    -0.150 C  
HETATM    5  O   UNL     1     -10.611   8.484  69.471  1.00  0.00    -0.224 OA 
BRANCH   4   6
HETATM    6  C   UNL     1      -8.642   9.701  68.871  1.00  0.00    -0.127 A  
HETATM    7  C   UNL     1      -9.242  10.853  68.343  1.00  0.00    -0.168 A  
HETATM    8  C   UNL     1      -8.511  12.037  68.231  1.00  0.00    -0.167 A  
HETATM    9  C   UNL     1      -7.185  12.066  68.654  1.00  0.00    -0.110 A  
HETATM   10  O   UNL     1      -6.432  13.197  68.558  1.00  0.00    -0.072 OA 
HETATM   11  C   UNL     1      -6.582  10.937  69.190  1.00  0.00    -0.069 A  
HETATM   12  C   UNL     1      -7.308   9.750  69.298  1.00  0.00    -0.082 A  
HETATM   13  H   UNL     1      -5.527  13.217  68.847  1.00  0.00     0.000 HD 
ENDBRANCH   4   6
ENDBRANCH   3   4
ENDBRANCH   2   3
TORSDOF 3
ENDMDL
MODEL      236
REMARK 921   NORMALIZED FREE ENERGY PREDICTED BY IDOCK:   -1.24 KCAL/MOL
REMARK 922        TOTAL FREE ENERGY PREDICTED BY IDOCK:   -1.69 KCAL/MOL
REMARK 923 INTER-LIGAND FREE ENERGY PREDICTED BY IDOCK:   -2.07 KCAL/MOL
REMARK 924 INTRA-LIGAND FREE ENERGY PREDICTED BY IDOCK:    0.37 KCAL/MOL
REMARK 927      BINDING AFFINITY PREDICTED BY RF-SCORE:    0.00 PKD
ROOT
HETATM    1  C   UNL     1     -12.034  10.731  68.549  1.00  0.00    -0.057 C  
HETATM    2  C   UNL     1     -11.663  11.705  69.652  1.00  0.00    -0.350 C  
ENDROOT
BRANCH   2   3
HETATM    3  O   UNL     1     -10.382  11.325  70.167  1.00  0.00     0.517 OA 
BRANCH   3   4
HETATM    4  C   UNL     1      -9.802  10.258  69.567  1.00  0.00    -0.220 C  
HETATM    5  O   UNL     1      -9.111  10.278  68.561  1.00  0.00    -0.128 OA 
BRANCH   4   6
HETATM    6  C   UNL     1     -10.045   9.034  70.378  1.00  0.00    -0.248 A  
HETATM    7  C   UNL     1     -10.260   9.180  71.756  1.00  0.00    -0.305 A  
HETATM    8  C   UNL     1     -10.545   8.064  72.543  1.00  0.00    -0.397 A  
HETATM    9  C   UNL     1     -10.620   6.807  71.948  1.00  0.00    -0.209 A  
HETATM   10  O   UNL     1     -10.890   5.689  72.679  1.00  0.00    -0.225 OA 
HETATM   11  C   UNL     1     -10.423   6.649  70.584  1.00  0.00    -0.253 A  
HETATM   12  C   UNL     1     -10.131   7.762  69.794  1.00  0.00    -0.194 A  
HETATM   13  H   UNL     1     -10.942   4.831  72.274  1.00  0.00     0.000 HD 
ENDBRANCH   4   6
ENDBRANCH   3   4
ENDBRANCH   2   3
TORSDOF 3
ENDMDL
MODEL      237
REMARK 921   NORMALIZED FREE ENERGY PREDICTED BY IDOCK:   -1.22 KCAL/MOL
REMARK 922        TOTAL FREE ENERGY PREDICTED BY IDOCK:   -1.67 KCAL/MOL
REMARK 923 INTER-LIGAND FREE ENERGY PREDICTED BY IDOCK:   -1.46 KCAL/MOL
REMARK 924 INTRA-LIGAND FREE ENERGY PREDICTED BY IDOCK:   -0.21 KCAL/MOL
REMARK 927      BINDING AFFINITY PREDICTED BY RF-SCORE:    0.00 PKD
ROOT
HETATM    1  C   UNL     1      -5.883   4.506  67.049  1.00  0.00    -0.023 C  
HETATM    2  C   UNL     1      -5.594   5.806  67.778  1.00  0.00    -0.012 C  
ENDROOT
BRANCH   2   3
HETATM    3  O   UNL     1      -6.329   5.798  69.007  1.00  0.00    -0.036 OA 
BRANCH   3   4
HETATM    4  C   UNL     1      -6.397   6.985  69.656  1.00  0.00    -0.035 C  
HETATM    5  O   UNL     1      -5.490   7.534  70.260  1.00  0.00    -0.023 OA 
BRANCH   4   6
HETATM    6  C   UNL     1      -7.737   7.597  69.443  1.00  0.00    -0.107 A  
HETATM    7  C   UNL     1      -8.828   6.747  69.214  1.00  0.00    -0.137 A  
HETATM    8  C   UNL     1     -10.110   7.278  69.064  1.00  0.00    -0.186 A  
HETATM    9  C   UNL     1     -10.297   8.655  69.150  1.00  0.00    -0.217 A  
HETATM   10  O   UNL     1     -11.529   9.217  69.003  1.00  0.00    -0.400 OA 
HETATM   11  C   UNL     1      -9.228   9.507  69.388  1.00  0.00    -0.181 A  
HETATM   12  C   UNL     1      -7.943   8.981  69.533  1.00  0.00    -0.099 A  
HETATM   13  H   UNL     1     -11.657  10.156  69.062  1.00  0.00     0.000 HD 
ENDBRANCH   4   6
ENDBRANCH   3   4
ENDBRANCH   2   3
TORSDOF 3
ENDMDL
MODEL      238
REMARK 921   NORMALIZED FREE ENERGY PREDICTED BY IDOCK:   -1.02 KCAL/MOL
REMARK 922        TOTAL FREE ENERGY PREDICTED BY IDOCK:   -1.43 KCAL/MOL
REMARK 923 INTER-LIGAND FREE ENERGY PREDICTED BY IDOCK:   -1.21 KCAL/MOL
REMARK 924 INTRA-LIGAND FREE ENERGY PREDICTED BY IDOCK:   -0.22 KCAL/MOL
REMARK 927      BINDING AFFINITY PREDICTED BY RF-SCORE:    0.00 PKD
ROOT
HETATM    1  C   UNL     1      -6.860   5.618  64.493  1.00  0.00    -0.050 C  
HETATM    2  C   UNL     1      -7.468   6.802  65.224  1.00  0.00    -0.086 C  
ENDROOT
BRANCH   2   3
HETATM    3  O   UNL     1      -6.559   7.201  66.255  1.00  0.00    -0.049 OA 
BRANCH   3   4
HETATM    4  C   UNL     1      -7.127   7.733  67.364  1.00  0.00    -0.086 C  
HETATM    5  O   UNL     1      -7.170   8.916  67.660  1.00  0.00    -0.079 OA 
BRANCH   4   6
HETATM    6  C   UNL     1      -7.800   6.661  68.146  1.00  0.00    -0.110 A  
HETATM    7  C   UNL     1      -9.189   6.738  68.323  1.00  0.00    -0.122 A  
HETATM    8  C   UNL     1      -9.866   5.725  69.003  1.00  0.00    -0.204 A  
HETATM    9  C   UNL     1      -9.153   4.636  69.498  1.00  0.00    -0.110 A  
HETATM   10  O   UNL     1      -9.772   3.627  70.174  1.00  0.00    -0.192 OA 
HETATM   11  C   UNL     1      -7.781   4.541  69.320  1.00  0.00    -0.055 A  
HETATM   12  C   UNL     1      -7.099   5.555  68.645  1.00  0.00    -0.065 A  
HETATM   13  H   UNL     1      -9.286   2.885  70.511  1.00  0.00     0.000 HD 
ENDBRANCH   4   6
ENDBRANCH   3   4
ENDBRANCH   2   3
TORSDOF 3
ENDMDL
MODEL      239
REMARK 921   NORMALIZED FREE ENERGY PREDICTED BY IDOCK:   -0.78 KCAL/MOL
REMARK 922        TOTAL FREE ENERGY PREDICTED BY IDOCK:   -1.15 KCAL/MOL
REMARK 923 INTER-LIGAND FREE ENERGY PREDICTED BY IDOCK:   -0.88 KCAL/MOL
REMARK 924 INTRA-LIGAND FREE ENERGY PREDICTED BY IDOCK:   -0.27 KCAL/MOL
REMARK 927      BINDING AFFINITY PREDICTED BY RF-SCORE:    0.00 PKD
ROOT
HETATM    1  C   UNL     1      -6.655   8.608  71.060  1.00  0.00    -0.053 C  
HETATM    2  C   UNL     1      -6.792   7.223  70.452  1.00  0.00    -0.053 C  
ENDROOT
BRANCH   2   3
HETATM    3  O   UNL     1      -6.347   7.290  69.092  1.00  0.00    -0.034 OA 
BRANCH   3   4
HETATM    4  C   UNL     1      -7.320   7.463  68.165  1.00  0.00    -0.100 C  
HETATM    5  O   UNL     1      -8.489   7.130  68.271  1.00  0.00    -0.123 OA 
BRANCH   4   6
HETATM    6  C   UNL     1      -6.780   8.225  67.008  1.00  0.00    -0.062 A  
HETATM    7  C   UNL     1      -7.300   7.958  65.733  1.00  0.00    -0.076 A  
HETATM    8  C   UNL     1      -6.859   8.689  64.629  1.00  0.00    -0.073 A  
HETATM    9  C   UNL     1      -5.906   9.688  64.804  1.00  0.00    -0.080 A  
HETATM   10  O   UNL     1      -5.442  10.422  63.754  1.00  0.00    -0.132 OA 
HETATM   11  C   UNL     1      -5.392   9.972  66.061  1.00  0.00    -0.046 A  
HETATM   12  C   UNL     1      -5.825   9.239  67.167  1.00  0.00    -0.045 A  
HETATM   13  H   UNL     1      -4.792  11.104  63.873  1.00  0.00     0.000 HD 
ENDBRANCH   4   6
ENDBRANCH   3   4
ENDBRANCH   2   3
TORSDOF 3
ENDMDL
MODEL      240
REMARK 921   NORMALIZED FREE ENERGY PREDICTED BY IDOCK:   -0.70 KCAL/MOL
REMARK 922        TOTAL FREE ENERGY PREDICTED BY IDOCK:   -1.05 KCAL/MOL
REMARK 923 INTER-LIGAND FREE ENERGY PREDICTED BY IDOCK:   -0.89 KCAL/MOL
REMARK 924 INTRA-LIGAND FREE ENERGY PREDICTED BY IDOCK:   -0.16 KCAL/MOL
REMARK 927      BINDING AFFINITY PREDICTED BY RF-SCORE:    0.00 PKD
ROOT
HETATM    1  C   UNL     1      -7.255   4.862  65.256  1.00  0.00    -0.067 C  
HETATM    2  C   UNL     1      -7.847   6.055  65.985  1.00  0.00    -0.105 C  
ENDROOT
BRANCH   2   3
HETATM    3  O   UNL     1      -6.876   6.527  66.926  1.00  0.00    -0.061 OA 
BRANCH   3   4
HETATM    4  C   UNL     1      -7.377   7.059  68.067  1.00  0.00    -0.097 C  
HETATM    5  O   UNL     1      -8.000   6.464  68.932  1.00  0.00    -0.107 OA 
BRANCH   4   6
HETATM    6  C   UNL     1      -6.967   8.484  68.178  1.00  0.00    -0.074 A  
HETATM    7  C   UNL     1      -6.122   9.013  67.191  1.00  0.00    -0.058 A  
HETATM    8  C   UNL     1      -5.758  10.360  67.228  1.00  0.00    -0.041 A  
HETATM    9  C   UNL     1      -6.245  11.174  68.247  1.00  0.00    -0.049 A  
HETATM   10  O   UNL     1      -5.910  12.493  68.326  1.00  0.00    -0.055 OA 
HETATM   11  C   UNL     1      -7.091  10.668  69.223  1.00  0.00    -0.107 A  
HETATM   12  C   UNL     1      -7.453   9.320  69.193  1.00  0.00    -0.072 A  
HETATM   13  H   UNL     1      -6.242  13.048  69.021  1.00  0.00     0.000 HD 
ENDBRANCH   4   6
ENDBRANCH   3   4
ENDBRANCH   2   3
TORSDOF 3
ENDMDL
MODEL      241
REMARK 921   NORMALIZED FREE ENERGY PREDICTED BY IDOCK:   -0.66 KCAL/MOL
REMARK 922        TOTAL FREE ENERGY PREDICTED BY IDOCK:   -1.01 KCAL/MOL
REMARK 923 INTER-LIGAND FREE ENERGY PREDICTED BY IDOCK:   -0.93 KCAL/MOL
REMARK 924 INTRA-LIGAND FREE ENERGY PREDICTED BY IDOCK:   -0.08 KCAL/MOL
REMARK 927      BINDING AFFINITY PREDICTED BY RF-SCORE:    0.00 PKD
ROOT
HETATM    1  C   UNL     1      -7.236   4.952  65.271  1.00  0.00    -0.067 C  
HETATM    2  C   UNL     1      -7.730   6.356  65.570  1.00  0.00    -0.096 C  
ENDROOT
BRANCH   2   3
HETATM    3  O   UNL     1      -6.589   7.184  65.817  1.00  0.00    -0.049 OA 
BRANCH   3   4
HETATM    4  C   UNL     1      -6.825   8.307  66.538  1.00  0.00    -0.067 C  
HETATM    5  O   UNL     1      -6.877   9.447  66.106  1.00  0.00    -0.083 OA 
BRANCH   4   6
HETATM    6  C   UNL     1      -7.120   7.944  67.950  1.00  0.00    -0.086 A  
HETATM    7  C   UNL     1      -6.380   6.909  68.541  1.00  0.00    -0.032 A  
HETATM    8  C   UNL     1      -6.588   6.573  69.879  1.00  0.00    -0.048 A  
HETATM    9  C   UNL     1      -7.531   7.278  70.624  1.00  0.00    -0.079 A  
HETATM   10  O   UNL     1      -7.771   6.981  71.931  1.00  0.00    -0.092 OA 
HETATM   11  C   UNL     1      -8.261   8.312  70.056  1.00  0.00    -0.119 A  
HETATM   12  C   UNL     1      -8.060   8.647  68.716  1.00  0.00    -0.116 A  
HETATM   13  H   UNL     1      -8.414   7.461  72.439  1.00  0.00     0.000 HD 
ENDBRANCH   4   6
ENDBRANCH   3   4
ENDBRANCH   2   3
TORSDOF 3
ENDMDL
MODEL      242
REMARK 921   NORMALIZED FREE ENERGY PREDICTED BY IDOCK:    2.08 KCAL/MOL
REMARK 922        TOTAL FREE ENERGY PREDICTED BY IDOCK:    2.21 KCAL/MOL
REMARK 923 INTER-LIGAND FREE ENERGY PREDICTED BY IDOCK:    0.81 KCAL/MOL
REMARK 924 INTRA-LIGAND FREE ENERGY PREDICTED BY IDOCK:    1.39 KCAL/MOL
REMARK 927      BINDING AFFINITY PREDICTED BY RF-SCORE:    0.00 PKD
ROOT
HETATM    1  C   UNL     1     -11.133  17.609  66.812  1.00  0.00     0.382 C  
HETATM    2  C   UNL     1     -11.146  16.477  65.800  1.00  0.00     0.139 C  
ENDROOT
BRANCH   2   3
HETATM    3  O   UNL     1     -10.816  15.265  66.488  1.00  0.00    -0.310 OA 
BRANCH   3   4
HETATM    4  C   UNL     1     -10.046  15.409  67.593  1.00  0.00    -0.236 C  
HETATM    5  O   UNL     1      -9.911  16.425  68.255  1.00  0.00    -0.221 OA 
BRANCH   4   6
HETATM    6  C   UNL     1      -9.447  14.097  67.961  1.00  0.00    -0.213 A  
HETATM    7  C   UNL     1      -8.440  13.571  67.140  1.00  0.00    -0.177 A  
HETATM    8  C   UNL     1      -7.815  12.370  67.479  1.00  0.00    -0.169 A  
HETATM    9  C   UNL     1      -8.195  11.704  68.642  1.00  0.00    -0.110 A  
HETATM   10  O   UNL     1      -7.616  10.526  69.009  1.00  0.00    -0.096 OA 
HETATM   11  C   UNL     1      -9.181  12.219  69.470  1.00  0.00     1.474 A  
HETATM   12  C   UNL     1      -9.813  13.417  69.131  1.00  0.00     0.351 A  
HETATM   13  H   UNL     1      -7.875  10.072  69.801  1.00  0.00     0.000 HD 
ENDBRANCH   4   6
ENDBRANCH   3   4
ENDBRANCH   2   3
TORSDOF 3
ENDMDL
