MODEL        1
REMARK 921   NORMALIZED FREE ENERGY PREDICTED BY IDOCK:   -5.10 KCAL/MOL
REMARK 922        TOTAL FREE ENERGY PREDICTED BY IDOCK:   -6.44 KCAL/MOL
REMARK 923 INTER-LIGAND FREE ENERGY PREDICTED BY IDOCK:   -5.99 KCAL/MOL
REMARK 924 INTRA-LIGAND FREE ENERGY PREDICTED BY IDOCK:   -0.45 KCAL/MOL
REMARK 927      BINDING AFFINITY PREDICTED BY RF-SCORE:    0.00 PKD
ROOT
HETATM    1  C   UNL     1     -10.502  17.829  68.040  1.00  0.00    -0.399 C  
HETATM    2  C   UNL     1     -10.048  17.990  66.598  1.00  0.00    -0.372 C  
ENDROOT
BRANCH   2   3
HETATM    3  O   UNL     1      -9.903  16.681  66.031  1.00  0.00    -0.323 OA 
BRANCH   3   4
HETATM    4  C   UNL     1     -10.899  16.311  65.182  1.00  0.00    -0.318 C  
HETATM    5  O   UNL     1     -11.279  16.950  64.215  1.00  0.00    -1.204 OA 
BRANCH   4   6
HETATM    6  C   UNL     1     -11.333  14.930  65.522  1.00  0.00    -0.339 A  
HETATM    7  C   UNL     1     -10.949  14.370  66.756  1.00  0.00    -0.314 A  
HETATM    8  C   UNL     1     -11.222  13.033  67.045  1.00  0.00    -0.325 A  
HETATM    9  C   UNL     1     -11.880  12.243  66.106  1.00  0.00    -0.398 A  
HETATM   10  C   UNL     1     -12.279  12.790  64.885  1.00  0.00    -0.519 A  
HETATM   11  C   UNL     1     -12.006  14.128  64.594  1.00  0.00    -0.445 A  
HETATM   12  O   UNL     1     -12.420  14.644  63.400  1.00  0.00    -1.035 OA 
HETATM   13  H   UNL     1     -12.877  14.099  62.770  1.00  0.00     0.000 HD 
ENDBRANCH   4   6
ENDBRANCH   3   4
ENDBRANCH   2   3
TORSDOF 3
ENDMDL
MODEL        2
REMARK 921   NORMALIZED FREE ENERGY PREDICTED BY IDOCK:   -5.08 KCAL/MOL
REMARK 922        TOTAL FREE ENERGY PREDICTED BY IDOCK:   -6.42 KCAL/MOL
REMARK 923 INTER-LIGAND FREE ENERGY PREDICTED BY IDOCK:   -6.00 KCAL/MOL
REMARK 924 INTRA-LIGAND FREE ENERGY PREDICTED BY IDOCK:   -0.42 KCAL/MOL
REMARK 927      BINDING AFFINITY PREDICTED BY RF-SCORE:    0.00 PKD
ROOT
HETATM    1  C   UNL     1     -10.167  17.527  67.582  1.00  0.00    -0.343 C  
HETATM    2  C   UNL     1     -10.362  17.755  66.091  1.00  0.00    -0.340 C  
ENDROOT
BRANCH   2   3
HETATM    3  O   UNL     1      -9.951  16.566  65.404  1.00  0.00    -0.552 OA 
BRANCH   3   4
HETATM    4  C   UNL     1     -10.926  15.960  64.674  1.00  0.00    -0.305 C  
HETATM    5  O   UNL     1     -11.633  16.508  63.845  1.00  0.00    -1.175 OA 
BRANCH   4   6
HETATM    6  C   UNL     1     -10.876  14.497  64.926  1.00  0.00    -0.436 A  
HETATM    7  C   UNL     1     -10.025  13.998  65.931  1.00  0.00    -0.325 A  
HETATM    8  C   UNL     1      -9.853  12.623  66.099  1.00  0.00    -0.265 A  
HETATM    9  C   UNL     1     -10.528  11.735  65.265  1.00  0.00    -0.320 A  
HETATM   10  C   UNL     1     -11.386  12.217  64.274  1.00  0.00    -0.426 A  
HETATM   11  C   UNL     1     -11.558  13.592  64.106  1.00  0.00    -0.376 A  
HETATM   12  O   UNL     1     -12.416  14.038  63.141  1.00  0.00    -1.137 OA 
HETATM   13  H   UNL     1     -12.879  13.424  62.584  1.00  0.00     0.000 HD 
ENDBRANCH   4   6
ENDBRANCH   3   4
ENDBRANCH   2   3
TORSDOF 3
ENDMDL
MODEL        3
REMARK 921   NORMALIZED FREE ENERGY PREDICTED BY IDOCK:   -5.02 KCAL/MOL
REMARK 922        TOTAL FREE ENERGY PREDICTED BY IDOCK:   -6.35 KCAL/MOL
REMARK 923 INTER-LIGAND FREE ENERGY PREDICTED BY IDOCK:   -5.94 KCAL/MOL
REMARK 924 INTRA-LIGAND FREE ENERGY PREDICTED BY IDOCK:   -0.41 KCAL/MOL
REMARK 927      BINDING AFFINITY PREDICTED BY RF-SCORE:    0.00 PKD
ROOT
HETATM    1  C   UNL     1     -10.363  20.206  66.581  1.00  0.00    -0.508 C  
HETATM    2  C   UNL     1     -10.536  18.729  66.900  1.00  0.00    -0.414 C  
ENDROOT
BRANCH   2   3
HETATM    3  O   UNL     1     -10.458  17.998  65.670  1.00  0.00    -0.619 OA 
BRANCH   3   4
HETATM    4  C   UNL     1      -9.786  16.817  65.746  1.00  0.00    -0.180 C  
HETATM    5  O   UNL     1      -8.581  16.696  65.893  1.00  0.00    -0.473 OA 
BRANCH   4   6
HETATM    6  C   UNL     1     -10.771  15.705  65.789  1.00  0.00    -0.350 A  
HETATM    7  C   UNL     1     -10.799  14.850  66.907  1.00  0.00    -0.319 A  
HETATM    8  C   UNL     1     -11.616  13.718  66.917  1.00  0.00    -0.394 A  
HETATM    9  C   UNL     1     -12.410  13.430  65.810  1.00  0.00    -0.513 A  
HETATM   10  C   UNL     1     -12.403  14.278  64.701  1.00  0.00    -0.433 A  
HETATM   11  C   UNL     1     -11.586  15.410  64.691  1.00  0.00    -0.311 A  
HETATM   12  O   UNL     1     -11.609  16.233  63.601  1.00  0.00    -1.424 OA 
HETATM   13  H   UNL     1     -12.162  16.033  62.855  1.00  0.00     0.000 HD 
ENDBRANCH   4   6
ENDBRANCH   3   4
ENDBRANCH   2   3
TORSDOF 3
ENDMDL
MODEL        4
REMARK 921   NORMALIZED FREE ENERGY PREDICTED BY IDOCK:   -4.90 KCAL/MOL
REMARK 922        TOTAL FREE ENERGY PREDICTED BY IDOCK:   -6.21 KCAL/MOL
REMARK 923 INTER-LIGAND FREE ENERGY PREDICTED BY IDOCK:   -5.89 KCAL/MOL
REMARK 924 INTRA-LIGAND FREE ENERGY PREDICTED BY IDOCK:   -0.32 KCAL/MOL
REMARK 927      BINDING AFFINITY PREDICTED BY RF-SCORE:    0.00 PKD
ROOT
HETATM    1  C   UNL     1      -9.766  10.583  63.912  1.00  0.00    -0.384 C  
HETATM    2  C   UNL     1     -10.489  11.764  63.282  1.00  0.00    -0.388 C  
ENDROOT
BRANCH   2   3
HETATM    3  O   UNL     1     -11.428  12.269  64.238  1.00  0.00    -0.324 OA 
BRANCH   3   4
HETATM    4  C   UNL     1     -11.781  13.571  64.062  1.00  0.00    -0.395 C  
HETATM    5  O   UNL     1     -12.720  13.966  63.391  1.00  0.00    -0.806 OA 
BRANCH   4   6
HETATM    6  C   UNL     1     -10.945  14.420  64.950  1.00  0.00    -0.416 A  
HETATM    7  C   UNL     1     -10.239  13.823  66.013  1.00  0.00    -0.315 A  
HETATM    8  C   UNL     1      -9.558  14.609  66.944  1.00  0.00    -0.253 A  
HETATM    9  C   UNL     1      -9.576  15.996  66.823  1.00  0.00    -0.248 A  
HETATM   10  C   UNL     1     -10.260  16.599  65.766  1.00  0.00    -0.328 A  
HETATM   11  C   UNL     1     -10.942  15.815  64.834  1.00  0.00    -0.427 A  
HETATM   12  O   UNL     1     -11.590  16.428  63.800  1.00  0.00    -1.605 OA 
HETATM   13  H   UNL     1     -11.588  17.374  63.722  1.00  0.00     0.000 HD 
ENDBRANCH   4   6
ENDBRANCH   3   4
ENDBRANCH   2   3
TORSDOF 3
ENDMDL
MODEL        5
REMARK 921   NORMALIZED FREE ENERGY PREDICTED BY IDOCK:   -4.64 KCAL/MOL
REMARK 922        TOTAL FREE ENERGY PREDICTED BY IDOCK:   -5.91 KCAL/MOL
REMARK 923 INTER-LIGAND FREE ENERGY PREDICTED BY IDOCK:   -5.51 KCAL/MOL
REMARK 924 INTRA-LIGAND FREE ENERGY PREDICTED BY IDOCK:   -0.39 KCAL/MOL
REMARK 927      BINDING AFFINITY PREDICTED BY RF-SCORE:    0.00 PKD
ROOT
HETATM    1  C   UNL     1     -14.347   8.485  71.898  1.00  0.00    -0.536 C  
HETATM    2  C   UNL     1     -13.014   9.208  72.020  1.00  0.00    -0.424 C  
ENDROOT
BRANCH   2   3
HETATM    3  O   UNL     1     -13.275  10.618  72.030  1.00  0.00    -0.473 OA 
BRANCH   3   4
HETATM    4  C   UNL     1     -12.732  11.309  70.992  1.00  0.00    -0.359 C  
HETATM    5  O   UNL     1     -12.355  10.824  69.939  1.00  0.00    -0.329 OA 
BRANCH   4   6
HETATM    6  C   UNL     1     -12.826  12.764  71.282  1.00  0.00    -0.355 A  
HETATM    7  C   UNL     1     -13.776  13.222  72.214  1.00  0.00    -0.686 A  
HETATM    8  C   UNL     1     -13.982  14.589  72.405  1.00  0.00    -0.580 A  
HETATM    9  C   UNL     1     -13.243  15.510  71.666  1.00  0.00    -0.575 A  
HETATM   10  C   UNL     1     -12.288  15.068  70.749  1.00  0.00    -0.400 A  
HETATM   11  C   UNL     1     -12.080  13.701  70.557  1.00  0.00    -0.339 A  
HETATM   12  O   UNL     1     -11.129  13.293  69.666  1.00  0.00    -0.456 OA 
HETATM   13  H   UNL     1     -10.623  13.930  69.175  1.00  0.00     0.000 HD 
ENDBRANCH   4   6
ENDBRANCH   3   4
ENDBRANCH   2   3
TORSDOF 3
ENDMDL
MODEL        6
REMARK 921   NORMALIZED FREE ENERGY PREDICTED BY IDOCK:   -4.59 KCAL/MOL
REMARK 922        TOTAL FREE ENERGY PREDICTED BY IDOCK:   -5.85 KCAL/MOL
REMARK 923 INTER-LIGAND FREE ENERGY PREDICTED BY IDOCK:   -5.48 KCAL/MOL
REMARK 924 INTRA-LIGAND FREE ENERGY PREDICTED BY IDOCK:   -0.37 KCAL/MOL
REMARK 927      BINDING AFFINITY PREDICTED BY RF-SCORE:    0.00 PKD
ROOT
HETATM    1  C   UNL     1     -12.436  10.723  70.378  1.00  0.00    -0.430 C  
HETATM    2  C   UNL     1     -11.748  11.838  69.604  1.00  0.00    -0.344 C  
ENDROOT
BRANCH   2   3
HETATM    3  O   UNL     1     -12.042  11.657  68.213  1.00  0.00    -0.552 OA 
BRANCH   3   4
HETATM    4  C   UNL     1     -11.877  12.767  67.443  1.00  0.00    -0.342 C  
HETATM    5  O   UNL     1     -11.797  13.911  67.859  1.00  0.00    -0.343 OA 
BRANCH   4   6
HETATM    6  C   UNL     1     -11.643  12.347  66.037  1.00  0.00    -0.455 A  
HETATM    7  C   UNL     1     -10.664  11.373  65.761  1.00  0.00    -0.309 A  
HETATM    8  C   UNL     1     -10.326  11.059  64.444  1.00  0.00    -0.424 A  
HETATM    9  C   UNL     1     -10.961  11.714  63.392  1.00  0.00    -0.442 A  
HETATM   10  C   UNL     1     -11.943  12.672  63.652  1.00  0.00    -0.615 A  
HETATM   11  C   UNL     1     -12.283  12.986  64.970  1.00  0.00    -0.453 A  
HETATM   12  O   UNL     1     -13.258  13.914  65.198  1.00  0.00    -0.768 OA 
HETATM   13  H   UNL     1     -13.692  14.348  64.473  1.00  0.00     0.000 HD 
ENDBRANCH   4   6
ENDBRANCH   3   4
ENDBRANCH   2   3
TORSDOF 3
ENDMDL
MODEL        7
REMARK 921   NORMALIZED FREE ENERGY PREDICTED BY IDOCK:   -4.54 KCAL/MOL
REMARK 922        TOTAL FREE ENERGY PREDICTED BY IDOCK:   -5.79 KCAL/MOL
REMARK 923 INTER-LIGAND FREE ENERGY PREDICTED BY IDOCK:   -5.28 KCAL/MOL
REMARK 924 INTRA-LIGAND FREE ENERGY PREDICTED BY IDOCK:   -0.51 KCAL/MOL
REMARK 927      BINDING AFFINITY PREDICTED BY RF-SCORE:    0.00 PKD
ROOT
HETATM    1  C   UNL     1     -11.825  13.628  69.061  1.00  0.00    -0.393 C  
HETATM    2  C   UNL     1     -12.034  14.652  67.956  1.00  0.00    -0.257 C  
ENDROOT
BRANCH   2   3
HETATM    3  O   UNL     1     -11.349  14.186  66.786  1.00  0.00    -0.319 OA 
BRANCH   3   4
HETATM    4  C   UNL     1     -12.142  13.584  65.859  1.00  0.00    -0.435 C  
HETATM    5  O   UNL     1     -13.210  14.013  65.455  1.00  0.00    -0.761 OA 
BRANCH   4   6
HETATM    6  C   UNL     1     -11.422  12.410  65.300  1.00  0.00    -0.389 A  
HETATM    7  C   UNL     1     -10.831  11.480  66.177  1.00  0.00    -0.330 A  
HETATM    8  C   UNL     1     -10.034  10.446  65.685  1.00  0.00    -0.337 A  
HETATM    9  C   UNL     1      -9.817  10.333  64.314  1.00  0.00    -0.357 A  
HETATM   10  C   UNL     1     -10.409  11.240  63.433  1.00  0.00    -0.449 A  
HETATM   11  C   UNL     1     -11.207  12.274  63.924  1.00  0.00    -0.421 A  
HETATM   12  O   UNL     1     -11.788  13.140  63.041  1.00  0.00    -0.834 OA 
HETATM   13  H   UNL     1     -11.642  13.047  62.107  1.00  0.00     0.000 HD 
ENDBRANCH   4   6
ENDBRANCH   3   4
ENDBRANCH   2   3
TORSDOF 3
ENDMDL
MODEL        8
REMARK 921   NORMALIZED FREE ENERGY PREDICTED BY IDOCK:   -4.53 KCAL/MOL
REMARK 922        TOTAL FREE ENERGY PREDICTED BY IDOCK:   -5.77 KCAL/MOL
REMARK 923 INTER-LIGAND FREE ENERGY PREDICTED BY IDOCK:   -5.34 KCAL/MOL
REMARK 924 INTRA-LIGAND FREE ENERGY PREDICTED BY IDOCK:   -0.43 KCAL/MOL
REMARK 927      BINDING AFFINITY PREDICTED BY RF-SCORE:    0.00 PKD
ROOT
HETATM    1  C   UNL     1      -7.200  16.173  67.579  1.00  0.00    -0.188 C  
HETATM    2  C   UNL     1      -7.727  17.017  66.429  1.00  0.00    -0.315 C  
ENDROOT
BRANCH   2   3
HETATM    3  O   UNL     1      -8.722  16.252  65.738  1.00  0.00    -0.390 OA 
BRANCH   3   4
HETATM    4  C   UNL     1     -10.006  16.642  65.966  1.00  0.00    -0.324 C  
HETATM    5  O   UNL     1     -10.374  17.788  66.158  1.00  0.00    -0.372 OA 
BRANCH   4   6
HETATM    6  C   UNL     1     -10.904  15.472  65.778  1.00  0.00    -0.337 A  
HETATM    7  C   UNL     1     -10.898  14.437  66.732  1.00  0.00    -0.301 A  
HETATM    8  C   UNL     1     -11.625  13.266  66.514  1.00  0.00    -0.392 A  
HETATM    9  C   UNL     1     -12.363  13.118  65.343  1.00  0.00    -0.532 A  
HETATM   10  C   UNL     1     -12.388  14.143  64.395  1.00  0.00    -0.410 A  
HETATM   11  C   UNL     1     -11.661  15.315  64.612  1.00  0.00    -0.333 A  
HETATM   12  O   UNL     1     -11.715  16.310  63.678  1.00  0.00    -1.447 OA 
HETATM   13  H   UNL     1     -12.229  16.203  62.887  1.00  0.00     0.000 HD 
ENDBRANCH   4   6
ENDBRANCH   3   4
ENDBRANCH   2   3
TORSDOF 3
ENDMDL
MODEL        9
REMARK 921   NORMALIZED FREE ENERGY PREDICTED BY IDOCK:   -4.50 KCAL/MOL
REMARK 922        TOTAL FREE ENERGY PREDICTED BY IDOCK:   -5.74 KCAL/MOL
REMARK 923 INTER-LIGAND FREE ENERGY PREDICTED BY IDOCK:   -5.37 KCAL/MOL
REMARK 924 INTRA-LIGAND FREE ENERGY PREDICTED BY IDOCK:   -0.36 KCAL/MOL
REMARK 927      BINDING AFFINITY PREDICTED BY RF-SCORE:    0.00 PKD
ROOT
HETATM    1  C   UNL     1     -12.307  12.033  63.574  1.00  0.00    -0.661 C  
HETATM    2  C   UNL     1     -12.396  13.075  64.677  1.00  0.00    -0.422 C  
ENDROOT
BRANCH   2   3
HETATM    3  O   UNL     1     -12.332  12.394  65.937  1.00  0.00    -0.638 OA 
BRANCH   3   4
HETATM    4  C   UNL     1     -11.286  12.752  66.730  1.00  0.00    -0.313 C  
HETATM    5  O   UNL     1     -10.195  13.128  66.335  1.00  0.00    -0.273 OA 
BRANCH   4   6
HETATM    6  C   UNL     1     -11.740  12.770  68.145  1.00  0.00    -0.392 A  
HETATM    7  C   UNL     1     -11.881  14.004  68.809  1.00  0.00    -0.396 A  
HETATM    8  C   UNL     1     -12.171  14.047  70.174  1.00  0.00    -0.425 A  
HETATM    9  C   UNL     1     -12.322  12.861  70.886  1.00  0.00    -0.365 A  
HETATM   10  C   UNL     1     -12.199  11.631  70.236  1.00  0.00    -0.401 A  
HETATM   11  C   UNL     1     -11.909  11.586  68.872  1.00  0.00    -0.341 A  
HETATM   12  O   UNL     1     -11.810  10.372  68.255  1.00  0.00    -0.747 OA 
HETATM   13  H   UNL     1     -11.925   9.568  68.748  1.00  0.00     0.000 HD 
ENDBRANCH   4   6
ENDBRANCH   3   4
ENDBRANCH   2   3
TORSDOF 3
ENDMDL
MODEL       10
REMARK 921   NORMALIZED FREE ENERGY PREDICTED BY IDOCK:   -4.48 KCAL/MOL
REMARK 922        TOTAL FREE ENERGY PREDICTED BY IDOCK:   -5.72 KCAL/MOL
REMARK 923 INTER-LIGAND FREE ENERGY PREDICTED BY IDOCK:   -5.25 KCAL/MOL
REMARK 924 INTRA-LIGAND FREE ENERGY PREDICTED BY IDOCK:   -0.47 KCAL/MOL
REMARK 927      BINDING AFFINITY PREDICTED BY RF-SCORE:    0.00 PKD
ROOT
HETATM    1  C   UNL     1      -9.460  10.456  63.734  1.00  0.00    -0.353 C  
HETATM    2  C   UNL     1     -10.050  11.732  63.154  1.00  0.00    -0.354 C  
ENDROOT
BRANCH   2   3
HETATM    3  O   UNL     1     -11.446  11.762  63.479  1.00  0.00    -0.422 OA 
BRANCH   3   4
HETATM    4  C   UNL     1     -11.967  13.007  63.653  1.00  0.00    -0.539 C  
HETATM    5  O   UNL     1     -12.698  13.584  62.866  1.00  0.00    -0.569 OA 
BRANCH   4   6
HETATM    6  C   UNL     1     -11.639  13.479  65.024  1.00  0.00    -0.345 A  
HETATM    7  C   UNL     1     -11.896  12.637  66.123  1.00  0.00    -0.477 A  
HETATM    8  C   UNL     1     -11.728  13.102  67.428  1.00  0.00    -0.419 A  
HETATM    9  C   UNL     1     -11.305  14.411  67.647  1.00  0.00    -0.348 A  
HETATM   10  C   UNL     1     -11.034  15.251  66.565  1.00  0.00    -0.295 A  
HETATM   11  C   UNL     1     -11.201  14.786  65.259  1.00  0.00    -0.366 A  
HETATM   12  O   UNL     1     -10.914  15.622  64.218  1.00  0.00    -0.761 OA 
HETATM   13  H   UNL     1     -10.616  16.510  64.378  1.00  0.00     0.000 HD 
ENDBRANCH   4   6
ENDBRANCH   3   4
ENDBRANCH   2   3
TORSDOF 3
ENDMDL
MODEL       11
REMARK 921   NORMALIZED FREE ENERGY PREDICTED BY IDOCK:   -4.47 KCAL/MOL
REMARK 922        TOTAL FREE ENERGY PREDICTED BY IDOCK:   -5.71 KCAL/MOL
REMARK 923 INTER-LIGAND FREE ENERGY PREDICTED BY IDOCK:   -5.31 KCAL/MOL
REMARK 924 INTRA-LIGAND FREE ENERGY PREDICTED BY IDOCK:   -0.40 KCAL/MOL
REMARK 927      BINDING AFFINITY PREDICTED BY RF-SCORE:    0.00 PKD
ROOT
HETATM    1  C   UNL     1     -12.607  16.127  74.058  1.00  0.00    -0.694 C  
HETATM    2  C   UNL     1     -13.562  15.884  72.900  1.00  0.00    -0.541 C  
ENDROOT
BRANCH   2   3
HETATM    3  O   UNL     1     -12.878  15.092  71.921  1.00  0.00    -0.309 OA 
BRANCH   3   4
HETATM    4  C   UNL     1     -13.246  13.783  71.883  1.00  0.00    -0.403 C  
HETATM    5  O   UNL     1     -14.125  13.275  72.558  1.00  0.00    -0.709 OA 
BRANCH   4   6
HETATM    6  C   UNL     1     -12.521  13.112  70.772  1.00  0.00    -0.389 A  
HETATM    7  C   UNL     1     -12.054  13.880  69.689  1.00  0.00    -0.404 A  
HETATM    8  C   UNL     1     -11.493  13.263  68.569  1.00  0.00    -0.347 A  
HETATM    9  C   UNL     1     -11.397  11.875  68.521  1.00  0.00    -0.329 A  
HETATM   10  C   UNL     1     -11.844  11.102  69.595  1.00  0.00    -0.419 A  
HETATM   11  C   UNL     1     -12.404  11.719  70.715  1.00  0.00    -0.337 A  
HETATM   12  O   UNL     1     -12.820  10.942  71.759  1.00  0.00    -0.431 OA 
HETATM   13  H   UNL     1     -12.740   9.997  71.720  1.00  0.00     0.000 HD 
ENDBRANCH   4   6
ENDBRANCH   3   4
ENDBRANCH   2   3
TORSDOF 3
ENDMDL
MODEL       12
REMARK 921   NORMALIZED FREE ENERGY PREDICTED BY IDOCK:   -4.47 KCAL/MOL
REMARK 922        TOTAL FREE ENERGY PREDICTED BY IDOCK:   -5.71 KCAL/MOL
REMARK 923 INTER-LIGAND FREE ENERGY PREDICTED BY IDOCK:   -5.26 KCAL/MOL
REMARK 924 INTRA-LIGAND FREE ENERGY PREDICTED BY IDOCK:   -0.44 KCAL/MOL
REMARK 927      BINDING AFFINITY PREDICTED BY RF-SCORE:    0.00 PKD
ROOT
HETATM    1  C   UNL     1     -10.128  18.331  67.437  1.00  0.00    -0.364 C  
HETATM    2  C   UNL     1     -10.549  18.066  66.000  1.00  0.00    -0.251 C  
ENDROOT
BRANCH   2   3
HETATM    3  O   UNL     1     -10.106  16.750  65.644  1.00  0.00    -0.534 OA 
BRANCH   3   4
HETATM    4  C   UNL     1     -10.979  16.039  64.880  1.00  0.00    -0.384 C  
HETATM    5  O   UNL     1     -11.555  16.456  63.889  1.00  0.00    -1.100 OA 
BRANCH   4   6
HETATM    6  C   UNL     1     -10.988  14.628  65.348  1.00  0.00    -0.358 A  
HETATM    7  C   UNL     1     -10.461  13.621  64.516  1.00  0.00    -0.411 A  
HETATM    8  C   UNL     1     -10.580  12.276  64.867  1.00  0.00    -0.329 A  
HETATM    9  C   UNL     1     -11.227  11.923  66.049  1.00  0.00    -0.377 A  
HETATM   10  C   UNL     1     -11.742  12.913  66.889  1.00  0.00    -0.445 A  
HETATM   11  C   UNL     1     -11.623  14.259  66.539  1.00  0.00    -0.378 A  
HETATM   12  O   UNL     1     -12.120  15.209  67.385  1.00  0.00    -0.334 OA 
HETATM   13  H   UNL     1     -12.551  14.959  68.194  1.00  0.00     0.000 HD 
ENDBRANCH   4   6
ENDBRANCH   3   4
ENDBRANCH   2   3
TORSDOF 3
ENDMDL
MODEL       13
REMARK 921   NORMALIZED FREE ENERGY PREDICTED BY IDOCK:   -4.47 KCAL/MOL
REMARK 922        TOTAL FREE ENERGY PREDICTED BY IDOCK:   -5.71 KCAL/MOL
REMARK 923 INTER-LIGAND FREE ENERGY PREDICTED BY IDOCK:   -5.34 KCAL/MOL
REMARK 924 INTRA-LIGAND FREE ENERGY PREDICTED BY IDOCK:   -0.37 KCAL/MOL
REMARK 927      BINDING AFFINITY PREDICTED BY RF-SCORE:    0.00 PKD
ROOT
HETATM    1  C   UNL     1     -12.140  13.531  64.499  1.00  0.00    -0.460 C  
HETATM    2  C   UNL     1     -10.825  14.186  64.891  1.00  0.00    -0.411 C  
ENDROOT
BRANCH   2   3
HETATM    3  O   UNL     1     -11.116  15.252  65.803  1.00  0.00    -0.338 OA 
BRANCH   3   4
HETATM    4  C   UNL     1     -10.870  16.501  65.323  1.00  0.00    -0.221 C  
HETATM    5  O   UNL     1     -11.167  16.902  64.210  1.00  0.00    -1.204 OA 
BRANCH   4   6
HETATM    6  C   UNL     1     -10.336  17.344  66.425  1.00  0.00    -0.317 A  
HETATM    7  C   UNL     1      -9.820  16.725  67.579  1.00  0.00    -0.255 A  
HETATM    8  C   UNL     1      -9.439  17.487  68.685  1.00  0.00    -0.278 A  
HETATM    9  C   UNL     1      -9.571  18.873  68.647  1.00  0.00    -0.443 A  
HETATM   10  C   UNL     1     -10.068  19.500  67.502  1.00  0.00    -0.524 A  
HETATM   11  C   UNL     1     -10.449  18.738  66.396  1.00  0.00    -0.429 A  
HETATM   12  O   UNL     1     -10.916  19.375  65.283  1.00  0.00    -0.457 OA 
HETATM   13  H   UNL     1     -10.993  20.322  65.264  1.00  0.00     0.000 HD 
ENDBRANCH   4   6
ENDBRANCH   3   4
ENDBRANCH   2   3
TORSDOF 3
ENDMDL
MODEL       14
REMARK 921   NORMALIZED FREE ENERGY PREDICTED BY IDOCK:   -4.46 KCAL/MOL
REMARK 922        TOTAL FREE ENERGY PREDICTED BY IDOCK:   -5.69 KCAL/MOL
REMARK 923 INTER-LIGAND FREE ENERGY PREDICTED BY IDOCK:   -5.21 KCAL/MOL
REMARK 924 INTRA-LIGAND FREE ENERGY PREDICTED BY IDOCK:   -0.48 KCAL/MOL
REMARK 927      BINDING AFFINITY PREDICTED BY RF-SCORE:    0.00 PKD
ROOT
HETATM    1  C   UNL     1     -12.485  11.844  63.352  1.00  0.00    -0.582 C  
HETATM    2  C   UNL     1     -12.345  13.301  63.765  1.00  0.00    -0.367 C  
ENDROOT
BRANCH   2   3
HETATM    3  O   UNL     1     -12.799  13.424  65.119  1.00  0.00    -0.675 OA 
BRANCH   3   4
HETATM    4  C   UNL     1     -11.929  14.042  65.962  1.00  0.00    -0.416 C  
HETATM    5  O   UNL     1     -11.457  15.155  65.800  1.00  0.00    -0.292 OA 
BRANCH   4   6
HETATM    6  C   UNL     1     -11.777  13.215  67.188  1.00  0.00    -0.430 A  
HETATM    7  C   UNL     1     -11.507  11.839  67.064  1.00  0.00    -0.368 A  
HETATM    8  C   UNL     1     -11.496  11.013  68.188  1.00  0.00    -0.374 A  
HETATM    9  C   UNL     1     -11.756  11.552  69.445  1.00  0.00    -0.413 A  
HETATM   10  C   UNL     1     -12.011  12.918  69.583  1.00  0.00    -0.358 A  
HETATM   11  C   UNL     1     -12.022  13.746  68.459  1.00  0.00    -0.367 A  
HETATM   12  O   UNL     1     -12.258  15.081  68.622  1.00  0.00    -0.570 OA 
HETATM   13  H   UNL     1     -12.424  15.441  69.485  1.00  0.00     0.000 HD 
ENDBRANCH   4   6
ENDBRANCH   3   4
ENDBRANCH   2   3
TORSDOF 3
ENDMDL
MODEL       15
REMARK 921   NORMALIZED FREE ENERGY PREDICTED BY IDOCK:   -4.45 KCAL/MOL
REMARK 922        TOTAL FREE ENERGY PREDICTED BY IDOCK:   -5.69 KCAL/MOL
REMARK 923 INTER-LIGAND FREE ENERGY PREDICTED BY IDOCK:   -5.30 KCAL/MOL
REMARK 924 INTRA-LIGAND FREE ENERGY PREDICTED BY IDOCK:   -0.39 KCAL/MOL
REMARK 927      BINDING AFFINITY PREDICTED BY RF-SCORE:    0.00 PKD
ROOT
HETATM    1  C   UNL     1      -8.775   7.123  74.115  1.00  0.00    -0.235 C  
HETATM    2  C   UNL     1     -10.187   6.557  74.079  1.00  0.00    -0.353 C  
ENDROOT
BRANCH   2   3
HETATM    3  O   UNL     1     -11.071   7.599  73.647  1.00  0.00    -0.256 OA 
BRANCH   3   4
HETATM    4  C   UNL     1     -11.651   7.393  72.434  1.00  0.00    -0.284 C  
HETATM    5  O   UNL     1     -11.962   6.307  71.974  1.00  0.00    -0.330 OA 
BRANCH   4   6
HETATM    6  C   UNL     1     -11.994   8.709  71.835  1.00  0.00    -0.424 A  
HETATM    7  C   UNL     1     -11.149   9.263  70.854  1.00  0.00    -0.374 A  
HETATM    8  C   UNL     1     -11.368  10.555  70.374  1.00  0.00    -0.411 A  
HETATM    9  C   UNL     1     -12.432  11.305  70.870  1.00  0.00    -0.493 A  
HETATM   10  C   UNL     1     -13.285  10.762  71.832  1.00  0.00    -0.524 A  
HETATM   11  C   UNL     1     -13.067   9.469  72.313  1.00  0.00    -0.408 A  
HETATM   12  O   UNL     1     -13.925   8.954  73.242  1.00  0.00    -1.203 OA 
HETATM   13  H   UNL     1     -14.653   9.471  73.566  1.00  0.00     0.000 HD 
ENDBRANCH   4   6
ENDBRANCH   3   4
ENDBRANCH   2   3
TORSDOF 3
ENDMDL
MODEL       16
REMARK 921   NORMALIZED FREE ENERGY PREDICTED BY IDOCK:   -4.45 KCAL/MOL
REMARK 922        TOTAL FREE ENERGY PREDICTED BY IDOCK:   -5.68 KCAL/MOL
REMARK 923 INTER-LIGAND FREE ENERGY PREDICTED BY IDOCK:   -5.77 KCAL/MOL
REMARK 924 INTRA-LIGAND FREE ENERGY PREDICTED BY IDOCK:    0.09 KCAL/MOL
REMARK 927      BINDING AFFINITY PREDICTED BY RF-SCORE:    0.00 PKD
ROOT
HETATM    1  C   UNL     1     -12.368  15.560  74.279  1.00  0.00    -0.815 C  
HETATM    2  C   UNL     1     -13.381  16.066  73.263  1.00  0.00    -0.532 C  
ENDROOT
BRANCH   2   3
HETATM    3  O   UNL     1     -13.797  14.954  72.461  1.00  0.00    -0.445 OA 
BRANCH   3   4
HETATM    4  C   UNL     1     -13.234  14.897  71.223  1.00  0.00    -0.408 C  
HETATM    5  O   UNL     1     -13.032  15.853  70.494  1.00  0.00    -0.438 OA 
BRANCH   4   6
HETATM    6  C   UNL     1     -12.755  13.512  70.976  1.00  0.00    -0.399 A  
HETATM    7  C   UNL     1     -11.989  13.242  69.826  1.00  0.00    -0.391 A  
HETATM    8  C   UNL     1     -11.643  11.931  69.494  1.00  0.00    -0.394 A  
HETATM    9  C   UNL     1     -12.059  10.880  70.307  1.00  0.00    -0.440 A  
HETATM   10  C   UNL     1     -12.807  11.136  71.458  1.00  0.00    -0.542 A  
HETATM   11  C   UNL     1     -13.154  12.447  71.790  1.00  0.00    -0.342 A  
HETATM   12  O   UNL     1     -13.872  12.673  72.930  1.00  0.00    -0.628 OA 
HETATM   13  H   UNL     1     -14.142  11.949  73.482  1.00  0.00     0.000 HD 
ENDBRANCH   4   6
ENDBRANCH   3   4
ENDBRANCH   2   3
TORSDOF 3
ENDMDL
MODEL       17
REMARK 921   NORMALIZED FREE ENERGY PREDICTED BY IDOCK:   -4.43 KCAL/MOL
REMARK 922        TOTAL FREE ENERGY PREDICTED BY IDOCK:   -5.66 KCAL/MOL
REMARK 923 INTER-LIGAND FREE ENERGY PREDICTED BY IDOCK:   -5.35 KCAL/MOL
REMARK 924 INTRA-LIGAND FREE ENERGY PREDICTED BY IDOCK:   -0.30 KCAL/MOL
REMARK 927      BINDING AFFINITY PREDICTED BY RF-SCORE:    0.00 PKD
ROOT
HETATM    1  C   UNL     1     -11.129   5.937  69.727  1.00  0.00    -0.422 C  
HETATM    2  C   UNL     1     -10.829   5.736  71.204  1.00  0.00    -0.248 C  
ENDROOT
BRANCH   2   3
HETATM    3  O   UNL     1     -11.809   6.460  71.959  1.00  0.00    -0.317 OA 
BRANCH   3   4
HETATM    4  C   UNL     1     -11.328   7.532  72.643  1.00  0.00    -0.344 C  
HETATM    5  O   UNL     1     -10.564   7.482  73.593  1.00  0.00    -0.348 OA 
BRANCH   4   6
HETATM    6  C   UNL     1     -11.750   8.776  71.947  1.00  0.00    -0.429 A  
HETATM    7  C   UNL     1     -10.880   9.375  71.015  1.00  0.00    -0.406 A  
HETATM    8  C   UNL     1     -11.188  10.612  70.449  1.00  0.00    -0.334 A  
HETATM    9  C   UNL     1     -12.365  11.264  70.809  1.00  0.00    -0.495 A  
HETATM   10  C   UNL     1     -13.243  10.674  71.721  1.00  0.00    -0.526 A  
HETATM   11  C   UNL     1     -12.936   9.436  72.287  1.00  0.00    -0.400 A  
HETATM   12  O   UNL     1     -13.818   8.872  73.164  1.00  0.00    -1.084 OA 
HETATM   13  H   UNL     1     -14.623   9.320  73.395  1.00  0.00     0.000 HD 
ENDBRANCH   4   6
ENDBRANCH   3   4
ENDBRANCH   2   3
TORSDOF 3
ENDMDL
MODEL       18
REMARK 921   NORMALIZED FREE ENERGY PREDICTED BY IDOCK:   -4.40 KCAL/MOL
REMARK 922        TOTAL FREE ENERGY PREDICTED BY IDOCK:   -5.63 KCAL/MOL
REMARK 923 INTER-LIGAND FREE ENERGY PREDICTED BY IDOCK:   -5.33 KCAL/MOL
REMARK 924 INTRA-LIGAND FREE ENERGY PREDICTED BY IDOCK:   -0.29 KCAL/MOL
REMARK 927      BINDING AFFINITY PREDICTED BY RF-SCORE:    0.00 PKD
ROOT
HETATM    1  C   UNL     1     -11.378  15.990  68.480  1.00  0.00    -0.382 C  
HETATM    2  C   UNL     1     -11.830  14.556  68.707  1.00  0.00    -0.315 C  
ENDROOT
BRANCH   2   3
HETATM    3  O   UNL     1     -12.087  13.965  67.427  1.00  0.00    -0.392 OA 
BRANCH   3   4
HETATM    4  C   UNL     1     -11.897  12.619  67.368  1.00  0.00    -0.328 C  
HETATM    5  O   UNL     1     -12.103  11.835  68.279  1.00  0.00    -0.525 OA 
BRANCH   4   6
HETATM    6  C   UNL     1     -11.560  12.242  65.971  1.00  0.00    -0.451 A  
HETATM    7  C   UNL     1     -10.479  11.372  65.732  1.00  0.00    -0.314 A  
HETATM    8  C   UNL     1     -10.052  11.109  64.429  1.00  0.00    -0.377 A  
HETATM    9  C   UNL     1     -10.701  11.713  63.354  1.00  0.00    -0.460 A  
HETATM   10  C   UNL     1     -11.783  12.566  63.577  1.00  0.00    -0.595 A  
HETATM   11  C   UNL     1     -12.210  12.830  64.880  1.00  0.00    -0.463 A  
HETATM   12  O   UNL     1     -13.282  13.655  65.071  1.00  0.00    -0.729 OA 
HETATM   13  H   UNL     1     -13.723  14.054  64.331  1.00  0.00     0.000 HD 
ENDBRANCH   4   6
ENDBRANCH   3   4
ENDBRANCH   2   3
TORSDOF 3
ENDMDL
MODEL       19
REMARK 921   NORMALIZED FREE ENERGY PREDICTED BY IDOCK:   -4.39 KCAL/MOL
REMARK 922        TOTAL FREE ENERGY PREDICTED BY IDOCK:   -5.61 KCAL/MOL
REMARK 923 INTER-LIGAND FREE ENERGY PREDICTED BY IDOCK:   -5.19 KCAL/MOL
REMARK 924 INTRA-LIGAND FREE ENERGY PREDICTED BY IDOCK:   -0.42 KCAL/MOL
REMARK 927      BINDING AFFINITY PREDICTED BY RF-SCORE:    0.00 PKD
ROOT
HETATM    1  C   UNL     1     -12.688  15.457  73.891  1.00  0.00    -0.698 C  
HETATM    2  C   UNL     1     -13.615  15.559  72.689  1.00  0.00    -0.564 C  
ENDROOT
BRANCH   2   3
HETATM    3  O   UNL     1     -13.330  14.460  71.815  1.00  0.00    -0.325 OA 
BRANCH   3   4
HETATM    4  C   UNL     1     -12.580  14.774  70.724  1.00  0.00    -0.349 C  
HETATM    5  O   UNL     1     -12.111  15.874  70.481  1.00  0.00    -0.375 OA 
BRANCH   4   6
HETATM    6  C   UNL     1     -12.286  13.530  69.968  1.00  0.00    -0.381 A  
HETATM    7  C   UNL     1     -12.204  12.305  70.657  1.00  0.00    -0.378 A  
HETATM    8  C   UNL     1     -11.795  11.144  70.000  1.00  0.00    -0.441 A  
HETATM    9  C   UNL     1     -11.463  11.196  68.648  1.00  0.00    -0.363 A  
HETATM   10  C   UNL     1     -11.553  12.402  67.949  1.00  0.00    -0.415 A  
HETATM   11  C   UNL     1     -11.962  13.563  68.607  1.00  0.00    -0.343 A  
HETATM   12  O   UNL     1     -12.058  14.727  67.898  1.00  0.00    -0.560 OA 
HETATM   13  H   UNL     1     -11.838  14.749  66.974  1.00  0.00     0.000 HD 
ENDBRANCH   4   6
ENDBRANCH   3   4
ENDBRANCH   2   3
TORSDOF 3
ENDMDL
MODEL       20
REMARK 921   NORMALIZED FREE ENERGY PREDICTED BY IDOCK:   -4.37 KCAL/MOL
REMARK 922        TOTAL FREE ENERGY PREDICTED BY IDOCK:   -5.59 KCAL/MOL
REMARK 923 INTER-LIGAND FREE ENERGY PREDICTED BY IDOCK:   -5.12 KCAL/MOL
REMARK 924 INTRA-LIGAND FREE ENERGY PREDICTED BY IDOCK:   -0.47 KCAL/MOL
REMARK 927      BINDING AFFINITY PREDICTED BY RF-SCORE:    0.00 PKD
ROOT
HETATM    1  C   UNL     1     -11.886  15.713  71.206  1.00  0.00    -0.473 C  
HETATM    2  C   UNL     1     -11.802  15.054  69.838  1.00  0.00    -0.324 C  
ENDROOT
BRANCH   2   3
HETATM    3  O   UNL     1     -11.954  16.076  68.845  1.00  0.00    -0.348 OA 
BRANCH   3   4
HETATM    4  C   UNL     1     -11.012  16.066  67.863  1.00  0.00    -0.327 C  
HETATM    5  O   UNL     1     -10.742  15.113  67.152  1.00  0.00    -0.296 OA 
BRANCH   4   6
HETATM    6  C   UNL     1     -10.487  17.445  67.686  1.00  0.00    -0.368 A  
HETATM    7  C   UNL     1     -10.147  18.206  68.821  1.00  0.00    -0.392 A  
HETATM    8  C   UNL     1      -9.782  19.547  68.695  1.00  0.00    -0.514 A  
HETATM    9  C   UNL     1      -9.756  20.140  67.435  1.00  0.00    -0.563 A  
HETATM   10  C   UNL     1     -10.078  19.393  66.300  1.00  0.00    -0.539 A  
HETATM   11  C   UNL     1     -10.442  18.051  66.426  1.00  0.00    -0.339 A  
HETATM   12  O   UNL     1     -10.736  17.337  65.299  1.00  0.00    -0.637 OA 
HETATM   13  H   UNL     1     -10.705  17.749  64.444  1.00  0.00     0.000 HD 
ENDBRANCH   4   6
ENDBRANCH   3   4
ENDBRANCH   2   3
TORSDOF 3
ENDMDL
MODEL       21
REMARK 921   NORMALIZED FREE ENERGY PREDICTED BY IDOCK:   -4.36 KCAL/MOL
REMARK 922        TOTAL FREE ENERGY PREDICTED BY IDOCK:   -5.57 KCAL/MOL
REMARK 923 INTER-LIGAND FREE ENERGY PREDICTED BY IDOCK:   -5.60 KCAL/MOL
REMARK 924 INTRA-LIGAND FREE ENERGY PREDICTED BY IDOCK:    0.03 KCAL/MOL
REMARK 927      BINDING AFFINITY PREDICTED BY RF-SCORE:    0.00 PKD
ROOT
HETATM    1  C   UNL     1     -10.519  17.208  67.699  1.00  0.00    -0.355 C  
HETATM    2  C   UNL     1     -10.297  17.747  66.294  1.00  0.00    -0.358 C  
ENDROOT
BRANCH   2   3
HETATM    3  O   UNL     1      -9.940  16.647  65.449  1.00  0.00    -0.565 OA 
BRANCH   3   4
HETATM    4  C   UNL     1     -10.964  16.128  64.720  1.00  0.00    -0.313 C  
HETATM    5  O   UNL     1     -11.570  16.710  63.835  1.00  0.00    -1.204 OA 
BRANCH   4   6
HETATM    6  C   UNL     1     -11.115  14.688  65.058  1.00  0.00    -0.401 A  
HETATM    7  C   UNL     1     -12.324  14.032  64.760  1.00  0.00    -0.437 A  
HETATM    8  C   UNL     1     -12.546  12.722  65.188  1.00  0.00    -0.513 A  
HETATM    9  C   UNL     1     -11.563  12.058  65.918  1.00  0.00    -0.364 A  
HETATM   10  C   UNL     1     -10.354  12.693  66.208  1.00  0.00    -0.269 A  
HETATM   11  C   UNL     1     -10.132  14.003  65.780  1.00  0.00    -0.327 A  
HETATM   12  O   UNL     1      -8.934  14.597  66.061  1.00  0.00    -0.493 OA 
HETATM   13  H   UNL     1      -8.267  14.131  66.551  1.00  0.00     0.000 HD 
ENDBRANCH   4   6
ENDBRANCH   3   4
ENDBRANCH   2   3
TORSDOF 3
ENDMDL
MODEL       22
REMARK 921   NORMALIZED FREE ENERGY PREDICTED BY IDOCK:   -4.32 KCAL/MOL
REMARK 922        TOTAL FREE ENERGY PREDICTED BY IDOCK:   -5.53 KCAL/MOL
REMARK 923 INTER-LIGAND FREE ENERGY PREDICTED BY IDOCK:   -5.13 KCAL/MOL
REMARK 924 INTRA-LIGAND FREE ENERGY PREDICTED BY IDOCK:   -0.41 KCAL/MOL
REMARK 927      BINDING AFFINITY PREDICTED BY RF-SCORE:    0.00 PKD
ROOT
HETATM    1  C   UNL     1     -10.574  15.210  67.648  1.00  0.00    -0.263 C  
HETATM    2  C   UNL     1     -11.558  15.821  68.634  1.00  0.00    -0.386 C  
ENDROOT
BRANCH   2   3
HETATM    3  O   UNL     1     -11.353  15.198  69.908  1.00  0.00    -0.251 OA 
BRANCH   3   4
HETATM    4  C   UNL     1     -12.492  14.877  70.579  1.00  0.00    -0.363 C  
HETATM    5  O   UNL     1     -13.419  15.637  70.805  1.00  0.00    -0.536 OA 
BRANCH   4   6
HETATM    6  C   UNL     1     -12.498  13.414  70.844  1.00  0.00    -0.439 A  
HETATM    7  C   UNL     1     -11.839  12.548  69.950  1.00  0.00    -0.373 A  
HETATM    8  C   UNL     1     -11.943  11.164  70.095  1.00  0.00    -0.449 A  
HETATM    9  C   UNL     1     -12.705  10.633  71.133  1.00  0.00    -0.522 A  
HETATM   10  C   UNL     1     -13.352  11.481  72.034  1.00  0.00    -0.397 A  
HETATM   11  C   UNL     1     -13.248  12.866  71.889  1.00  0.00    -0.423 A  
HETATM   12  O   UNL     1     -13.876  13.675  72.793  1.00  0.00    -0.727 OA 
HETATM   13  H   UNL     1     -14.385  13.303  73.503  1.00  0.00     0.000 HD 
ENDBRANCH   4   6
ENDBRANCH   3   4
ENDBRANCH   2   3
TORSDOF 3
ENDMDL
MODEL       23
REMARK 921   NORMALIZED FREE ENERGY PREDICTED BY IDOCK:   -4.32 KCAL/MOL
REMARK 922        TOTAL FREE ENERGY PREDICTED BY IDOCK:   -5.53 KCAL/MOL
REMARK 923 INTER-LIGAND FREE ENERGY PREDICTED BY IDOCK:   -5.15 KCAL/MOL
REMARK 924 INTRA-LIGAND FREE ENERGY PREDICTED BY IDOCK:   -0.38 KCAL/MOL
REMARK 927      BINDING AFFINITY PREDICTED BY RF-SCORE:    0.00 PKD
ROOT
HETATM    1  C   UNL     1     -12.532  12.810  65.053  1.00  0.00    -0.572 C  
HETATM    2  C   UNL     1     -12.367  13.959  66.036  1.00  0.00    -0.475 C  
ENDROOT
BRANCH   2   3
HETATM    3  O   UNL     1     -11.919  13.413  67.283  1.00  0.00    -0.362 OA 
BRANCH   3   4
HETATM    4  C   UNL     1     -11.691  14.331  68.261  1.00  0.00    -0.342 C  
HETATM    5  O   UNL     1     -11.299  15.473  68.084  1.00  0.00    -0.328 OA 
BRANCH   4   6
HETATM    6  C   UNL     1     -12.152  13.775  69.560  1.00  0.00    -0.386 A  
HETATM    7  C   UNL     1     -11.977  12.403  69.825  1.00  0.00    -0.359 A  
HETATM    8  C   UNL     1     -12.522  11.825  70.973  1.00  0.00    -0.411 A  
HETATM    9  C   UNL     1     -13.246  12.612  71.865  1.00  0.00    -0.504 A  
HETATM   10  C   UNL     1     -13.415  13.976  71.621  1.00  0.00    -0.438 A  
HETATM   11  C   UNL     1     -12.870  14.555  70.473  1.00  0.00    -0.304 A  
HETATM   12  O   UNL     1     -13.035  15.894  70.265  1.00  0.00    -0.673 OA 
HETATM   13  H   UNL     1     -13.522  16.424  70.885  1.00  0.00     0.000 HD 
ENDBRANCH   4   6
ENDBRANCH   3   4
ENDBRANCH   2   3
TORSDOF 3
ENDMDL
MODEL       24
REMARK 921   NORMALIZED FREE ENERGY PREDICTED BY IDOCK:   -4.32 KCAL/MOL
REMARK 922        TOTAL FREE ENERGY PREDICTED BY IDOCK:   -5.52 KCAL/MOL
REMARK 923 INTER-LIGAND FREE ENERGY PREDICTED BY IDOCK:   -5.14 KCAL/MOL
REMARK 924 INTRA-LIGAND FREE ENERGY PREDICTED BY IDOCK:   -0.38 KCAL/MOL
REMARK 927      BINDING AFFINITY PREDICTED BY RF-SCORE:    0.00 PKD
ROOT
HETATM    1  C   UNL     1     -11.065  10.721  67.671  1.00  0.00    -0.384 C  
HETATM    2  C   UNL     1     -11.143  10.871  69.183  1.00  0.00    -0.245 C  
ENDROOT
BRANCH   2   3
HETATM    3  O   UNL     1     -11.981  11.996  69.474  1.00  0.00    -0.303 OA 
BRANCH   3   4
HETATM    4  C   UNL     1     -12.485  12.025  70.737  1.00  0.00    -0.279 C  
HETATM    5  O   UNL     1     -12.699  11.048  71.436  1.00  0.00    -0.401 OA 
BRANCH   4   6
HETATM    6  C   UNL     1     -12.573  13.438  71.188  1.00  0.00    -0.430 A  
HETATM    7  C   UNL     1     -11.712  14.398  70.624  1.00  0.00    -0.315 A  
HETATM    8  C   UNL     1     -11.676  15.701  71.122  1.00  0.00    -0.461 A  
HETATM    9  C   UNL     1     -12.498  16.056  72.189  1.00  0.00    -0.524 A  
HETATM   10  C   UNL     1     -13.367  15.117  72.748  1.00  0.00    -0.596 A  
HETATM   11  C   UNL     1     -13.404  13.814  72.250  1.00  0.00    -0.521 A  
HETATM   12  O   UNL     1     -14.273  12.918  72.803  1.00  0.00    -0.683 OA 
HETATM   13  H   UNL     1     -14.837  13.173  73.524  1.00  0.00     0.000 HD 
ENDBRANCH   4   6
ENDBRANCH   3   4
ENDBRANCH   2   3
TORSDOF 3
ENDMDL
MODEL       25
REMARK 921   NORMALIZED FREE ENERGY PREDICTED BY IDOCK:   -4.32 KCAL/MOL
REMARK 922        TOTAL FREE ENERGY PREDICTED BY IDOCK:   -5.52 KCAL/MOL
REMARK 923 INTER-LIGAND FREE ENERGY PREDICTED BY IDOCK:   -5.19 KCAL/MOL
REMARK 924 INTRA-LIGAND FREE ENERGY PREDICTED BY IDOCK:   -0.33 KCAL/MOL
REMARK 927      BINDING AFFINITY PREDICTED BY RF-SCORE:    0.00 PKD
ROOT
HETATM    1  C   UNL     1     -13.513  15.314  72.922  1.00  0.00    -0.611 C  
HETATM    2  C   UNL     1     -14.228  14.284  72.061  1.00  0.00    -0.542 C  
ENDROOT
BRANCH   2   3
HETATM    3  O   UNL     1     -13.574  13.022  72.246  1.00  0.00    -0.549 OA 
BRANCH   3   4
HETATM    4  C   UNL     1     -12.765  12.640  71.221  1.00  0.00    -0.257 C  
HETATM    5  O   UNL     1     -12.198  13.395  70.448  1.00  0.00    -0.343 OA 
BRANCH   4   6
HETATM    6  C   UNL     1     -12.550  11.172  71.299  1.00  0.00    -0.503 A  
HETATM    7  C   UNL     1     -13.401  10.391  72.104  1.00  0.00    -0.374 A  
HETATM    8  C   UNL     1     -13.142   9.034  72.306  1.00  0.00    -0.508 A  
HETATM    9  C   UNL     1     -12.030   8.447  71.709  1.00  0.00    -0.380 A  
HETATM   10  C   UNL     1     -11.186   9.207  70.897  1.00  0.00    -0.359 A  
HETATM   11  C   UNL     1     -11.444  10.563  70.694  1.00  0.00    -0.327 A  
HETATM   12  O   UNL     1     -10.613  11.282  69.883  1.00  0.00    -0.436 OA 
HETATM   13  H   UNL     1      -9.863  10.869  69.472  1.00  0.00     0.000 HD 
ENDBRANCH   4   6
ENDBRANCH   3   4
ENDBRANCH   2   3
TORSDOF 3
ENDMDL
MODEL       26
REMARK 921   NORMALIZED FREE ENERGY PREDICTED BY IDOCK:   -4.29 KCAL/MOL
REMARK 922        TOTAL FREE ENERGY PREDICTED BY IDOCK:   -5.49 KCAL/MOL
REMARK 923 INTER-LIGAND FREE ENERGY PREDICTED BY IDOCK:   -5.01 KCAL/MOL
REMARK 924 INTRA-LIGAND FREE ENERGY PREDICTED BY IDOCK:   -0.48 KCAL/MOL
REMARK 927      BINDING AFFINITY PREDICTED BY RF-SCORE:    0.00 PKD
ROOT
HETATM    1  C   UNL     1     -13.981  13.693  72.308  1.00  0.00    -0.661 C  
HETATM    2  C   UNL     1     -14.039  15.206  72.162  1.00  0.00    -0.554 C  
ENDROOT
BRANCH   2   3
HETATM    3  O   UNL     1     -13.610  15.540  70.836  1.00  0.00    -0.520 OA 
BRANCH   3   4
HETATM    4  C   UNL     1     -12.284  15.822  70.717  1.00  0.00    -0.399 C  
HETATM    5  O   UNL     1     -11.548  16.164  71.628  1.00  0.00    -0.453 OA 
BRANCH   4   6
HETATM    6  C   UNL     1     -11.844  15.487  69.338  1.00  0.00    -0.392 A  
HETATM    7  C   UNL     1     -12.122  14.210  68.815  1.00  0.00    -0.326 A  
HETATM    8  C   UNL     1     -11.604  13.818  67.580  1.00  0.00    -0.387 A  
HETATM    9  C   UNL     1     -10.801  14.698  66.857  1.00  0.00    -0.305 A  
HETATM   10  C   UNL     1     -10.529  15.972  67.358  1.00  0.00    -0.308 A  
HETATM   11  C   UNL     1     -11.048  16.365  68.593  1.00  0.00    -0.352 A  
HETATM   12  O   UNL     1     -10.780  17.622  69.054  1.00  0.00    -0.355 OA 
HETATM   13  H   UNL     1     -10.240  18.218  68.549  1.00  0.00     0.000 HD 
ENDBRANCH   4   6
ENDBRANCH   3   4
ENDBRANCH   2   3
TORSDOF 3
ENDMDL
MODEL       27
REMARK 921   NORMALIZED FREE ENERGY PREDICTED BY IDOCK:   -4.27 KCAL/MOL
REMARK 922        TOTAL FREE ENERGY PREDICTED BY IDOCK:   -5.47 KCAL/MOL
REMARK 923 INTER-LIGAND FREE ENERGY PREDICTED BY IDOCK:   -5.08 KCAL/MOL
REMARK 924 INTRA-LIGAND FREE ENERGY PREDICTED BY IDOCK:   -0.39 KCAL/MOL
REMARK 927      BINDING AFFINITY PREDICTED BY RF-SCORE:    0.00 PKD
ROOT
HETATM    1  C   UNL     1     -10.739  15.708  66.624  1.00  0.00    -0.296 C  
HETATM    2  C   UNL     1     -10.113  14.881  65.511  1.00  0.00    -0.370 C  
ENDROOT
BRANCH   2   3
HETATM    3  O   UNL     1     -11.155  14.502  64.603  1.00  0.00    -0.382 OA 
BRANCH   3   4
HETATM    4  C   UNL     1     -12.078  13.644  65.115  1.00  0.00    -0.403 C  
HETATM    5  O   UNL     1     -13.266  13.883  65.255  1.00  0.00    -0.774 OA 
BRANCH   4   6
HETATM    6  C   UNL     1     -11.440  12.317  65.320  1.00  0.00    -0.399 A  
HETATM    7  C   UNL     1     -11.367  11.779  66.619  1.00  0.00    -0.381 A  
HETATM    8  C   UNL     1     -10.655  10.603  66.863  1.00  0.00    -0.311 A  
HETATM    9  C   UNL     1     -10.008   9.957  65.812  1.00  0.00    -0.347 A  
HETATM   10  C   UNL     1     -10.084  10.473  64.517  1.00  0.00    -0.402 A  
HETATM   11  C   UNL     1     -10.797  11.648  64.273  1.00  0.00    -0.359 A  
HETATM   12  O   UNL     1     -10.871  12.124  62.995  1.00  0.00    -0.656 OA 
HETATM   13  H   UNL     1     -10.434  11.670  62.284  1.00  0.00     0.000 HD 
ENDBRANCH   4   6
ENDBRANCH   3   4
ENDBRANCH   2   3
TORSDOF 3
ENDMDL
MODEL       28
REMARK 921   NORMALIZED FREE ENERGY PREDICTED BY IDOCK:   -4.27 KCAL/MOL
REMARK 922        TOTAL FREE ENERGY PREDICTED BY IDOCK:   -5.47 KCAL/MOL
REMARK 923 INTER-LIGAND FREE ENERGY PREDICTED BY IDOCK:   -5.09 KCAL/MOL
REMARK 924 INTRA-LIGAND FREE ENERGY PREDICTED BY IDOCK:   -0.37 KCAL/MOL
REMARK 927      BINDING AFFINITY PREDICTED BY RF-SCORE:    0.00 PKD
ROOT
HETATM    1  C   UNL     1     -11.222  11.162  67.420  1.00  0.00    -0.363 C  
HETATM    2  C   UNL     1     -10.820  12.343  68.290  1.00  0.00    -0.237 C  
ENDROOT
BRANCH   2   3
HETATM    3  O   UNL     1     -12.015  12.920  68.833  1.00  0.00    -0.300 OA 
BRANCH   3   4
HETATM    4  C   UNL     1     -11.932  14.247  69.118  1.00  0.00    -0.335 C  
HETATM    5  O   UNL     1     -11.768  15.138  68.301  1.00  0.00    -0.338 OA 
BRANCH   4   6
HETATM    6  C   UNL     1     -12.240  14.450  70.558  1.00  0.00    -0.411 A  
HETATM    7  C   UNL     1     -12.917  13.440  71.268  1.00  0.00    -0.368 A  
HETATM    8  C   UNL     1     -13.341  13.656  72.580  1.00  0.00    -0.638 A  
HETATM    9  C   UNL     1     -13.095  14.881  73.193  1.00  0.00    -0.615 A  
HETATM   10  C   UNL     1     -12.412  15.886  72.505  1.00  0.00    -0.566 A  
HETATM   11  C   UNL     1     -11.987  15.671  71.193  1.00  0.00    -0.409 A  
HETATM   12  O   UNL     1     -11.306  16.663  70.546  1.00  0.00    -0.512 OA 
HETATM   13  H   UNL     1     -11.135  17.491  70.977  1.00  0.00     0.000 HD 
ENDBRANCH   4   6
ENDBRANCH   3   4
ENDBRANCH   2   3
TORSDOF 3
ENDMDL
MODEL       29
REMARK 921   NORMALIZED FREE ENERGY PREDICTED BY IDOCK:   -4.21 KCAL/MOL
REMARK 922        TOTAL FREE ENERGY PREDICTED BY IDOCK:   -5.39 KCAL/MOL
REMARK 923 INTER-LIGAND FREE ENERGY PREDICTED BY IDOCK:   -5.02 KCAL/MOL
REMARK 924 INTRA-LIGAND FREE ENERGY PREDICTED BY IDOCK:   -0.37 KCAL/MOL
REMARK 927      BINDING AFFINITY PREDICTED BY RF-SCORE:    0.00 PKD
ROOT
HETATM    1  C   UNL     1     -11.686  13.283  65.517  1.00  0.00    -0.376 C  
HETATM    2  C   UNL     1     -11.957  14.167  66.725  1.00  0.00    -0.447 C  
ENDROOT
BRANCH   2   3
HETATM    3  O   UNL     1     -11.754  13.379  67.904  1.00  0.00    -0.320 OA 
BRANCH   3   4
HETATM    4  C   UNL     1     -11.213  14.051  68.957  1.00  0.00    -0.276 C  
HETATM    5  O   UNL     1     -10.170  14.681  68.933  1.00  0.00    -0.234 OA 
BRANCH   4   6
HETATM    6  C   UNL     1     -12.179  14.032  70.086  1.00  0.00    -0.425 A  
HETATM    7  C   UNL     1     -12.833  15.223  70.455  1.00  0.00    -0.421 A  
HETATM    8  C   UNL     1     -13.638  15.269  71.594  1.00  0.00    -0.586 A  
HETATM    9  C   UNL     1     -13.796  14.126  72.375  1.00  0.00    -0.638 A  
HETATM   10  C   UNL     1     -13.165  12.935  72.012  1.00  0.00    -0.549 A  
HETATM   11  C   UNL     1     -12.359  12.889  70.872  1.00  0.00    -0.275 A  
HETATM   12  O   UNL     1     -11.765  11.708  70.529  1.00  0.00    -0.477 OA 
HETATM   13  H   UNL     1     -11.888  10.932  71.062  1.00  0.00     0.000 HD 
ENDBRANCH   4   6
ENDBRANCH   3   4
ENDBRANCH   2   3
TORSDOF 3
ENDMDL
MODEL       30
REMARK 921   NORMALIZED FREE ENERGY PREDICTED BY IDOCK:   -4.20 KCAL/MOL
REMARK 922        TOTAL FREE ENERGY PREDICTED BY IDOCK:   -5.39 KCAL/MOL
REMARK 923 INTER-LIGAND FREE ENERGY PREDICTED BY IDOCK:   -5.06 KCAL/MOL
REMARK 924 INTRA-LIGAND FREE ENERGY PREDICTED BY IDOCK:   -0.32 KCAL/MOL
REMARK 927      BINDING AFFINITY PREDICTED BY RF-SCORE:    0.00 PKD
ROOT
HETATM    1  C   UNL     1     -10.567  17.691  67.635  1.00  0.00    -0.364 C  
HETATM    2  C   UNL     1     -10.654  16.890  68.925  1.00  0.00    -0.353 C  
ENDROOT
BRANCH   2   3
HETATM    3  O   UNL     1     -11.739  15.963  68.799  1.00  0.00    -0.387 OA 
BRANCH   3   4
HETATM    4  C   UNL     1     -11.475  14.706  69.248  1.00  0.00    -0.291 C  
HETATM    5  O   UNL     1     -10.523  14.021  68.913  1.00  0.00    -0.236 OA 
BRANCH   4   6
HETATM    6  C   UNL     1     -12.436  14.370  70.331  1.00  0.00    -0.420 A  
HETATM    7  C   UNL     1     -13.217  15.393  70.903  1.00  0.00    -0.512 A  
HETATM    8  C   UNL     1     -14.025  15.135  72.011  1.00  0.00    -0.629 A  
HETATM    9  C   UNL     1     -14.060  13.854  72.558  1.00  0.00    -0.487 A  
HETATM   10  C   UNL     1     -13.301  12.828  71.991  1.00  0.00    -0.565 A  
HETATM   11  C   UNL     1     -12.493  13.086  70.882  1.00  0.00    -0.310 A  
HETATM   12  O   UNL     1     -11.773  12.062  70.336  1.00  0.00    -0.506 OA 
HETATM   13  H   UNL     1     -11.811  11.190  70.710  1.00  0.00     0.000 HD 
ENDBRANCH   4   6
ENDBRANCH   3   4
ENDBRANCH   2   3
TORSDOF 3
ENDMDL
MODEL       31
REMARK 921   NORMALIZED FREE ENERGY PREDICTED BY IDOCK:   -4.20 KCAL/MOL
REMARK 922        TOTAL FREE ENERGY PREDICTED BY IDOCK:   -5.38 KCAL/MOL
REMARK 923 INTER-LIGAND FREE ENERGY PREDICTED BY IDOCK:   -4.95 KCAL/MOL
REMARK 924 INTRA-LIGAND FREE ENERGY PREDICTED BY IDOCK:   -0.43 KCAL/MOL
REMARK 927      BINDING AFFINITY PREDICTED BY RF-SCORE:    0.00 PKD
ROOT
HETATM    1  C   UNL     1     -11.796   6.709  71.475  1.00  0.00    -0.387 C  
HETATM    2  C   UNL     1     -11.696   7.809  72.521  1.00  0.00    -0.339 C  
ENDROOT
BRANCH   2   3
HETATM    3  O   UNL     1     -11.636   9.067  71.837  1.00  0.00    -0.345 OA 
BRANCH   3   4
HETATM    4  C   UNL     1     -12.801   9.770  71.827  1.00  0.00    -0.434 C  
HETATM    5  O   UNL     1     -13.808   9.480  72.450  1.00  0.00    -0.424 OA 
BRANCH   4   6
HETATM    6  C   UNL     1     -12.593  11.034  71.072  1.00  0.00    -0.512 A  
HETATM    7  C   UNL     1     -11.911  10.998  69.841  1.00  0.00    -0.431 A  
HETATM    8  C   UNL     1     -11.580  12.180  69.177  1.00  0.00    -0.374 A  
HETATM    9  C   UNL     1     -11.927  13.408  69.737  1.00  0.00    -0.396 A  
HETATM   10  C   UNL     1     -12.616  13.456  70.950  1.00  0.00    -0.406 A  
HETATM   11  C   UNL     1     -12.947  12.274  71.615  1.00  0.00    -0.311 A  
HETATM   12  O   UNL     1     -13.636  12.346  72.792  1.00  0.00    -0.597 OA 
HETATM   13  H   UNL     1     -13.876  13.188  73.160  1.00  0.00     0.000 HD 
ENDBRANCH   4   6
ENDBRANCH   3   4
ENDBRANCH   2   3
TORSDOF 3
ENDMDL
MODEL       32
REMARK 921   NORMALIZED FREE ENERGY PREDICTED BY IDOCK:   -4.19 KCAL/MOL
REMARK 922        TOTAL FREE ENERGY PREDICTED BY IDOCK:   -5.37 KCAL/MOL
REMARK 923 INTER-LIGAND FREE ENERGY PREDICTED BY IDOCK:   -5.00 KCAL/MOL
REMARK 924 INTRA-LIGAND FREE ENERGY PREDICTED BY IDOCK:   -0.37 KCAL/MOL
REMARK 927      BINDING AFFINITY PREDICTED BY RF-SCORE:    0.00 PKD
ROOT
HETATM    1  C   UNL     1     -12.363  11.710  70.640  1.00  0.00    -0.437 C  
HETATM    2  C   UNL     1     -11.762  10.859  69.532  1.00  0.00    -0.328 C  
ENDROOT
BRANCH   2   3
HETATM    3  O   UNL     1     -12.070  11.483  68.279  1.00  0.00    -0.580 OA 
BRANCH   3   4
HETATM    4  C   UNL     1     -10.990  11.817  67.523  1.00  0.00    -0.256 C  
HETATM    5  O   UNL     1      -9.825  11.634  67.834  1.00  0.00    -0.175 OA 
BRANCH   4   6
HETATM    6  C   UNL     1     -11.459  12.285  66.192  1.00  0.00    -0.429 A  
HETATM    7  C   UNL     1     -11.178  11.511  65.050  1.00  0.00    -0.226 A  
HETATM    8  C   UNL     1     -11.484  11.990  63.775  1.00  0.00    -0.547 A  
HETATM    9  C   UNL     1     -12.071  13.244  63.630  1.00  0.00    -0.551 A  
HETATM   10  C   UNL     1     -12.368  14.014  64.756  1.00  0.00    -0.437 A  
HETATM   11  C   UNL     1     -12.063  13.536  66.031  1.00  0.00    -0.445 A  
HETATM   12  O   UNL     1     -12.378  14.302  67.118  1.00  0.00    -0.590 OA 
HETATM   13  H   UNL     1     -12.788  15.151  67.008  1.00  0.00     0.000 HD 
ENDBRANCH   4   6
ENDBRANCH   3   4
ENDBRANCH   2   3
TORSDOF 3
ENDMDL
MODEL       33
REMARK 921   NORMALIZED FREE ENERGY PREDICTED BY IDOCK:   -4.15 KCAL/MOL
REMARK 922        TOTAL FREE ENERGY PREDICTED BY IDOCK:   -5.33 KCAL/MOL
REMARK 923 INTER-LIGAND FREE ENERGY PREDICTED BY IDOCK:   -4.84 KCAL/MOL
REMARK 924 INTRA-LIGAND FREE ENERGY PREDICTED BY IDOCK:   -0.49 KCAL/MOL
REMARK 927      BINDING AFFINITY PREDICTED BY RF-SCORE:    0.00 PKD
ROOT
HETATM    1  C   UNL     1     -10.339  12.253  63.270  1.00  0.00    -0.279 C  
HETATM    2  C   UNL     1     -11.731  11.909  63.777  1.00  0.00    -0.457 C  
ENDROOT
BRANCH   2   3
HETATM    3  O   UNL     1     -12.242  13.051  64.477  1.00  0.00    -0.383 OA 
BRANCH   3   4
HETATM    4  C   UNL     1     -12.061  13.024  65.825  1.00  0.00    -0.454 C  
HETATM    5  O   UNL     1     -12.133  12.031  66.530  1.00  0.00    -0.617 OA 
BRANCH   4   6
HETATM    6  C   UNL     1     -11.599  14.363  66.275  1.00  0.00    -0.377 A  
HETATM    7  C   UNL     1     -10.925  15.202  65.367  1.00  0.00    -0.381 A  
HETATM    8  C   UNL     1     -10.359  16.404  65.794  1.00  0.00    -0.388 A  
HETATM    9  C   UNL     1     -10.460  16.778  67.132  1.00  0.00    -0.299 A  
HETATM   10  C   UNL     1     -11.138  15.962  68.040  1.00  0.00    -0.334 A  
HETATM   11  C   UNL     1     -11.704  14.759  67.613  1.00  0.00    -0.341 A  
HETATM   12  O   UNL     1     -12.376  13.986  68.516  1.00  0.00    -0.533 OA 
HETATM   13  H   UNL     1     -12.447  14.255  69.424  1.00  0.00     0.000 HD 
ENDBRANCH   4   6
ENDBRANCH   3   4
ENDBRANCH   2   3
TORSDOF 3
ENDMDL
MODEL       34
REMARK 921   NORMALIZED FREE ENERGY PREDICTED BY IDOCK:   -4.14 KCAL/MOL
REMARK 922        TOTAL FREE ENERGY PREDICTED BY IDOCK:   -5.32 KCAL/MOL
REMARK 923 INTER-LIGAND FREE ENERGY PREDICTED BY IDOCK:   -4.90 KCAL/MOL
REMARK 924 INTRA-LIGAND FREE ENERGY PREDICTED BY IDOCK:   -0.42 KCAL/MOL
REMARK 927      BINDING AFFINITY PREDICTED BY RF-SCORE:    0.00 PKD
ROOT
HETATM    1  C   UNL     1     -11.854  13.303  68.381  1.00  0.00    -0.395 C  
HETATM    2  C   UNL     1     -11.495  13.620  66.937  1.00  0.00    -0.345 C  
ENDROOT
BRANCH   2   3
HETATM    3  O   UNL     1     -11.361  15.042  66.816  1.00  0.00    -0.341 OA 
BRANCH   3   4
HETATM    4  C   UNL     1     -10.079  15.495  66.770  1.00  0.00    -0.264 C  
HETATM    5  O   UNL     1      -9.095  14.812  66.544  1.00  0.00    -0.265 OA 
BRANCH   4   6
HETATM    6  C   UNL     1     -10.090  16.978  66.874  1.00  0.00    -0.298 A  
HETATM    7  C   UNL     1      -9.654  17.589  68.065  1.00  0.00    -0.282 A  
HETATM    8  C   UNL     1      -9.780  18.968  68.244  1.00  0.00    -0.419 A  
HETATM    9  C   UNL     1     -10.344  19.746  67.237  1.00  0.00    -0.581 A  
HETATM   10  C   UNL     1     -10.768  19.154  66.045  1.00  0.00    -0.451 A  
HETATM   11  C   UNL     1     -10.641  17.775  65.866  1.00  0.00    -0.205 A  
HETATM   12  O   UNL     1     -11.048  17.221  64.685  1.00  0.00    -1.052 OA 
HETATM   13  H   UNL     1     -11.422  17.763  64.001  1.00  0.00     0.000 HD 
ENDBRANCH   4   6
ENDBRANCH   3   4
ENDBRANCH   2   3
TORSDOF 3
ENDMDL
MODEL       35
REMARK 921   NORMALIZED FREE ENERGY PREDICTED BY IDOCK:   -4.14 KCAL/MOL
REMARK 922        TOTAL FREE ENERGY PREDICTED BY IDOCK:   -5.31 KCAL/MOL
REMARK 923 INTER-LIGAND FREE ENERGY PREDICTED BY IDOCK:   -4.88 KCAL/MOL
REMARK 924 INTRA-LIGAND FREE ENERGY PREDICTED BY IDOCK:   -0.44 KCAL/MOL
REMARK 927      BINDING AFFINITY PREDICTED BY RF-SCORE:    0.00 PKD
ROOT
HETATM    1  C   UNL     1     -10.963  11.766  63.493  1.00  0.00    -0.499 C  
HETATM    2  C   UNL     1     -10.418  12.614  64.631  1.00  0.00    -0.337 C  
ENDROOT
BRANCH   2   3
HETATM    3  O   UNL     1     -10.936  13.942  64.483  1.00  0.00    -0.388 OA 
BRANCH   3   4
HETATM    4  C   UNL     1     -11.998  14.236  65.281  1.00  0.00    -0.389 C  
HETATM    5  O   UNL     1     -13.154  13.911  65.068  1.00  0.00    -0.749 OA 
BRANCH   4   6
HETATM    6  C   UNL     1     -11.500  14.869  66.530  1.00  0.00    -0.286 A  
HETATM    7  C   UNL     1     -11.880  14.332  67.775  1.00  0.00    -0.414 A  
HETATM    8  C   UNL     1     -11.543  14.983  68.962  1.00  0.00    -0.342 A  
HETATM    9  C   UNL     1     -10.825  16.176  68.917  1.00  0.00    -0.305 A  
HETATM   10  C   UNL     1     -10.430  16.711  67.689  1.00  0.00    -0.320 A  
HETATM   11  C   UNL     1     -10.767  16.060  66.501  1.00  0.00    -0.238 A  
HETATM   12  O   UNL     1     -10.355  16.595  65.314  1.00  0.00    -0.609 OA 
HETATM   13  H   UNL     1      -9.858  17.404  65.295  1.00  0.00     0.000 HD 
ENDBRANCH   4   6
ENDBRANCH   3   4
ENDBRANCH   2   3
TORSDOF 3
ENDMDL
MODEL       36
REMARK 921   NORMALIZED FREE ENERGY PREDICTED BY IDOCK:   -4.12 KCAL/MOL
REMARK 922        TOTAL FREE ENERGY PREDICTED BY IDOCK:   -5.30 KCAL/MOL
REMARK 923 INTER-LIGAND FREE ENERGY PREDICTED BY IDOCK:   -4.84 KCAL/MOL
REMARK 924 INTRA-LIGAND FREE ENERGY PREDICTED BY IDOCK:   -0.46 KCAL/MOL
REMARK 927      BINDING AFFINITY PREDICTED BY RF-SCORE:    0.00 PKD
ROOT
HETATM    1  C   UNL     1     -11.811  14.871  67.935  1.00  0.00    -0.286 C  
HETATM    2  C   UNL     1     -11.445  14.803  66.460  1.00  0.00    -0.327 C  
ENDROOT
BRANCH   2   3
HETATM    3  O   UNL     1     -10.291  15.628  66.252  1.00  0.00    -0.281 OA 
BRANCH   3   4
HETATM    4  C   UNL     1     -10.526  16.780  65.567  1.00  0.00    -0.237 C  
HETATM    5  O   UNL     1     -11.203  16.877  64.556  1.00  0.00    -1.057 OA 
BRANCH   4   6
HETATM    6  C   UNL     1      -9.967  17.921  66.338  1.00  0.00    -0.358 A  
HETATM    7  C   UNL     1     -10.844  18.855  66.922  1.00  0.00    -0.347 A  
HETATM    8  C   UNL     1     -10.349  20.009  67.532  1.00  0.00    -0.519 A  
HETATM    9  C   UNL     1      -8.976  20.240  67.564  1.00  0.00    -0.435 A  
HETATM   10  C   UNL     1      -8.096  19.314  67.000  1.00  0.00    -0.284 A  
HETATM   11  C   UNL     1      -8.590  18.160  66.390  1.00  0.00    -0.229 A  
HETATM   12  O   UNL     1      -7.707  17.262  65.860  1.00  0.00    -0.480 OA 
HETATM   13  H   UNL     1      -6.772  17.424  65.896  1.00  0.00     0.000 HD 
ENDBRANCH   4   6
ENDBRANCH   3   4
ENDBRANCH   2   3
TORSDOF 3
ENDMDL
MODEL       37
REMARK 921   NORMALIZED FREE ENERGY PREDICTED BY IDOCK:   -4.11 KCAL/MOL
REMARK 922        TOTAL FREE ENERGY PREDICTED BY IDOCK:   -5.28 KCAL/MOL
REMARK 923 INTER-LIGAND FREE ENERGY PREDICTED BY IDOCK:   -4.90 KCAL/MOL
REMARK 924 INTRA-LIGAND FREE ENERGY PREDICTED BY IDOCK:   -0.39 KCAL/MOL
REMARK 927      BINDING AFFINITY PREDICTED BY RF-SCORE:    0.00 PKD
ROOT
HETATM    1  C   UNL     1     -14.238  13.627  72.349  1.00  0.00    -0.481 C  
HETATM    2  C   UNL     1     -13.037  12.902  71.761  1.00  0.00    -0.360 C  
ENDROOT
BRANCH   2   3
HETATM    3  O   UNL     1     -13.180  11.505  72.046  1.00  0.00    -0.509 OA 
BRANCH   3   4
HETATM    4  C   UNL     1     -12.801  10.673  71.039  1.00  0.00    -0.402 C  
HETATM    5  O   UNL     1     -13.094  10.806  69.863  1.00  0.00    -0.075 OA 
BRANCH   4   6
HETATM    6  C   UNL     1     -11.838   9.675  71.576  1.00  0.00    -0.483 A  
HETATM    7  C   UNL     1     -10.539   9.611  71.037  1.00  0.00    -0.362 A  
HETATM    8  C   UNL     1      -9.659   8.598  71.422  1.00  0.00    -0.313 A  
HETATM    9  C   UNL     1     -10.069   7.641  72.347  1.00  0.00    -0.265 A  
HETATM   10  C   UNL     1     -11.351   7.702  72.899  1.00  0.00    -0.394 A  
HETATM   11  C   UNL     1     -12.231   8.715  72.514  1.00  0.00    -0.303 A  
HETATM   12  O   UNL     1     -13.473   8.763  73.081  1.00  0.00    -0.953 OA 
HETATM   13  H   UNL     1     -13.739   8.111  73.718  1.00  0.00     0.000 HD 
ENDBRANCH   4   6
ENDBRANCH   3   4
ENDBRANCH   2   3
TORSDOF 3
ENDMDL
MODEL       38
REMARK 921   NORMALIZED FREE ENERGY PREDICTED BY IDOCK:   -4.11 KCAL/MOL
REMARK 922        TOTAL FREE ENERGY PREDICTED BY IDOCK:   -5.28 KCAL/MOL
REMARK 923 INTER-LIGAND FREE ENERGY PREDICTED BY IDOCK:   -4.92 KCAL/MOL
REMARK 924 INTRA-LIGAND FREE ENERGY PREDICTED BY IDOCK:   -0.36 KCAL/MOL
REMARK 927      BINDING AFFINITY PREDICTED BY RF-SCORE:    0.00 PKD
ROOT
HETATM    1  C   UNL     1     -11.952  15.935  72.006  1.00  0.00    -0.602 C  
HETATM    2  C   UNL     1     -13.066  15.357  71.147  1.00  0.00    -0.498 C  
ENDROOT
BRANCH   2   3
HETATM    3  O   UNL     1     -12.514  15.039  69.863  1.00  0.00    -0.297 OA 
BRANCH   3   4
HETATM    4  C   UNL     1     -12.158  13.736  69.698  1.00  0.00    -0.336 C  
HETATM    5  O   UNL     1     -12.264  12.861  70.541  1.00  0.00    -0.368 OA 
BRANCH   4   6
HETATM    6  C   UNL     1     -11.777  13.518  68.278  1.00  0.00    -0.394 A  
HETATM    7  C   UNL     1     -11.439  14.624  67.475  1.00  0.00    -0.378 A  
HETATM    8  C   UNL     1     -11.211  14.467  66.107  1.00  0.00    -0.336 A  
HETATM    9  C   UNL     1     -11.321  13.205  65.529  1.00  0.00    -0.325 A  
HETATM   10  C   UNL     1     -11.643  12.098  66.316  1.00  0.00    -0.424 A  
HETATM   11  C   UNL     1     -11.870  12.254  67.685  1.00  0.00    -0.264 A  
HETATM   12  O   UNL     1     -12.167  11.153  68.437  1.00  0.00    -0.703 OA 
HETATM   13  H   UNL     1     -12.229  10.295  68.034  1.00  0.00     0.000 HD 
ENDBRANCH   4   6
ENDBRANCH   3   4
ENDBRANCH   2   3
TORSDOF 3
ENDMDL
MODEL       39
REMARK 921   NORMALIZED FREE ENERGY PREDICTED BY IDOCK:   -4.10 KCAL/MOL
REMARK 922        TOTAL FREE ENERGY PREDICTED BY IDOCK:   -5.27 KCAL/MOL
REMARK 923 INTER-LIGAND FREE ENERGY PREDICTED BY IDOCK:   -4.88 KCAL/MOL
REMARK 924 INTRA-LIGAND FREE ENERGY PREDICTED BY IDOCK:   -0.39 KCAL/MOL
REMARK 927      BINDING AFFINITY PREDICTED BY RF-SCORE:    0.00 PKD
ROOT
HETATM    1  C   UNL     1     -12.596  11.862  63.474  1.00  0.00    -0.579 C  
HETATM    2  C   UNL     1     -12.058  13.281  63.578  1.00  0.00    -0.482 C  
ENDROOT
BRANCH   2   3
HETATM    3  O   UNL     1     -12.412  13.795  64.868  1.00  0.00    -0.498 OA 
BRANCH   3   4
HETATM    4  C   UNL     1     -11.412  14.449  65.519  1.00  0.00    -0.340 C  
HETATM    5  O   UNL     1     -10.524  15.094  64.987  1.00  0.00    -0.398 OA 
BRANCH   4   6
HETATM    6  C   UNL     1     -11.671  14.390  66.981  1.00  0.00    -0.420 A  
HETATM    7  C   UNL     1     -11.502  15.551  67.760  1.00  0.00    -0.247 A  
HETATM    8  C   UNL     1     -11.603  15.495  69.151  1.00  0.00    -0.374 A  
HETATM    9  C   UNL     1     -11.872  14.280  69.776  1.00  0.00    -0.380 A  
HETATM   10  C   UNL     1     -12.054  13.124  69.014  1.00  0.00    -0.240 A  
HETATM   11  C   UNL     1     -11.954  13.179  67.623  1.00  0.00    -0.315 A  
HETATM   12  O   UNL     1     -12.153  12.038  66.899  1.00  0.00    -0.608 OA 
HETATM   13  H   UNL     1     -12.345  11.216  67.335  1.00  0.00     0.000 HD 
ENDBRANCH   4   6
ENDBRANCH   3   4
ENDBRANCH   2   3
TORSDOF 3
ENDMDL
MODEL       40
REMARK 921   NORMALIZED FREE ENERGY PREDICTED BY IDOCK:   -4.10 KCAL/MOL
REMARK 922        TOTAL FREE ENERGY PREDICTED BY IDOCK:   -5.27 KCAL/MOL
REMARK 923 INTER-LIGAND FREE ENERGY PREDICTED BY IDOCK:   -4.80 KCAL/MOL
REMARK 924 INTRA-LIGAND FREE ENERGY PREDICTED BY IDOCK:   -0.46 KCAL/MOL
REMARK 927      BINDING AFFINITY PREDICTED BY RF-SCORE:    0.00 PKD
ROOT
HETATM    1  C   UNL     1     -10.740  13.408  67.052  1.00  0.00    -0.271 C  
HETATM    2  C   UNL     1     -11.337  12.390  68.011  1.00  0.00    -0.287 C  
ENDROOT
BRANCH   2   3
HETATM    3  O   UNL     1     -12.137  13.099  68.967  1.00  0.00    -0.291 OA 
BRANCH   3   4
HETATM    4  C   UNL     1     -12.083  12.609  70.235  1.00  0.00    -0.294 C  
HETATM    5  O   UNL     1     -11.752  11.476  70.543  1.00  0.00    -0.309 OA 
BRANCH   4   6
HETATM    6  C   UNL     1     -12.330  13.721  71.190  1.00  0.00    -0.428 A  
HETATM    7  C   UNL     1     -13.477  13.688  72.006  1.00  0.00    -0.573 A  
HETATM    8  C   UNL     1     -13.808  14.779  72.812  1.00  0.00    -0.401 A  
HETATM    9  C   UNL     1     -12.998  15.911  72.808  1.00  0.00    -0.575 A  
HETATM   10  C   UNL     1     -11.850  15.951  72.014  1.00  0.00    -0.609 A  
HETATM   11  C   UNL     1     -11.518  14.860  71.208  1.00  0.00    -0.271 A  
HETATM   12  O   UNL     1     -10.382  14.916  70.453  1.00  0.00    -0.494 OA 
HETATM   13  H   UNL     1      -9.831  15.690  70.465  1.00  0.00     0.000 HD 
ENDBRANCH   4   6
ENDBRANCH   3   4
ENDBRANCH   2   3
TORSDOF 3
ENDMDL
MODEL       41
REMARK 921   NORMALIZED FREE ENERGY PREDICTED BY IDOCK:   -4.07 KCAL/MOL
REMARK 922        TOTAL FREE ENERGY PREDICTED BY IDOCK:   -5.24 KCAL/MOL
REMARK 923 INTER-LIGAND FREE ENERGY PREDICTED BY IDOCK:   -4.90 KCAL/MOL
REMARK 924 INTRA-LIGAND FREE ENERGY PREDICTED BY IDOCK:   -0.34 KCAL/MOL
REMARK 927      BINDING AFFINITY PREDICTED BY RF-SCORE:    0.00 PKD
ROOT
HETATM    1  C   UNL     1     -12.400  11.045  70.448  1.00  0.00    -0.442 C  
HETATM    2  C   UNL     1     -11.386  10.963  69.318  1.00  0.00    -0.277 C  
ENDROOT
BRANCH   2   3
HETATM    3  O   UNL     1     -12.067  11.249  68.090  1.00  0.00    -0.635 OA 
BRANCH   3   4
HETATM    4  C   UNL     1     -11.778  12.460  67.541  1.00  0.00    -0.357 C  
HETATM    5  O   UNL     1     -11.650  13.504  68.159  1.00  0.00    -0.291 OA 
BRANCH   4   6
HETATM    6  C   UNL     1     -11.479  12.275  66.097  1.00  0.00    -0.429 A  
HETATM    7  C   UNL     1     -12.350  12.822  65.136  1.00  0.00    -0.555 A  
HETATM    8  C   UNL     1     -12.173  12.550  63.779  1.00  0.00    -0.615 A  
HETATM    9  C   UNL     1     -11.126  11.728  63.370  1.00  0.00    -0.448 A  
HETATM   10  C   UNL     1     -10.246  11.190  64.312  1.00  0.00    -0.399 A  
HETATM   11  C   UNL     1     -10.423  11.462  65.670  1.00  0.00    -0.262 A  
HETATM   12  O   UNL     1      -9.540  10.938  66.571  1.00  0.00    -0.186 OA 
HETATM   13  H   UNL     1      -8.823  10.387  66.280  1.00  0.00     0.000 HD 
ENDBRANCH   4   6
ENDBRANCH   3   4
ENDBRANCH   2   3
TORSDOF 3
ENDMDL
MODEL       42
REMARK 921   NORMALIZED FREE ENERGY PREDICTED BY IDOCK:   -4.06 KCAL/MOL
REMARK 922        TOTAL FREE ENERGY PREDICTED BY IDOCK:   -5.22 KCAL/MOL
REMARK 923 INTER-LIGAND FREE ENERGY PREDICTED BY IDOCK:   -4.78 KCAL/MOL
REMARK 924 INTRA-LIGAND FREE ENERGY PREDICTED BY IDOCK:   -0.44 KCAL/MOL
REMARK 927      BINDING AFFINITY PREDICTED BY RF-SCORE:    0.00 PKD
ROOT
HETATM    1  C   UNL     1     -12.219  12.156  64.160  1.00  0.00    -0.509 C  
HETATM    2  C   UNL     1     -12.151  13.607  63.706  1.00  0.00    -0.382 C  
ENDROOT
BRANCH   2   3
HETATM    3  O   UNL     1     -10.977  14.195  64.281  1.00  0.00    -0.285 OA 
BRANCH   3   4
HETATM    4  C   UNL     1     -11.101  15.506  64.622  1.00  0.00    -0.359 C  
HETATM    5  O   UNL     1     -11.710  16.349  63.984  1.00  0.00    -1.044 OA 
BRANCH   4   6
HETATM    6  C   UNL     1     -10.520  15.708  65.975  1.00  0.00    -0.343 A  
HETATM    7  C   UNL     1      -9.301  16.400  66.106  1.00  0.00    -0.360 A  
HETATM    8  C   UNL     1      -8.662  16.487  67.344  1.00  0.00    -0.195 A  
HETATM    9  C   UNL     1      -9.234  15.882  68.461  1.00  0.00    -0.200 A  
HETATM   10  C   UNL     1     -10.450  15.204  68.346  1.00  0.00    -0.233 A  
HETATM   11  C   UNL     1     -11.089  15.118  67.108  1.00  0.00    -0.335 A  
HETATM   12  O   UNL     1     -12.286  14.464  67.025  1.00  0.00    -0.533 OA 
HETATM   13  H   UNL     1     -12.672  14.064  67.795  1.00  0.00     0.000 HD 
ENDBRANCH   4   6
ENDBRANCH   3   4
ENDBRANCH   2   3
TORSDOF 3
ENDMDL
MODEL       43
REMARK 921   NORMALIZED FREE ENERGY PREDICTED BY IDOCK:   -4.04 KCAL/MOL
REMARK 922        TOTAL FREE ENERGY PREDICTED BY IDOCK:   -5.20 KCAL/MOL
REMARK 923 INTER-LIGAND FREE ENERGY PREDICTED BY IDOCK:   -4.76 KCAL/MOL
REMARK 924 INTRA-LIGAND FREE ENERGY PREDICTED BY IDOCK:   -0.44 KCAL/MOL
REMARK 927      BINDING AFFINITY PREDICTED BY RF-SCORE:    0.00 PKD
ROOT
HETATM    1  C   UNL     1     -10.660  11.355  66.433  1.00  0.00    -0.311 C  
HETATM    2  C   UNL     1     -11.357  12.221  67.471  1.00  0.00    -0.325 C  
ENDROOT
BRANCH   2   3
HETATM    3  O   UNL     1     -12.049  11.354  68.378  1.00  0.00    -0.575 OA 
BRANCH   3   4
HETATM    4  C   UNL     1     -11.999  11.732  69.684  1.00  0.00    -0.312 C  
HETATM    5  O   UNL     1     -12.211  12.858  70.103  1.00  0.00    -0.322 OA 
BRANCH   4   6
HETATM    6  C   UNL     1     -11.810  10.524  70.528  1.00  0.00    -0.442 A  
HETATM    7  C   UNL     1     -12.870  10.074  71.338  1.00  0.00    -0.519 A  
HETATM    8  C   UNL     1     -12.680   9.028  72.242  1.00  0.00    -0.457 A  
HETATM    9  C   UNL     1     -11.430   8.423  72.346  1.00  0.00    -0.451 A  
HETATM   10  C   UNL     1     -10.374   8.850  71.539  1.00  0.00    -0.394 A  
HETATM   11  C   UNL     1     -10.563   9.896  70.634  1.00  0.00    -0.271 A  
HETATM   12  O   UNL     1      -9.520  10.285  69.844  1.00  0.00    -0.385 OA 
HETATM   13  H   UNL     1      -8.674   9.859  69.916  1.00  0.00     0.000 HD 
ENDBRANCH   4   6
ENDBRANCH   3   4
ENDBRANCH   2   3
TORSDOF 3
ENDMDL
MODEL       44
REMARK 921   NORMALIZED FREE ENERGY PREDICTED BY IDOCK:   -4.03 KCAL/MOL
REMARK 922        TOTAL FREE ENERGY PREDICTED BY IDOCK:   -5.19 KCAL/MOL
REMARK 923 INTER-LIGAND FREE ENERGY PREDICTED BY IDOCK:   -4.75 KCAL/MOL
REMARK 924 INTRA-LIGAND FREE ENERGY PREDICTED BY IDOCK:   -0.45 KCAL/MOL
REMARK 927      BINDING AFFINITY PREDICTED BY RF-SCORE:    0.00 PKD
ROOT
HETATM    1  C   UNL     1     -13.115  15.574  73.183  1.00  0.00    -0.656 C  
HETATM    2  C   UNL     1     -13.804  14.518  72.333  1.00  0.00    -0.483 C  
ENDROOT
BRANCH   2   3
HETATM    3  O   UNL     1     -13.475  14.771  70.961  1.00  0.00    -0.381 OA 
BRANCH   3   4
HETATM    4  C   UNL     1     -12.562  13.917  70.424  1.00  0.00    -0.282 C  
HETATM    5  O   UNL     1     -12.325  12.790  70.825  1.00  0.00    -0.368 OA 
BRANCH   4   6
HETATM    6  C   UNL     1     -12.022  14.514  69.174  1.00  0.00    -0.344 A  
HETATM    7  C   UNL     1     -11.973  13.735  68.002  1.00  0.00    -0.390 A  
HETATM    8  C   UNL     1     -11.347  14.220  66.852  1.00  0.00    -0.354 A  
HETATM    9  C   UNL     1     -10.765  15.485  66.864  1.00  0.00    -0.317 A  
HETATM   10  C   UNL     1     -10.819  16.272  68.015  1.00  0.00    -0.339 A  
HETATM   11  C   UNL     1     -11.445  15.788  69.165  1.00  0.00    -0.380 A  
HETATM   12  O   UNL     1     -11.499  16.584  70.274  1.00  0.00    -0.453 OA 
HETATM   13  H   UNL     1     -11.107  17.449  70.268  1.00  0.00     0.000 HD 
ENDBRANCH   4   6
ENDBRANCH   3   4
ENDBRANCH   2   3
TORSDOF 3
ENDMDL
MODEL       45
REMARK 921   NORMALIZED FREE ENERGY PREDICTED BY IDOCK:   -4.03 KCAL/MOL
REMARK 922        TOTAL FREE ENERGY PREDICTED BY IDOCK:   -5.19 KCAL/MOL
REMARK 923 INTER-LIGAND FREE ENERGY PREDICTED BY IDOCK:   -4.73 KCAL/MOL
REMARK 924 INTRA-LIGAND FREE ENERGY PREDICTED BY IDOCK:   -0.46 KCAL/MOL
REMARK 927      BINDING AFFINITY PREDICTED BY RF-SCORE:    0.00 PKD
ROOT
HETATM    1  C   UNL     1     -10.990  11.312  66.874  1.00  0.00    -0.348 C  
HETATM    2  C   UNL     1     -11.709  12.126  67.939  1.00  0.00    -0.336 C  
ENDROOT
BRANCH   2   3
HETATM    3  O   UNL     1     -12.286  11.213  68.880  1.00  0.00    -0.522 OA 
BRANCH   3   4
HETATM    4  C   UNL     1     -12.069  11.522  70.187  1.00  0.00    -0.351 C  
HETATM    5  O   UNL     1     -12.361  12.579  70.722  1.00  0.00    -0.377 OA 
BRANCH   4   6
HETATM    6  C   UNL     1     -11.574  10.311  70.893  1.00  0.00    -0.454 A  
HETATM    7  C   UNL     1     -10.371   9.712  70.475  1.00  0.00    -0.359 A  
HETATM    8  C   UNL     1      -9.952   8.500  71.025  1.00  0.00    -0.255 A  
HETATM    9  C   UNL     1     -10.732   7.875  71.995  1.00  0.00    -0.299 A  
HETATM   10  C   UNL     1     -11.920   8.466  72.428  1.00  0.00    -0.451 A  
HETATM   11  C   UNL     1     -12.340   9.679  71.879  1.00  0.00    -0.357 A  
HETATM   12  O   UNL     1     -13.498  10.245  72.330  1.00  0.00    -0.618 OA 
HETATM   13  H   UNL     1     -14.017   9.815  72.999  1.00  0.00     0.000 HD 
ENDBRANCH   4   6
ENDBRANCH   3   4
ENDBRANCH   2   3
TORSDOF 3
ENDMDL
MODEL       46
REMARK 921   NORMALIZED FREE ENERGY PREDICTED BY IDOCK:   -4.01 KCAL/MOL
REMARK 922        TOTAL FREE ENERGY PREDICTED BY IDOCK:   -5.17 KCAL/MOL
REMARK 923 INTER-LIGAND FREE ENERGY PREDICTED BY IDOCK:   -4.74 KCAL/MOL
REMARK 924 INTRA-LIGAND FREE ENERGY PREDICTED BY IDOCK:   -0.43 KCAL/MOL
REMARK 927      BINDING AFFINITY PREDICTED BY RF-SCORE:    0.00 PKD
ROOT
HETATM    1  C   UNL     1     -13.109  15.825  73.324  1.00  0.00    -0.692 C  
HETATM    2  C   UNL     1     -13.968  15.324  72.173  1.00  0.00    -0.549 C  
ENDROOT
BRANCH   2   3
HETATM    3  O   UNL     1     -13.273  15.597  70.950  1.00  0.00    -0.515 OA 
BRANCH   3   4
HETATM    4  C   UNL     1     -12.492  14.580  70.495  1.00  0.00    -0.344 C  
HETATM    5  O   UNL     1     -12.530  13.427  70.890  1.00  0.00    -0.361 OA 
BRANCH   4   6
HETATM    6  C   UNL     1     -11.705  15.063  69.330  1.00  0.00    -0.351 A  
HETATM    7  C   UNL     1     -11.072  16.319  69.397  1.00  0.00    -0.328 A  
HETATM    8  C   UNL     1     -10.443  16.858  68.274  1.00  0.00    -0.352 A  
HETATM    9  C   UNL     1     -10.442  16.149  67.075  1.00  0.00    -0.306 A  
HETATM   10  C   UNL     1     -11.054  14.897  67.000  1.00  0.00    -0.338 A  
HETATM   11  C   UNL     1     -11.683  14.356  68.123  1.00  0.00    -0.342 A  
HETATM   12  O   UNL     1     -12.260  13.122  68.029  1.00  0.00    -0.260 OA 
HETATM   13  H   UNL     1     -12.245  12.642  67.209  1.00  0.00     0.000 HD 
ENDBRANCH   4   6
ENDBRANCH   3   4
ENDBRANCH   2   3
TORSDOF 3
ENDMDL
MODEL       47
REMARK 921   NORMALIZED FREE ENERGY PREDICTED BY IDOCK:   -3.99 KCAL/MOL
REMARK 922        TOTAL FREE ENERGY PREDICTED BY IDOCK:   -5.14 KCAL/MOL
REMARK 923 INTER-LIGAND FREE ENERGY PREDICTED BY IDOCK:   -4.74 KCAL/MOL
REMARK 924 INTRA-LIGAND FREE ENERGY PREDICTED BY IDOCK:   -0.41 KCAL/MOL
REMARK 927      BINDING AFFINITY PREDICTED BY RF-SCORE:    0.00 PKD
ROOT
HETATM    1  C   UNL     1      -9.718  10.512  67.489  1.00  0.00    -0.190 C  
HETATM    2  C   UNL     1     -11.123  10.815  67.989  1.00  0.00    -0.299 C  
ENDROOT
BRANCH   2   3
HETATM    3  O   UNL     1     -11.704  11.788  67.112  1.00  0.00    -0.547 OA 
BRANCH   3   4
HETATM    4  C   UNL     1     -11.769  13.049  67.618  1.00  0.00    -0.366 C  
HETATM    5  O   UNL     1     -11.862  13.334  68.801  1.00  0.00    -0.308 OA 
BRANCH   4   6
HETATM    6  C   UNL     1     -11.541  14.022  66.518  1.00  0.00    -0.389 A  
HETATM    7  C   UNL     1     -10.663  15.103  66.722  1.00  0.00    -0.311 A  
HETATM    8  C   UNL     1     -10.534  16.106  65.761  1.00  0.00    -0.384 A  
HETATM    9  C   UNL     1     -11.281  16.039  64.587  1.00  0.00    -0.340 A  
HETATM   10  C   UNL     1     -12.145  14.964  64.366  1.00  0.00    -0.417 A  
HETATM   11  C   UNL     1     -12.274  13.961  65.328  1.00  0.00    -0.433 A  
HETATM   12  O   UNL     1     -13.113  12.912  65.081  1.00  0.00    -0.753 OA 
HETATM   13  H   UNL     1     -13.611  12.870  64.273  1.00  0.00     0.000 HD 
ENDBRANCH   4   6
ENDBRANCH   3   4
ENDBRANCH   2   3
TORSDOF 3
ENDMDL
MODEL       48
REMARK 921   NORMALIZED FREE ENERGY PREDICTED BY IDOCK:   -3.99 KCAL/MOL
REMARK 922        TOTAL FREE ENERGY PREDICTED BY IDOCK:   -5.14 KCAL/MOL
REMARK 923 INTER-LIGAND FREE ENERGY PREDICTED BY IDOCK:   -4.63 KCAL/MOL
REMARK 924 INTRA-LIGAND FREE ENERGY PREDICTED BY IDOCK:   -0.51 KCAL/MOL
REMARK 927      BINDING AFFINITY PREDICTED BY RF-SCORE:    0.00 PKD
ROOT
HETATM    1  C   UNL     1      -8.107  12.420  67.117  1.00  0.00    -0.167 C  
HETATM    2  C   UNL     1      -9.140  11.780  68.032  1.00  0.00    -0.180 C  
ENDROOT
BRANCH   2   3
HETATM    3  O   UNL     1     -10.344  12.553  67.948  1.00  0.00    -0.206 OA 
BRANCH   3   4
HETATM    4  C   UNL     1     -11.431  11.873  67.493  1.00  0.00    -0.326 C  
HETATM    5  O   UNL     1     -12.106  11.097  68.149  1.00  0.00    -0.633 OA 
BRANCH   4   6
HETATM    6  C   UNL     1     -11.761  12.353  66.126  1.00  0.00    -0.460 A  
HETATM    7  C   UNL     1     -11.527  11.511  65.022  1.00  0.00    -0.101 A  
HETATM    8  C   UNL     1     -11.696  11.982  63.720  1.00  0.00    -0.575 A  
HETATM    9  C   UNL     1     -12.100  13.298  63.507  1.00  0.00    -0.550 A  
HETATM   10  C   UNL     1     -12.349  14.139  64.593  1.00  0.00    -0.432 A  
HETATM   11  C   UNL     1     -12.180  13.669  65.897  1.00  0.00    -0.461 A  
HETATM   12  O   UNL     1     -12.446  14.506  66.943  1.00  0.00    -0.537 OA 
HETATM   13  H   UNL     1     -12.731  15.399  66.787  1.00  0.00     0.000 HD 
ENDBRANCH   4   6
ENDBRANCH   3   4
ENDBRANCH   2   3
TORSDOF 3
ENDMDL
MODEL       49
REMARK 921   NORMALIZED FREE ENERGY PREDICTED BY IDOCK:   -3.98 KCAL/MOL
REMARK 922        TOTAL FREE ENERGY PREDICTED BY IDOCK:   -5.13 KCAL/MOL
REMARK 923 INTER-LIGAND FREE ENERGY PREDICTED BY IDOCK:   -4.74 KCAL/MOL
REMARK 924 INTRA-LIGAND FREE ENERGY PREDICTED BY IDOCK:   -0.39 KCAL/MOL
REMARK 927      BINDING AFFINITY PREDICTED BY RF-SCORE:    0.00 PKD
ROOT
HETATM    1  C   UNL     1     -13.624  13.759  72.361  1.00  0.00    -0.690 C  
HETATM    2  C   UNL     1     -12.818  13.053  71.282  1.00  0.00    -0.281 C  
ENDROOT
BRANCH   2   3
HETATM    3  O   UNL     1     -13.016  11.641  71.433  1.00  0.00    -0.404 OA 
BRANCH   3   4
HETATM    4  C   UNL     1     -12.493  10.879  70.435  1.00  0.00    -0.327 C  
HETATM    5  O   UNL     1     -12.573  11.122  69.243  1.00  0.00    -0.336 OA 
BRANCH   4   6
HETATM    6  C   UNL     1     -11.669   9.798  71.037  1.00  0.00    -0.453 A  
HETATM    7  C   UNL     1     -12.245   8.943  71.997  1.00  0.00    -0.447 A  
HETATM    8  C   UNL     1     -11.463   8.010  72.679  1.00  0.00    -0.465 A  
HETATM    9  C   UNL     1     -10.100   7.923  72.410  1.00  0.00    -0.310 A  
HETATM   10  C   UNL     1      -9.519   8.755  71.450  1.00  0.00    -0.330 A  
HETATM   11  C   UNL     1     -10.301   9.688  70.767  1.00  0.00    -0.286 A  
HETATM   12  O   UNL     1      -9.713  10.479  69.822  1.00  0.00    -0.413 OA 
HETATM   13  H   UNL     1      -8.784  10.405  69.639  1.00  0.00     0.000 HD 
ENDBRANCH   4   6
ENDBRANCH   3   4
ENDBRANCH   2   3
TORSDOF 3
ENDMDL
MODEL       50
REMARK 921   NORMALIZED FREE ENERGY PREDICTED BY IDOCK:   -3.98 KCAL/MOL
REMARK 922        TOTAL FREE ENERGY PREDICTED BY IDOCK:   -5.12 KCAL/MOL
REMARK 923 INTER-LIGAND FREE ENERGY PREDICTED BY IDOCK:   -4.73 KCAL/MOL
REMARK 924 INTRA-LIGAND FREE ENERGY PREDICTED BY IDOCK:   -0.40 KCAL/MOL
REMARK 927      BINDING AFFINITY PREDICTED BY RF-SCORE:    0.00 PKD
ROOT
HETATM    1  C   UNL     1     -10.391  19.903  67.256  1.00  0.00    -0.574 C  
HETATM    2  C   UNL     1     -10.608  18.399  67.316  1.00  0.00    -0.402 C  
ENDROOT
BRANCH   2   3
HETATM    3  O   UNL     1     -10.516  17.884  65.982  1.00  0.00    -0.413 OA 
BRANCH   3   4
HETATM    4  C   UNL     1      -9.757  16.762  65.851  1.00  0.00    -0.217 C  
HETATM    5  O   UNL     1      -8.542  16.715  65.945  1.00  0.00    -0.473 OA 
BRANCH   4   6
HETATM    6  C   UNL     1     -10.656  15.584  65.741  1.00  0.00    -0.370 A  
HETATM    7  C   UNL     1     -11.396  15.387  64.560  1.00  0.00    -0.321 A  
HETATM    8  C   UNL     1     -12.349  14.370  64.479  1.00  0.00    -0.440 A  
HETATM    9  C   UNL     1     -12.572  13.543  65.577  1.00  0.00    -0.531 A  
HETATM   10  C   UNL     1     -11.834  13.719  66.749  1.00  0.00    -0.454 A  
HETATM   11  C   UNL     1     -10.881  14.736  66.831  1.00  0.00    -0.316 A  
HETATM   12  O   UNL     1     -10.161  14.877  67.983  1.00  0.00    -0.218 OA 
HETATM   13  H   UNL     1     -10.314  14.301  68.723  1.00  0.00     0.000 HD 
ENDBRANCH   4   6
ENDBRANCH   3   4
ENDBRANCH   2   3
TORSDOF 3
ENDMDL
MODEL       51
REMARK 921   NORMALIZED FREE ENERGY PREDICTED BY IDOCK:   -3.97 KCAL/MOL
REMARK 922        TOTAL FREE ENERGY PREDICTED BY IDOCK:   -5.12 KCAL/MOL
REMARK 923 INTER-LIGAND FREE ENERGY PREDICTED BY IDOCK:   -4.67 KCAL/MOL
REMARK 924 INTRA-LIGAND FREE ENERGY PREDICTED BY IDOCK:   -0.45 KCAL/MOL
REMARK 927      BINDING AFFINITY PREDICTED BY RF-SCORE:    0.00 PKD
ROOT
HETATM    1  C   UNL     1     -12.475  12.008  63.802  1.00  0.00    -0.594 C  
HETATM    2  C   UNL     1     -12.019  13.459  63.756  1.00  0.00    -0.461 C  
ENDROOT
BRANCH   2   3
HETATM    3  O   UNL     1     -12.362  14.070  65.006  1.00  0.00    -0.414 OA 
BRANCH   3   4
HETATM    4  C   UNL     1     -11.379  14.827  65.563  1.00  0.00    -0.343 C  
HETATM    5  O   UNL     1     -10.707  15.659  64.976  1.00  0.00    -0.418 OA 
BRANCH   4   6
HETATM    6  C   UNL     1     -11.368  14.597  67.031  1.00  0.00    -0.362 A  
HETATM    7  C   UNL     1     -11.675  13.317  67.532  1.00  0.00    -0.410 A  
HETATM    8  C   UNL     1     -11.808  13.103  68.904  1.00  0.00    -0.361 A  
HETATM    9  C   UNL     1     -11.638  14.165  69.789  1.00  0.00    -0.351 A  
HETATM   10  C   UNL     1     -11.320  15.436  69.306  1.00  0.00    -0.323 A  
HETATM   11  C   UNL     1     -11.186  15.651  67.933  1.00  0.00    -0.328 A  
HETATM   12  O   UNL     1     -10.858  16.899  67.487  1.00  0.00    -0.304 OA 
HETATM   13  H   UNL     1     -10.734  17.615  68.099  1.00  0.00     0.000 HD 
ENDBRANCH   4   6
ENDBRANCH   3   4
ENDBRANCH   2   3
TORSDOF 3
ENDMDL
MODEL       52
REMARK 921   NORMALIZED FREE ENERGY PREDICTED BY IDOCK:   -3.97 KCAL/MOL
REMARK 922        TOTAL FREE ENERGY PREDICTED BY IDOCK:   -5.12 KCAL/MOL
REMARK 923 INTER-LIGAND FREE ENERGY PREDICTED BY IDOCK:   -4.74 KCAL/MOL
REMARK 924 INTRA-LIGAND FREE ENERGY PREDICTED BY IDOCK:   -0.38 KCAL/MOL
REMARK 927      BINDING AFFINITY PREDICTED BY RF-SCORE:    0.00 PKD
ROOT
HETATM    1  C   UNL     1     -10.553  16.069  65.268  1.00  0.00    -0.424 C  
HETATM    2  C   UNL     1     -11.731  15.359  64.619  1.00  0.00    -0.267 C  
ENDROOT
BRANCH   2   3
HETATM    3  O   UNL     1     -11.987  14.159  65.359  1.00  0.00    -0.352 OA 
BRANCH   3   4
HETATM    4  C   UNL     1     -12.076  13.029  64.605  1.00  0.00    -0.409 C  
HETATM    5  O   UNL     1     -12.653  12.936  63.535  1.00  0.00    -0.711 OA 
BRANCH   4   6
HETATM    6  C   UNL     1     -11.220  11.977  65.213  1.00  0.00    -0.374 A  
HETATM    7  C   UNL     1     -10.389  11.199  64.384  1.00  0.00    -0.407 A  
HETATM    8  C   UNL     1      -9.680  10.115  64.904  1.00  0.00    -0.392 A  
HETATM    9  C   UNL     1      -9.794   9.799  66.256  1.00  0.00    -0.315 A  
HETATM   10  C   UNL     1     -10.603  10.572  67.091  1.00  0.00    -0.319 A  
HETATM   11  C   UNL     1     -11.313  11.656  66.571  1.00  0.00    -0.263 A  
HETATM   12  O   UNL     1     -12.085  12.406  67.412  1.00  0.00    -0.505 OA 
HETATM   13  H   UNL     1     -12.148  12.188  68.334  1.00  0.00     0.000 HD 
ENDBRANCH   4   6
ENDBRANCH   3   4
ENDBRANCH   2   3
TORSDOF 3
ENDMDL
MODEL       53
REMARK 921   NORMALIZED FREE ENERGY PREDICTED BY IDOCK:   -3.96 KCAL/MOL
REMARK 922        TOTAL FREE ENERGY PREDICTED BY IDOCK:   -5.10 KCAL/MOL
REMARK 923 INTER-LIGAND FREE ENERGY PREDICTED BY IDOCK:   -4.76 KCAL/MOL
REMARK 924 INTRA-LIGAND FREE ENERGY PREDICTED BY IDOCK:   -0.34 KCAL/MOL
REMARK 927      BINDING AFFINITY PREDICTED BY RF-SCORE:    0.00 PKD
ROOT
HETATM    1  C   UNL     1     -11.168  14.921  69.752  1.00  0.00    -0.308 C  
HETATM    2  C   UNL     1     -12.158  13.915  69.185  1.00  0.00    -0.338 C  
ENDROOT
BRANCH   2   3
HETATM    3  O   UNL     1     -11.755  13.604  67.845  1.00  0.00    -0.319 OA 
BRANCH   3   4
HETATM    4  C   UNL     1     -11.755  12.279  67.539  1.00  0.00    -0.332 C  
HETATM    5  O   UNL     1     -12.040  11.375  68.307  1.00  0.00    -0.606 OA 
BRANCH   4   6
HETATM    6  C   UNL     1     -11.515  12.122  66.081  1.00  0.00    -0.429 A  
HETATM    7  C   UNL     1     -12.415  12.703  65.167  1.00  0.00    -0.531 A  
HETATM    8  C   UNL     1     -12.295  12.458  63.798  1.00  0.00    -0.625 A  
HETATM    9  C   UNL     1     -11.277  11.631  63.330  1.00  0.00    -0.401 A  
HETATM   10  C   UNL     1     -10.370  11.060  64.225  1.00  0.00    -0.430 A  
HETATM   11  C   UNL     1     -10.489  11.304  65.595  1.00  0.00    -0.261 A  
HETATM   12  O   UNL     1      -9.580  10.748  66.448  1.00  0.00    -0.180 OA 
HETATM   13  H   UNL     1      -8.883  10.193  66.118  1.00  0.00     0.000 HD 
ENDBRANCH   4   6
ENDBRANCH   3   4
ENDBRANCH   2   3
TORSDOF 3
ENDMDL
MODEL       54
REMARK 921   NORMALIZED FREE ENERGY PREDICTED BY IDOCK:   -3.95 KCAL/MOL
REMARK 922        TOTAL FREE ENERGY PREDICTED BY IDOCK:   -5.09 KCAL/MOL
REMARK 923 INTER-LIGAND FREE ENERGY PREDICTED BY IDOCK:   -4.60 KCAL/MOL
REMARK 924 INTRA-LIGAND FREE ENERGY PREDICTED BY IDOCK:   -0.50 KCAL/MOL
REMARK 927      BINDING AFFINITY PREDICTED BY RF-SCORE:    0.00 PKD
ROOT
HETATM    1  C   UNL     1      -9.021  15.850  67.451  1.00  0.00    -0.203 C  
HETATM    2  C   UNL     1      -9.837  14.971  66.516  1.00  0.00    -0.260 C  
ENDROOT
BRANCH   2   3
HETATM    3  O   UNL     1     -11.225  15.208  66.784  1.00  0.00    -0.331 OA 
BRANCH   3   4
HETATM    4  C   UNL     1     -12.018  14.104  66.720  1.00  0.00    -0.447 C  
HETATM    5  O   UNL     1     -12.595  13.703  65.723  1.00  0.00    -0.476 OA 
BRANCH   4   6
HETATM    6  C   UNL     1     -11.932  13.376  68.013  1.00  0.00    -0.357 A  
HETATM    7  C   UNL     1     -11.777  11.976  68.008  1.00  0.00    -0.398 A  
HETATM    8  C   UNL     1     -11.833  11.251  69.199  1.00  0.00    -0.423 A  
HETATM    9  C   UNL     1     -12.044  11.916  70.405  1.00  0.00    -0.421 A  
HETATM   10  C   UNL     1     -12.185  13.305  70.424  1.00  0.00    -0.404 A  
HETATM   11  C   UNL     1     -12.130  14.031  69.233  1.00  0.00    -0.338 A  
HETATM   12  O   UNL     1     -12.254  15.391  69.280  1.00  0.00    -0.537 OA 
HETATM   13  H   UNL     1     -12.388  15.836  70.109  1.00  0.00     0.000 HD 
ENDBRANCH   4   6
ENDBRANCH   3   4
ENDBRANCH   2   3
TORSDOF 3
ENDMDL
MODEL       55
REMARK 921   NORMALIZED FREE ENERGY PREDICTED BY IDOCK:   -3.92 KCAL/MOL
REMARK 922        TOTAL FREE ENERGY PREDICTED BY IDOCK:   -5.06 KCAL/MOL
REMARK 923 INTER-LIGAND FREE ENERGY PREDICTED BY IDOCK:   -4.70 KCAL/MOL
REMARK 924 INTRA-LIGAND FREE ENERGY PREDICTED BY IDOCK:   -0.36 KCAL/MOL
REMARK 927      BINDING AFFINITY PREDICTED BY RF-SCORE:    0.00 PKD
ROOT
HETATM    1  C   UNL     1     -10.740   7.285  71.686  1.00  0.00    -0.239 C  
HETATM    2  C   UNL     1     -11.231   8.591  72.292  1.00  0.00    -0.362 C  
ENDROOT
BRANCH   2   3
HETATM    3  O   UNL     1     -11.295   9.568  71.246  1.00  0.00    -0.319 OA 
BRANCH   3   4
HETATM    4  C   UNL     1     -12.365  10.406  71.309  1.00  0.00    -0.401 C  
HETATM    5  O   UNL     1     -13.291  10.313  72.097  1.00  0.00    -0.443 OA 
BRANCH   4   6
HETATM    6  C   UNL     1     -12.141  11.543  70.378  1.00  0.00    -0.471 A  
HETATM    7  C   UNL     1     -12.318  12.860  70.843  1.00  0.00    -0.365 A  
HETATM    8  C   UNL     1     -12.250  13.940  69.961  1.00  0.00    -0.408 A  
HETATM    9  C   UNL     1     -12.006  13.714  68.609  1.00  0.00    -0.395 A  
HETATM   10  C   UNL     1     -11.815  12.413  68.138  1.00  0.00    -0.372 A  
HETATM   11  C   UNL     1     -11.883  11.333  69.019  1.00  0.00    -0.352 A  
HETATM   12  O   UNL     1     -11.677  10.071  68.538  1.00  0.00    -0.570 OA 
HETATM   13  H   UNL     1     -11.502   9.929  67.615  1.00  0.00     0.000 HD 
ENDBRANCH   4   6
ENDBRANCH   3   4
ENDBRANCH   2   3
TORSDOF 3
ENDMDL
MODEL       56
REMARK 921   NORMALIZED FREE ENERGY PREDICTED BY IDOCK:   -3.90 KCAL/MOL
REMARK 922        TOTAL FREE ENERGY PREDICTED BY IDOCK:   -5.04 KCAL/MOL
REMARK 923 INTER-LIGAND FREE ENERGY PREDICTED BY IDOCK:   -4.58 KCAL/MOL
REMARK 924 INTRA-LIGAND FREE ENERGY PREDICTED BY IDOCK:   -0.46 KCAL/MOL
REMARK 927      BINDING AFFINITY PREDICTED BY RF-SCORE:    0.00 PKD
ROOT
HETATM    1  C   UNL     1     -12.138  11.954  70.610  1.00  0.00    -0.389 C  
HETATM    2  C   UNL     1     -12.169  13.471  70.502  1.00  0.00    -0.361 C  
ENDROOT
BRANCH   2   3
HETATM    3  O   UNL     1     -12.336  13.814  69.121  1.00  0.00    -0.303 OA 
BRANCH   3   4
HETATM    4  C   UNL     1     -11.180  14.049  68.444  1.00  0.00    -0.266 C  
HETATM    5  O   UNL     1     -10.084  14.221  68.953  1.00  0.00    -0.226 OA 
BRANCH   4   6
HETATM    6  C   UNL     1     -11.435  13.897  66.988  1.00  0.00    -0.367 A  
HETATM    7  C   UNL     1     -11.370  15.030  66.154  1.00  0.00    -0.270 A  
HETATM    8  C   UNL     1     -11.738  14.945  64.810  1.00  0.00    -0.402 A  
HETATM    9  C   UNL     1     -12.176  13.730  64.289  1.00  0.00    -0.444 A  
HETATM   10  C   UNL     1     -12.232  12.597  65.102  1.00  0.00    -0.539 A  
HETATM   11  C   UNL     1     -11.863  12.681  66.446  1.00  0.00    -0.402 A  
HETATM   12  O   UNL     1     -11.911  11.554  67.217  1.00  0.00    -0.609 OA 
HETATM   13  H   UNL     1     -12.201  10.728  66.849  1.00  0.00     0.000 HD 
ENDBRANCH   4   6
ENDBRANCH   3   4
ENDBRANCH   2   3
TORSDOF 3
ENDMDL
MODEL       57
REMARK 921   NORMALIZED FREE ENERGY PREDICTED BY IDOCK:   -3.88 KCAL/MOL
REMARK 922        TOTAL FREE ENERGY PREDICTED BY IDOCK:   -5.01 KCAL/MOL
REMARK 923 INTER-LIGAND FREE ENERGY PREDICTED BY IDOCK:   -4.66 KCAL/MOL
REMARK 924 INTRA-LIGAND FREE ENERGY PREDICTED BY IDOCK:   -0.35 KCAL/MOL
REMARK 927      BINDING AFFINITY PREDICTED BY RF-SCORE:    0.00 PKD
ROOT
HETATM    1  C   UNL     1     -11.339  15.520  68.091  1.00  0.00    -0.348 C  
HETATM    2  C   UNL     1     -12.029  14.221  67.704  1.00  0.00    -0.365 C  
ENDROOT
BRANCH   2   3
HETATM    3  O   UNL     1     -11.123  13.463  66.892  1.00  0.00    -0.283 OA 
BRANCH   3   4
HETATM    4  C   UNL     1     -11.706  12.502  66.127  1.00  0.00    -0.409 C  
HETATM    5  O   UNL     1     -12.626  12.679  65.347  1.00  0.00    -0.641 OA 
BRANCH   4   6
HETATM    6  C   UNL     1     -10.934  11.240  66.269  1.00  0.00    -0.265 A  
HETATM    7  C   UNL     1     -10.069  10.838  65.233  1.00  0.00    -0.353 A  
HETATM    8  C   UNL     1      -9.437   9.595  65.276  1.00  0.00    -0.342 A  
HETATM    9  C   UNL     1      -9.664   8.741  66.352  1.00  0.00    -0.335 A  
HETATM   10  C   UNL     1     -10.508   9.133  67.393  1.00  0.00    -0.339 A  
HETATM   11  C   UNL     1     -11.141  10.377  67.351  1.00  0.00    -0.226 A  
HETATM   12  O   UNL     1     -11.949  10.744  68.389  1.00  0.00    -0.752 OA 
HETATM   13  H   UNL     1     -12.089  10.158  69.123  1.00  0.00     0.000 HD 
ENDBRANCH   4   6
ENDBRANCH   3   4
ENDBRANCH   2   3
TORSDOF 3
ENDMDL
MODEL       58
REMARK 921   NORMALIZED FREE ENERGY PREDICTED BY IDOCK:   -3.87 KCAL/MOL
REMARK 922        TOTAL FREE ENERGY PREDICTED BY IDOCK:   -5.01 KCAL/MOL
REMARK 923 INTER-LIGAND FREE ENERGY PREDICTED BY IDOCK:   -4.61 KCAL/MOL
REMARK 924 INTRA-LIGAND FREE ENERGY PREDICTED BY IDOCK:   -0.40 KCAL/MOL
REMARK 927      BINDING AFFINITY PREDICTED BY RF-SCORE:    0.00 PKD
ROOT
HETATM    1  C   UNL     1      -6.980  17.964  66.998  1.00  0.00    -0.209 C  
HETATM    2  C   UNL     1      -8.052  19.026  66.810  1.00  0.00    -0.269 C  
ENDROOT
BRANCH   2   3
HETATM    3  O   UNL     1      -8.995  18.538  65.848  1.00  0.00    -0.480 OA 
BRANCH   3   4
HETATM    4  C   UNL     1     -10.272  18.420  66.304  1.00  0.00    -0.406 C  
HETATM    5  O   UNL     1     -11.053  19.342  66.468  1.00  0.00    -0.231 OA 
BRANCH   4   6
HETATM    6  C   UNL     1     -10.612  16.977  66.410  1.00  0.00    -0.172 A  
HETATM    7  C   UNL     1     -10.416  16.309  67.634  1.00  0.00    -0.295 A  
HETATM    8  C   UNL     1     -10.596  14.928  67.728  1.00  0.00    -0.262 A  
HETATM    9  C   UNL     1     -10.971  14.202  66.600  1.00  0.00    -0.303 A  
HETATM   10  C   UNL     1     -11.182  14.854  65.384  1.00  0.00    -0.359 A  
HETATM   11  C   UNL     1     -11.003  16.236  65.290  1.00  0.00    -0.236 A  
HETATM   12  O   UNL     1     -11.232  16.853  64.093  1.00  0.00    -1.386 OA 
HETATM   13  H   UNL     1     -11.497  16.350  63.332  1.00  0.00     0.000 HD 
ENDBRANCH   4   6
ENDBRANCH   3   4
ENDBRANCH   2   3
TORSDOF 3
ENDMDL
MODEL       59
REMARK 921   NORMALIZED FREE ENERGY PREDICTED BY IDOCK:   -3.87 KCAL/MOL
REMARK 922        TOTAL FREE ENERGY PREDICTED BY IDOCK:   -5.00 KCAL/MOL
REMARK 923 INTER-LIGAND FREE ENERGY PREDICTED BY IDOCK:   -4.62 KCAL/MOL
REMARK 924 INTRA-LIGAND FREE ENERGY PREDICTED BY IDOCK:   -0.38 KCAL/MOL
REMARK 927      BINDING AFFINITY PREDICTED BY RF-SCORE:    0.00 PKD
ROOT
HETATM    1  C   UNL     1      -9.624   8.329  70.753  1.00  0.00    -0.196 C  
HETATM    2  C   UNL     1     -11.126   8.556  70.830  1.00  0.00    -0.254 C  
ENDROOT
BRANCH   2   3
HETATM    3  O   UNL     1     -11.348   9.919  71.214  1.00  0.00    -0.368 OA 
BRANCH   3   4
HETATM    4  C   UNL     1     -12.652  10.307  71.219  1.00  0.00    -0.418 C  
HETATM    5  O   UNL     1     -13.614   9.558  71.267  1.00  0.00    -0.360 OA 
BRANCH   4   6
HETATM    6  C   UNL     1     -12.712  11.788  71.327  1.00  0.00    -0.420 A  
HETATM    7  C   UNL     1     -13.521  12.377  72.318  1.00  0.00    -0.428 A  
HETATM    8  C   UNL     1     -13.706  13.759  72.356  1.00  0.00    -0.692 A  
HETATM    9  C   UNL     1     -13.085  14.566  71.405  1.00  0.00    -0.423 A  
HETATM   10  C   UNL     1     -12.269  13.996  70.426  1.00  0.00    -0.433 A  
HETATM   11  C   UNL     1     -12.084  12.613  70.388  1.00  0.00    -0.300 A  
HETATM   12  O   UNL     1     -11.268  12.081  69.430  1.00  0.00    -0.330 OA 
HETATM   13  H   UNL     1     -10.841  12.642  68.793  1.00  0.00     0.000 HD 
ENDBRANCH   4   6
ENDBRANCH   3   4
ENDBRANCH   2   3
TORSDOF 3
ENDMDL
MODEL       60
REMARK 921   NORMALIZED FREE ENERGY PREDICTED BY IDOCK:   -3.85 KCAL/MOL
REMARK 922        TOTAL FREE ENERGY PREDICTED BY IDOCK:   -4.98 KCAL/MOL
REMARK 923 INTER-LIGAND FREE ENERGY PREDICTED BY IDOCK:   -4.63 KCAL/MOL
REMARK 924 INTRA-LIGAND FREE ENERGY PREDICTED BY IDOCK:   -0.35 KCAL/MOL
REMARK 927      BINDING AFFINITY PREDICTED BY RF-SCORE:    0.00 PKD
ROOT
HETATM    1  C   UNL     1     -12.656  11.985  63.535  1.00  0.00    -0.625 C  
HETATM    2  C   UNL     1     -12.475  12.891  64.743  1.00  0.00    -0.455 C  
ENDROOT
BRANCH   2   3
HETATM    3  O   UNL     1     -11.377  12.388  65.514  1.00  0.00    -0.319 OA 
BRANCH   3   4
HETATM    4  C   UNL     1     -11.603  12.315  66.854  1.00  0.00    -0.361 C  
HETATM    5  O   UNL     1     -11.965  11.318  67.458  1.00  0.00    -0.612 OA 
BRANCH   4   6
HETATM    6  C   UNL     1     -11.178  13.592  67.484  1.00  0.00    -0.316 A  
HETATM    7  C   UNL     1     -12.032  14.225  68.406  1.00  0.00    -0.344 A  
HETATM    8  C   UNL     1     -11.724  15.490  68.909  1.00  0.00    -0.385 A  
HETATM    9  C   UNL     1     -10.562  16.135  68.493  1.00  0.00    -0.284 A  
HETATM   10  C   UNL     1      -9.699  15.512  67.589  1.00  0.00    -0.212 A  
HETATM   11  C   UNL     1     -10.006  14.246  67.087  1.00  0.00    -0.255 A  
HETATM   12  O   UNL     1      -9.138  13.650  66.216  1.00  0.00    -0.465 OA 
HETATM   13  H   UNL     1      -8.343  14.094  65.947  1.00  0.00     0.000 HD 
ENDBRANCH   4   6
ENDBRANCH   3   4
ENDBRANCH   2   3
TORSDOF 3
ENDMDL
MODEL       61
REMARK 921   NORMALIZED FREE ENERGY PREDICTED BY IDOCK:   -3.85 KCAL/MOL
REMARK 922        TOTAL FREE ENERGY PREDICTED BY IDOCK:   -4.98 KCAL/MOL
REMARK 923 INTER-LIGAND FREE ENERGY PREDICTED BY IDOCK:   -4.62 KCAL/MOL
REMARK 924 INTRA-LIGAND FREE ENERGY PREDICTED BY IDOCK:   -0.35 KCAL/MOL
REMARK 927      BINDING AFFINITY PREDICTED BY RF-SCORE:    0.00 PKD
ROOT
HETATM    1  C   UNL     1      -9.463   8.884  70.817  1.00  0.00    -0.280 C  
HETATM    2  C   UNL     1     -10.435   9.435  69.785  1.00  0.00    -0.226 C  
ENDROOT
BRANCH   2   3
HETATM    3  O   UNL     1     -11.395  10.248  70.472  1.00  0.00    -0.300 OA 
BRANCH   3   4
HETATM    4  C   UNL     1     -11.991  11.202  69.706  1.00  0.00    -0.357 C  
HETATM    5  O   UNL     1     -12.264  11.091  68.522  1.00  0.00    -0.582 OA 
BRANCH   4   6
HETATM    6  C   UNL     1     -12.404  12.331  70.580  1.00  0.00    -0.349 A  
HETATM    7  C   UNL     1     -12.005  13.641  70.252  1.00  0.00    -0.397 A  
HETATM    8  C   UNL     1     -12.259  14.701  71.123  1.00  0.00    -0.405 A  
HETATM    9  C   UNL     1     -12.913  14.463  72.329  1.00  0.00    -0.455 A  
HETATM   10  C   UNL     1     -13.327  13.171  72.660  1.00  0.00    -0.375 A  
HETATM   11  C   UNL     1     -13.073  12.110  71.789  1.00  0.00    -0.352 A  
HETATM   12  O   UNL     1     -13.502  10.858  72.127  1.00  0.00    -0.546 OA 
HETATM   13  H   UNL     1     -13.957  10.708  72.948  1.00  0.00     0.000 HD 
ENDBRANCH   4   6
ENDBRANCH   3   4
ENDBRANCH   2   3
TORSDOF 3
ENDMDL
MODEL       62
REMARK 921   NORMALIZED FREE ENERGY PREDICTED BY IDOCK:   -3.83 KCAL/MOL
REMARK 922        TOTAL FREE ENERGY PREDICTED BY IDOCK:   -4.95 KCAL/MOL
REMARK 923 INTER-LIGAND FREE ENERGY PREDICTED BY IDOCK:   -4.54 KCAL/MOL
REMARK 924 INTRA-LIGAND FREE ENERGY PREDICTED BY IDOCK:   -0.40 KCAL/MOL
REMARK 927      BINDING AFFINITY PREDICTED BY RF-SCORE:    0.00 PKD
ROOT
HETATM    1  C   UNL     1      -9.032  11.112  62.648  1.00  0.00    -0.347 C  
HETATM    2  C   UNL     1     -10.382  10.988  63.337  1.00  0.00    -0.312 C  
ENDROOT
BRANCH   2   3
HETATM    3  O   UNL     1     -10.556  12.134  64.179  1.00  0.00    -0.307 OA 
BRANCH   3   4
HETATM    4  C   UNL     1     -11.845  12.399  64.527  1.00  0.00    -0.384 C  
HETATM    5  O   UNL     1     -12.824  12.186  63.832  1.00  0.00    -0.687 OA 
BRANCH   4   6
HETATM    6  C   UNL     1     -11.880  12.833  65.948  1.00  0.00    -0.490 A  
HETATM    7  C   UNL     1     -12.110  14.189  66.251  1.00  0.00    -0.463 A  
HETATM    8  C   UNL     1     -12.012  14.650  67.565  1.00  0.00    -0.309 A  
HETATM    9  C   UNL     1     -11.682  13.763  68.586  1.00  0.00    -0.391 A  
HETATM   10  C   UNL     1     -11.465  12.414  68.301  1.00  0.00    -0.360 A  
HETATM   11  C   UNL     1     -11.563  11.951  66.987  1.00  0.00    -0.291 A  
HETATM   12  O   UNL     1     -11.362  10.624  66.736  1.00  0.00    -0.201 OA 
HETATM   13  H   UNL     1     -11.147  10.026  67.442  1.00  0.00     0.000 HD 
ENDBRANCH   4   6
ENDBRANCH   3   4
ENDBRANCH   2   3
TORSDOF 3
ENDMDL
MODEL       63
REMARK 921   NORMALIZED FREE ENERGY PREDICTED BY IDOCK:   -3.82 KCAL/MOL
REMARK 922        TOTAL FREE ENERGY PREDICTED BY IDOCK:   -4.95 KCAL/MOL
REMARK 923 INTER-LIGAND FREE ENERGY PREDICTED BY IDOCK:   -4.49 KCAL/MOL
REMARK 924 INTRA-LIGAND FREE ENERGY PREDICTED BY IDOCK:   -0.46 KCAL/MOL
REMARK 927      BINDING AFFINITY PREDICTED BY RF-SCORE:    0.00 PKD
ROOT
HETATM    1  C   UNL     1     -10.673   6.864  67.298  1.00  0.00    -0.421 C  
HETATM    2  C   UNL     1     -10.988   6.227  68.643  1.00  0.00    -0.346 C  
ENDROOT
BRANCH   2   3
HETATM    3  O   UNL     1     -10.384   7.029  69.665  1.00  0.00    -0.196 OA 
BRANCH   3   4
HETATM    4  C   UNL     1     -10.995   6.966  70.879  1.00  0.00    -0.253 C  
HETATM    5  O   UNL     1     -10.827   6.091  71.712  1.00  0.00    -0.241 OA 
BRANCH   4   6
HETATM    6  C   UNL     1     -11.767   8.218  71.094  1.00  0.00    -0.308 A  
HETATM    7  C   UNL     1     -11.217   9.448  70.686  1.00  0.00    -0.345 A  
HETATM    8  C   UNL     1     -11.854  10.650  70.997  1.00  0.00    -0.396 A  
HETATM    9  C   UNL     1     -13.045  10.634  71.719  1.00  0.00    -0.571 A  
HETATM   10  C   UNL     1     -13.608   9.421  72.117  1.00  0.00    -0.528 A  
HETATM   11  C   UNL     1     -12.972   8.218  71.806  1.00  0.00    -0.344 A  
HETATM   12  O   UNL     1     -13.551   7.043  72.193  1.00  0.00    -0.539 OA 
HETATM   13  H   UNL     1     -14.368   7.043  72.676  1.00  0.00     0.000 HD 
ENDBRANCH   4   6
ENDBRANCH   3   4
ENDBRANCH   2   3
TORSDOF 3
ENDMDL
MODEL       64
REMARK 921   NORMALIZED FREE ENERGY PREDICTED BY IDOCK:   -3.79 KCAL/MOL
REMARK 922        TOTAL FREE ENERGY PREDICTED BY IDOCK:   -4.90 KCAL/MOL
REMARK 923 INTER-LIGAND FREE ENERGY PREDICTED BY IDOCK:   -4.57 KCAL/MOL
REMARK 924 INTRA-LIGAND FREE ENERGY PREDICTED BY IDOCK:   -0.34 KCAL/MOL
REMARK 927      BINDING AFFINITY PREDICTED BY RF-SCORE:    0.00 PKD
ROOT
HETATM    1  C   UNL     1     -11.312  10.772  70.271  1.00  0.00    -0.374 C  
HETATM    2  C   UNL     1     -11.908  11.950  69.515  1.00  0.00    -0.331 C  
ENDROOT
BRANCH   2   3
HETATM    3  O   UNL     1     -10.936  12.402  68.564  1.00  0.00    -0.222 OA 
BRANCH   3   4
HETATM    4  C   UNL     1     -11.154  11.996  67.284  1.00  0.00    -0.285 C  
HETATM    5  O   UNL     1     -11.540  10.888  66.949  1.00  0.00    -0.327 OA 
BRANCH   4   6
HETATM    6  C   UNL     1     -11.006  13.164  66.377  1.00  0.00    -0.305 A  
HETATM    7  C   UNL     1      -9.929  14.051  66.562  1.00  0.00    -0.289 A  
HETATM    8  C   UNL     1      -9.841  15.228  65.817  1.00  0.00    -0.395 A  
HETATM    9  C   UNL     1     -10.828  15.530  64.883  1.00  0.00    -0.447 A  
HETATM   10  C   UNL     1     -11.894  14.652  64.680  1.00  0.00    -0.459 A  
HETATM   11  C   UNL     1     -11.983  13.474  65.424  1.00  0.00    -0.379 A  
HETATM   12  O   UNL     1     -13.027  12.623  65.195  1.00  0.00    -0.754 OA 
HETATM   13  H   UNL     1     -13.690  12.834  64.549  1.00  0.00     0.000 HD 
ENDBRANCH   4   6
ENDBRANCH   3   4
ENDBRANCH   2   3
TORSDOF 3
ENDMDL
MODEL       65
REMARK 921   NORMALIZED FREE ENERGY PREDICTED BY IDOCK:   -3.78 KCAL/MOL
REMARK 922        TOTAL FREE ENERGY PREDICTED BY IDOCK:   -4.90 KCAL/MOL
REMARK 923 INTER-LIGAND FREE ENERGY PREDICTED BY IDOCK:   -4.46 KCAL/MOL
REMARK 924 INTRA-LIGAND FREE ENERGY PREDICTED BY IDOCK:   -0.43 KCAL/MOL
REMARK 927      BINDING AFFINITY PREDICTED BY RF-SCORE:    0.00 PKD
ROOT
HETATM    1  C   UNL     1      -9.086  19.613  67.718  1.00  0.00    -0.397 C  
HETATM    2  C   UNL     1     -10.243  19.010  68.500  1.00  0.00    -0.351 C  
ENDROOT
BRANCH   2   3
HETATM    3  O   UNL     1     -10.835  17.984  67.694  1.00  0.00    -0.390 OA 
BRANCH   3   4
HETATM    4  C   UNL     1     -10.891  16.757  68.278  1.00  0.00    -0.366 C  
HETATM    5  O   UNL     1     -10.923  16.545  69.478  1.00  0.00    -0.318 OA 
BRANCH   4   6
HETATM    6  C   UNL     1     -11.074  15.729  67.220  1.00  0.00    -0.211 A  
HETATM    7  C   UNL     1     -10.431  15.894  65.978  1.00  0.00    -0.357 A  
HETATM    8  C   UNL     1     -10.692  15.021  64.921  1.00  0.00    -0.420 A  
HETATM    9  C   UNL     1     -11.597  13.977  65.094  1.00  0.00    -0.344 A  
HETATM   10  C   UNL     1     -12.231  13.794  66.325  1.00  0.00    -0.489 A  
HETATM   11  C   UNL     1     -11.970  14.667  67.383  1.00  0.00    -0.279 A  
HETATM   12  O   UNL     1     -12.589  14.457  68.582  1.00  0.00    -0.542 OA 
HETATM   13  H   UNL     1     -13.198  13.736  68.692  1.00  0.00     0.000 HD 
ENDBRANCH   4   6
ENDBRANCH   3   4
ENDBRANCH   2   3
TORSDOF 3
ENDMDL
MODEL       66
REMARK 921   NORMALIZED FREE ENERGY PREDICTED BY IDOCK:   -3.77 KCAL/MOL
REMARK 922        TOTAL FREE ENERGY PREDICTED BY IDOCK:   -4.88 KCAL/MOL
REMARK 923 INTER-LIGAND FREE ENERGY PREDICTED BY IDOCK:   -4.50 KCAL/MOL
REMARK 924 INTRA-LIGAND FREE ENERGY PREDICTED BY IDOCK:   -0.39 KCAL/MOL
REMARK 927      BINDING AFFINITY PREDICTED BY RF-SCORE:    0.00 PKD
ROOT
HETATM    1  C   UNL     1     -13.013  15.147  70.988  1.00  0.00    -0.494 C  
HETATM    2  C   UNL     1     -11.812  14.557  70.264  1.00  0.00    -0.308 C  
ENDROOT
BRANCH   2   3
HETATM    3  O   UNL     1     -12.189  14.321  68.901  1.00  0.00    -0.306 OA 
BRANCH   3   4
HETATM    4  C   UNL     1     -11.591  15.137  67.992  1.00  0.00    -0.328 C  
HETATM    5  O   UNL     1     -11.030  16.190  68.247  1.00  0.00    -0.312 OA 
BRANCH   4   6
HETATM    6  C   UNL     1     -11.588  14.462  66.668  1.00  0.00    -0.396 A  
HETATM    7  C   UNL     1     -12.657  13.614  66.322  1.00  0.00    -0.346 A  
HETATM    8  C   UNL     1     -12.616  12.860  65.149  1.00  0.00    -0.536 A  
HETATM    9  C   UNL     1     -11.507  12.944  64.311  1.00  0.00    -0.427 A  
HETATM   10  C   UNL     1     -10.445  13.792  64.636  1.00  0.00    -0.433 A  
HETATM   11  C   UNL     1     -10.486  14.547  65.810  1.00  0.00    -0.323 A  
HETATM   12  O   UNL     1      -9.443  15.380  66.097  1.00  0.00    -0.286 OA 
HETATM   13  H   UNL     1      -8.695  15.438  65.514  1.00  0.00     0.000 HD 
ENDBRANCH   4   6
ENDBRANCH   3   4
ENDBRANCH   2   3
TORSDOF 3
ENDMDL
MODEL       67
REMARK 921   NORMALIZED FREE ENERGY PREDICTED BY IDOCK:   -3.77 KCAL/MOL
REMARK 922        TOTAL FREE ENERGY PREDICTED BY IDOCK:   -4.88 KCAL/MOL
REMARK 923 INTER-LIGAND FREE ENERGY PREDICTED BY IDOCK:   -4.52 KCAL/MOL
REMARK 924 INTRA-LIGAND FREE ENERGY PREDICTED BY IDOCK:   -0.36 KCAL/MOL
REMARK 927      BINDING AFFINITY PREDICTED BY RF-SCORE:    0.00 PKD
ROOT
HETATM    1  C   UNL     1      -8.449   8.147  67.329  1.00  0.00    -0.125 C  
HETATM    2  C   UNL     1      -9.806   8.218  66.647  1.00  0.00    -0.267 C  
ENDROOT
BRANCH   2   3
HETATM    3  O   UNL     1     -10.162   9.600  66.512  1.00  0.00    -0.239 OA 
BRANCH   3   4
HETATM    4  C   UNL     1      -9.998  10.114  65.263  1.00  0.00    -0.311 C  
HETATM    5  O   UNL     1      -9.407   9.570  64.345  1.00  0.00    -0.216 OA 
BRANCH   4   6
HETATM    6  C   UNL     1     -10.795  11.364  65.150  1.00  0.00    -0.302 A  
HETATM    7  C   UNL     1     -11.183  12.044  66.320  1.00  0.00    -0.394 A  
HETATM    8  C   UNL     1     -12.044  13.140  66.252  1.00  0.00    -0.460 A  
HETATM    9  C   UNL     1     -12.527  13.565  65.017  1.00  0.00    -0.462 A  
HETATM   10  C   UNL     1     -12.139  12.907  63.848  1.00  0.00    -0.553 A  
HETATM   11  C   UNL     1     -11.277  11.811  63.915  1.00  0.00    -0.414 A  
HETATM   12  O   UNL     1     -10.899  11.195  62.756  1.00  0.00    -0.779 OA 
HETATM   13  H   UNL     1     -11.226  11.498  61.918  1.00  0.00     0.000 HD 
ENDBRANCH   4   6
ENDBRANCH   3   4
ENDBRANCH   2   3
TORSDOF 3
ENDMDL
MODEL       68
REMARK 921   NORMALIZED FREE ENERGY PREDICTED BY IDOCK:   -3.72 KCAL/MOL
REMARK 922        TOTAL FREE ENERGY PREDICTED BY IDOCK:   -4.83 KCAL/MOL
REMARK 923 INTER-LIGAND FREE ENERGY PREDICTED BY IDOCK:   -4.31 KCAL/MOL
REMARK 924 INTRA-LIGAND FREE ENERGY PREDICTED BY IDOCK:   -0.52 KCAL/MOL
REMARK 927      BINDING AFFINITY PREDICTED BY RF-SCORE:    0.00 PKD
ROOT
HETATM    1  C   UNL     1     -14.360   7.827  71.629  1.00  0.00    -0.607 C  
HETATM    2  C   UNL     1     -12.863   7.589  71.747  1.00  0.00    -0.327 C  
ENDROOT
BRANCH   2   3
HETATM    3  O   UNL     1     -12.268   8.773  72.294  1.00  0.00    -0.364 OA 
BRANCH   3   4
HETATM    4  C   UNL     1     -11.055   9.099  71.772  1.00  0.00    -0.367 C  
HETATM    5  O   UNL     1      -9.975   8.752  72.220  1.00  0.00    -0.308 OA 
BRANCH   4   6
HETATM    6  C   UNL     1     -11.261   9.804  70.480  1.00  0.00    -0.381 A  
HETATM    7  C   UNL     1     -10.592   9.346  69.329  1.00  0.00    -0.239 A  
HETATM    8  C   UNL     1     -10.656  10.066  68.135  1.00  0.00    -0.268 A  
HETATM    9  C   UNL     1     -11.388  11.249  68.081  1.00  0.00    -0.372 A  
HETATM   10  C   UNL     1     -12.068  11.707  69.211  1.00  0.00    -0.323 A  
HETATM   11  C   UNL     1     -12.004  10.987  70.406  1.00  0.00    -0.368 A  
HETATM   12  O   UNL     1     -12.691  11.447  71.493  1.00  0.00    -0.389 OA 
HETATM   13  H   UNL     1     -13.195  12.251  71.442  1.00  0.00     0.000 HD 
ENDBRANCH   4   6
ENDBRANCH   3   4
ENDBRANCH   2   3
TORSDOF 3
ENDMDL
MODEL       69
REMARK 921   NORMALIZED FREE ENERGY PREDICTED BY IDOCK:   -3.71 KCAL/MOL
REMARK 922        TOTAL FREE ENERGY PREDICTED BY IDOCK:   -4.81 KCAL/MOL
REMARK 923 INTER-LIGAND FREE ENERGY PREDICTED BY IDOCK:   -4.50 KCAL/MOL
REMARK 924 INTRA-LIGAND FREE ENERGY PREDICTED BY IDOCK:   -0.31 KCAL/MOL
REMARK 927      BINDING AFFINITY PREDICTED BY RF-SCORE:    0.00 PKD
ROOT
HETATM    1  C   UNL     1     -10.860  17.263  68.048  1.00  0.00    -0.297 C  
HETATM    2  C   UNL     1     -10.929  15.747  68.142  1.00  0.00    -0.330 C  
ENDROOT
BRANCH   2   3
HETATM    3  O   UNL     1     -11.956  15.408  69.082  1.00  0.00    -0.335 OA 
BRANCH   3   4
HETATM    4  C   UNL     1     -11.512  15.111  70.334  1.00  0.00    -0.286 C  
HETATM    5  O   UNL     1     -10.788  15.818  71.014  1.00  0.00    -0.258 OA 
BRANCH   4   6
HETATM    6  C   UNL     1     -12.184  13.870  70.800  1.00  0.00    -0.441 A  
HETATM    7  C   UNL     1     -13.115  13.943  71.854  1.00  0.00    -0.469 A  
HETATM    8  C   UNL     1     -13.658  12.782  72.405  1.00  0.00    -0.507 A  
HETATM    9  C   UNL     1     -13.275  11.538  71.910  1.00  0.00    -0.479 A  
HETATM   10  C   UNL     1     -12.364  11.452  70.856  1.00  0.00    -0.483 A  
HETATM   11  C   UNL     1     -11.820  12.614  70.304  1.00  0.00    -0.214 A  
HETATM   12  O   UNL     1     -10.943  12.504  69.263  1.00  0.00    -0.404 OA 
HETATM   13  H   UNL     1     -10.696  11.651  68.926  1.00  0.00     0.000 HD 
ENDBRANCH   4   6
ENDBRANCH   3   4
ENDBRANCH   2   3
TORSDOF 3
ENDMDL
MODEL       70
REMARK 921   NORMALIZED FREE ENERGY PREDICTED BY IDOCK:   -3.70 KCAL/MOL
REMARK 922        TOTAL FREE ENERGY PREDICTED BY IDOCK:   -4.81 KCAL/MOL
REMARK 923 INTER-LIGAND FREE ENERGY PREDICTED BY IDOCK:   -4.50 KCAL/MOL
REMARK 924 INTRA-LIGAND FREE ENERGY PREDICTED BY IDOCK:   -0.31 KCAL/MOL
REMARK 927      BINDING AFFINITY PREDICTED BY RF-SCORE:    0.00 PKD
ROOT
HETATM    1  C   UNL     1     -10.319  11.627  65.439  1.00  0.00    -0.313 C  
HETATM    2  C   UNL     1     -10.194  11.656  66.954  1.00  0.00    -0.214 C  
ENDROOT
BRANCH   2   3
HETATM    3  O   UNL     1     -11.419  11.160  67.509  1.00  0.00    -0.447 OA 
BRANCH   3   4
HETATM    4  C   UNL     1     -11.284  10.487  68.684  1.00  0.00    -0.270 C  
HETATM    5  O   UNL     1     -10.557   9.526  68.869  1.00  0.00    -0.215 OA 
BRANCH   4   6
HETATM    6  C   UNL     1     -12.037  11.210  69.742  1.00  0.00    -0.414 A  
HETATM    7  C   UNL     1     -11.975  12.616  69.795  1.00  0.00    -0.365 A  
HETATM    8  C   UNL     1     -12.556  13.313  70.855  1.00  0.00    -0.386 A  
HETATM    9  C   UNL     1     -13.202  12.614  71.871  1.00  0.00    -0.504 A  
HETATM   10  C   UNL     1     -13.283  11.221  71.823  1.00  0.00    -0.480 A  
HETATM   11  C   UNL     1     -12.702  10.522  70.763  1.00  0.00    -0.381 A  
HETATM   12  O   UNL     1     -12.808   9.161  70.730  1.00  0.00    -0.508 OA 
HETATM   13  H   UNL     1     -13.259   8.694  71.423  1.00  0.00     0.000 HD 
ENDBRANCH   4   6
ENDBRANCH   3   4
ENDBRANCH   2   3
TORSDOF 3
ENDMDL
MODEL       71
REMARK 921   NORMALIZED FREE ENERGY PREDICTED BY IDOCK:   -3.69 KCAL/MOL
REMARK 922        TOTAL FREE ENERGY PREDICTED BY IDOCK:   -4.79 KCAL/MOL
REMARK 923 INTER-LIGAND FREE ENERGY PREDICTED BY IDOCK:   -4.39 KCAL/MOL
REMARK 924 INTRA-LIGAND FREE ENERGY PREDICTED BY IDOCK:   -0.41 KCAL/MOL
REMARK 927      BINDING AFFINITY PREDICTED BY RF-SCORE:    0.00 PKD
ROOT
HETATM    1  C   UNL     1      -8.254  11.411  67.001  1.00  0.00    -0.160 C  
HETATM    2  C   UNL     1      -8.958  11.169  68.327  1.00  0.00    -0.166 C  
ENDROOT
BRANCH   2   3
HETATM    3  O   UNL     1     -10.000  12.144  68.459  1.00  0.00    -0.210 OA 
BRANCH   3   4
HETATM    4  C   UNL     1     -11.264  11.647  68.381  1.00  0.00    -0.249 C  
HETATM    5  O   UNL     1     -11.672  10.883  67.522  1.00  0.00    -0.543 OA 
BRANCH   4   6
HETATM    6  C   UNL     1     -12.016  12.051  69.598  1.00  0.00    -0.360 A  
HETATM    7  C   UNL     1     -12.137  13.418  69.914  1.00  0.00    -0.389 A  
HETATM    8  C   UNL     1     -12.716  13.821  71.118  1.00  0.00    -0.438 A  
HETATM    9  C   UNL     1     -13.178  12.863  72.017  1.00  0.00    -0.549 A  
HETATM   10  C   UNL     1     -13.077  11.505  71.709  1.00  0.00    -0.503 A  
HETATM   11  C   UNL     1     -12.498  11.101  70.505  1.00  0.00    -0.327 A  
HETATM   12  O   UNL     1     -12.426   9.767  70.219  1.00  0.00    -0.494 OA 
HETATM   13  H   UNL     1     -12.754   9.123  70.835  1.00  0.00     0.000 HD 
ENDBRANCH   4   6
ENDBRANCH   3   4
ENDBRANCH   2   3
TORSDOF 3
ENDMDL
MODEL       72
REMARK 921   NORMALIZED FREE ENERGY PREDICTED BY IDOCK:   -3.64 KCAL/MOL
REMARK 922        TOTAL FREE ENERGY PREDICTED BY IDOCK:   -4.73 KCAL/MOL
REMARK 923 INTER-LIGAND FREE ENERGY PREDICTED BY IDOCK:   -4.24 KCAL/MOL
REMARK 924 INTRA-LIGAND FREE ENERGY PREDICTED BY IDOCK:   -0.49 KCAL/MOL
REMARK 927      BINDING AFFINITY PREDICTED BY RF-SCORE:    0.00 PKD
ROOT
HETATM    1  C   UNL     1     -10.913   6.379  69.184  1.00  0.00    -0.416 C  
HETATM    2  C   UNL     1      -9.572   6.766  69.790  1.00  0.00    -0.150 C  
ENDROOT
BRANCH   2   3
HETATM    3  O   UNL     1      -9.478   8.196  69.781  1.00  0.00    -0.159 OA 
BRANCH   3   4
HETATM    4  C   UNL     1      -9.454   8.777  71.011  1.00  0.00    -0.228 C  
HETATM    5  O   UNL     1      -8.453   8.975  71.680  1.00  0.00    -0.339 OA 
BRANCH   4   6
HETATM    6  C   UNL     1     -10.814   9.280  71.333  1.00  0.00    -0.434 A  
HETATM    7  C   UNL     1     -11.611   8.576  72.256  1.00  0.00    -0.444 A  
HETATM    8  C   UNL     1     -12.939   8.943  72.475  1.00  0.00    -0.415 A  
HETATM    9  C   UNL     1     -13.484  10.016  71.774  1.00  0.00    -0.422 A  
HETATM   10  C   UNL     1     -12.700  10.732  70.866  1.00  0.00    -0.478 A  
HETATM   11  C   UNL     1     -11.372  10.365  70.647  1.00  0.00    -0.325 A  
HETATM   12  O   UNL     1     -10.621  11.091  69.767  1.00  0.00    -0.432 OA 
HETATM   13  H   UNL     1     -10.999  11.827  69.301  1.00  0.00     0.000 HD 
ENDBRANCH   4   6
ENDBRANCH   3   4
ENDBRANCH   2   3
TORSDOF 3
ENDMDL
MODEL       73
REMARK 921   NORMALIZED FREE ENERGY PREDICTED BY IDOCK:   -3.62 KCAL/MOL
REMARK 922        TOTAL FREE ENERGY PREDICTED BY IDOCK:   -4.70 KCAL/MOL
REMARK 923 INTER-LIGAND FREE ENERGY PREDICTED BY IDOCK:   -4.19 KCAL/MOL
REMARK 924 INTRA-LIGAND FREE ENERGY PREDICTED BY IDOCK:   -0.52 KCAL/MOL
REMARK 927      BINDING AFFINITY PREDICTED BY RF-SCORE:    0.00 PKD
ROOT
HETATM    1  C   UNL     1     -10.741   5.373  70.360  1.00  0.00    -0.276 C  
HETATM    2  C   UNL     1     -10.567   5.235  71.864  1.00  0.00    -0.209 C  
ENDROOT
BRANCH   2   3
HETATM    3  O   UNL     1     -11.507   6.109  72.501  1.00  0.00    -0.282 OA 
BRANCH   3   4
HETATM    4  C   UNL     1     -10.966   7.223  73.064  1.00  0.00    -0.344 C  
HETATM    5  O   UNL     1     -10.052   7.234  73.872  1.00  0.00    -0.324 OA 
BRANCH   4   6
HETATM    6  C   UNL     1     -11.550   8.424  72.412  1.00  0.00    -0.450 A  
HETATM    7  C   UNL     1     -12.893   8.763  72.667  1.00  0.00    -0.294 A  
HETATM    8  C   UNL     1     -13.509   9.801  71.966  1.00  0.00    -0.498 A  
HETATM    9  C   UNL     1     -12.790  10.508  71.005  1.00  0.00    -0.502 A  
HETATM   10  C   UNL     1     -11.454  10.190  70.753  1.00  0.00    -0.442 A  
HETATM   11  C   UNL     1     -10.837   9.152  71.454  1.00  0.00    -0.349 A  
HETATM   12  O   UNL     1      -9.525   8.871  71.201  1.00  0.00    -0.216 OA 
HETATM   13  H   UNL     1      -9.041   9.366  70.550  1.00  0.00     0.000 HD 
ENDBRANCH   4   6
ENDBRANCH   3   4
ENDBRANCH   2   3
TORSDOF 3
ENDMDL
MODEL       74
REMARK 921   NORMALIZED FREE ENERGY PREDICTED BY IDOCK:   -3.61 KCAL/MOL
REMARK 922        TOTAL FREE ENERGY PREDICTED BY IDOCK:   -4.70 KCAL/MOL
REMARK 923 INTER-LIGAND FREE ENERGY PREDICTED BY IDOCK:   -4.44 KCAL/MOL
REMARK 924 INTRA-LIGAND FREE ENERGY PREDICTED BY IDOCK:   -0.25 KCAL/MOL
REMARK 927      BINDING AFFINITY PREDICTED BY RF-SCORE:    0.00 PKD
ROOT
HETATM    1  C   UNL     1     -13.410   9.655  71.493  1.00  0.00    -0.468 C  
HETATM    2  C   UNL     1     -11.945  10.061  71.451  1.00  0.00    -0.383 C  
ENDROOT
BRANCH   2   3
HETATM    3  O   UNL     1     -11.840  11.264  70.680  1.00  0.00    -0.340 OA 
BRANCH   3   4
HETATM    4  C   UNL     1     -11.135  11.145  69.523  1.00  0.00    -0.252 C  
HETATM    5  O   UNL     1     -10.394  10.219  69.238  1.00  0.00    -0.203 OA 
BRANCH   4   6
HETATM    6  C   UNL     1     -11.542  12.234  68.597  1.00  0.00    -0.372 A  
HETATM    7  C   UNL     1     -11.641  11.968  67.218  1.00  0.00    -0.383 A  
HETATM    8  C   UNL     1     -11.886  13.000  66.311  1.00  0.00    -0.466 A  
HETATM    9  C   UNL     1     -12.032  14.306  66.772  1.00  0.00    -0.462 A  
HETATM   10  C   UNL     1     -11.950  14.581  68.138  1.00  0.00    -0.296 A  
HETATM   11  C   UNL     1     -11.706  13.549  69.047  1.00  0.00    -0.327 A  
HETATM   12  O   UNL     1     -11.646  13.841  70.380  1.00  0.00    -0.490 OA 
HETATM   13  H   UNL     1     -11.757  14.734  70.684  1.00  0.00     0.000 HD 
ENDBRANCH   4   6
ENDBRANCH   3   4
ENDBRANCH   2   3
TORSDOF 3
ENDMDL
MODEL       75
REMARK 921   NORMALIZED FREE ENERGY PREDICTED BY IDOCK:   -3.61 KCAL/MOL
REMARK 922        TOTAL FREE ENERGY PREDICTED BY IDOCK:   -4.69 KCAL/MOL
REMARK 923 INTER-LIGAND FREE ENERGY PREDICTED BY IDOCK:   -4.25 KCAL/MOL
REMARK 924 INTRA-LIGAND FREE ENERGY PREDICTED BY IDOCK:   -0.44 KCAL/MOL
REMARK 927      BINDING AFFINITY PREDICTED BY RF-SCORE:    0.00 PKD
ROOT
HETATM    1  C   UNL     1      -9.930  15.312  65.755  1.00  0.00    -0.391 C  
HETATM    2  C   UNL     1     -11.357  15.012  65.323  1.00  0.00    -0.349 C  
ENDROOT
BRANCH   2   3
HETATM    3  O   UNL     1     -11.938  14.132  66.293  1.00  0.00    -0.394 OA 
BRANCH   3   4
HETATM    4  C   UNL     1     -12.190  12.872  65.847  1.00  0.00    -0.407 C  
HETATM    5  O   UNL     1     -12.886  12.588  64.886  1.00  0.00    -0.758 OA 
BRANCH   4   6
HETATM    6  C   UNL     1     -11.351  11.913  66.611  1.00  0.00    -0.400 A  
HETATM    7  C   UNL     1     -11.784  11.473  67.877  1.00  0.00    -0.317 A  
HETATM    8  C   UNL     1     -10.956  10.683  68.676  1.00  0.00    -0.291 A  
HETATM    9  C   UNL     1      -9.689  10.328  68.221  1.00  0.00    -0.154 A  
HETATM   10  C   UNL     1      -9.253  10.747  66.962  1.00  0.00    -0.166 A  
HETATM   11  C   UNL     1     -10.081  11.536  66.161  1.00  0.00    -0.229 A  
HETATM   12  O   UNL     1      -9.638  11.919  64.927  1.00  0.00    -0.391 OA 
HETATM   13  H   UNL     1      -8.776  11.663  64.622  1.00  0.00     0.000 HD 
ENDBRANCH   4   6
ENDBRANCH   3   4
ENDBRANCH   2   3
TORSDOF 3
ENDMDL
MODEL       76
REMARK 921   NORMALIZED FREE ENERGY PREDICTED BY IDOCK:   -3.59 KCAL/MOL
REMARK 922        TOTAL FREE ENERGY PREDICTED BY IDOCK:   -4.68 KCAL/MOL
REMARK 923 INTER-LIGAND FREE ENERGY PREDICTED BY IDOCK:   -4.34 KCAL/MOL
REMARK 924 INTRA-LIGAND FREE ENERGY PREDICTED BY IDOCK:   -0.33 KCAL/MOL
REMARK 927      BINDING AFFINITY PREDICTED BY RF-SCORE:    0.00 PKD
ROOT
HETATM    1  C   UNL     1     -12.250  12.597  63.585  1.00  0.00    -0.624 C  
HETATM    2  C   UNL     1     -11.003  13.092  64.301  1.00  0.00    -0.403 C  
ENDROOT
BRANCH   2   3
HETATM    3  O   UNL     1     -11.147  14.502  64.517  1.00  0.00    -0.349 OA 
BRANCH   3   4
HETATM    4  C   UNL     1     -11.277  14.872  65.820  1.00  0.00    -0.334 C  
HETATM    5  O   UNL     1     -12.053  14.378  66.621  1.00  0.00    -0.419 OA 
BRANCH   4   6
HETATM    6  C   UNL     1     -10.211  15.853  66.151  1.00  0.00    -0.340 A  
HETATM    7  C   UNL     1     -10.499  17.230  66.096  1.00  0.00    -0.279 A  
HETATM    8  C   UNL     1      -9.487  18.176  66.265  1.00  0.00    -0.231 A  
HETATM    9  C   UNL     1      -8.179  17.754  66.490  1.00  0.00    -0.300 A  
HETATM   10  C   UNL     1      -7.883  16.392  66.561  1.00  0.00    -0.323 A  
HETATM   11  C   UNL     1      -8.895  15.446  66.392  1.00  0.00    -0.305 A  
HETATM   12  O   UNL     1      -8.583  14.119  66.482  1.00  0.00    -0.438 OA 
HETATM   13  H   UNL     1      -7.689  13.842  66.645  1.00  0.00     0.000 HD 
ENDBRANCH   4   6
ENDBRANCH   3   4
ENDBRANCH   2   3
TORSDOF 3
ENDMDL
MODEL       77
REMARK 921   NORMALIZED FREE ENERGY PREDICTED BY IDOCK:   -3.59 KCAL/MOL
REMARK 922        TOTAL FREE ENERGY PREDICTED BY IDOCK:   -4.67 KCAL/MOL
REMARK 923 INTER-LIGAND FREE ENERGY PREDICTED BY IDOCK:   -4.27 KCAL/MOL
REMARK 924 INTRA-LIGAND FREE ENERGY PREDICTED BY IDOCK:   -0.41 KCAL/MOL
REMARK 927      BINDING AFFINITY PREDICTED BY RF-SCORE:    0.00 PKD
ROOT
HETATM    1  C   UNL     1     -11.733  14.384  66.270  1.00  0.00    -0.394 C  
HETATM    2  C   UNL     1     -11.579  14.590  67.769  1.00  0.00    -0.365 C  
ENDROOT
BRANCH   2   3
HETATM    3  O   UNL     1     -11.479  15.999  68.014  1.00  0.00    -0.309 OA 
BRANCH   3   4
HETATM    4  C   UNL     1     -10.339  16.392  68.643  1.00  0.00    -0.273 C  
HETATM    5  O   UNL     1      -9.668  15.699  69.390  1.00  0.00    -0.257 OA 
BRANCH   4   6
HETATM    6  C   UNL     1      -9.954  17.738  68.144  1.00  0.00    -0.342 A  
HETATM    7  C   UNL     1     -10.898  18.510  67.441  1.00  0.00    -0.342 A  
HETATM    8  C   UNL     1     -10.528  19.715  66.843  1.00  0.00    -0.606 A  
HETATM    9  C   UNL     1      -9.211  20.159  66.939  1.00  0.00    -0.499 A  
HETATM   10  C   UNL     1      -8.269  19.409  67.646  1.00  0.00    -0.329 A  
HETATM   11  C   UNL     1      -8.639  18.204  68.245  1.00  0.00    -0.288 A  
HETATM   12  O   UNL     1      -7.702  17.497  68.944  1.00  0.00    -0.263 OA 
HETATM   13  H   UNL     1      -6.809  17.814  69.013  1.00  0.00     0.000 HD 
ENDBRANCH   4   6
ENDBRANCH   3   4
ENDBRANCH   2   3
TORSDOF 3
ENDMDL
MODEL       78
REMARK 921   NORMALIZED FREE ENERGY PREDICTED BY IDOCK:   -3.58 KCAL/MOL
REMARK 922        TOTAL FREE ENERGY PREDICTED BY IDOCK:   -4.66 KCAL/MOL
REMARK 923 INTER-LIGAND FREE ENERGY PREDICTED BY IDOCK:   -4.23 KCAL/MOL
REMARK 924 INTRA-LIGAND FREE ENERGY PREDICTED BY IDOCK:   -0.43 KCAL/MOL
REMARK 927      BINDING AFFINITY PREDICTED BY RF-SCORE:    0.00 PKD
ROOT
HETATM    1  C   UNL     1     -10.109  20.104  67.563  1.00  0.00    -0.549 C  
HETATM    2  C   UNL     1      -9.655  19.900  66.126  1.00  0.00    -0.397 C  
ENDROOT
BRANCH   2   3
HETATM    3  O   UNL     1      -9.212  18.544  65.990  1.00  0.00    -0.499 OA 
BRANCH   3   4
HETATM    4  C   UNL     1     -10.209  17.623  65.892  1.00  0.00    -0.232 C  
HETATM    5  O   UNL     1     -10.980  17.511  64.953  1.00  0.00    -0.887 OA 
BRANCH   4   6
HETATM    6  C   UNL     1     -10.100  16.674  67.030  1.00  0.00    -0.281 A  
HETATM    7  C   UNL     1     -11.118  16.641  68.002  1.00  0.00    -0.255 A  
HETATM    8  C   UNL     1     -10.979  15.863  69.152  1.00  0.00    -0.284 A  
HETATM    9  C   UNL     1      -9.822  15.110  69.341  1.00  0.00    -0.216 A  
HETATM   10  C   UNL     1      -8.811  15.123  68.378  1.00  0.00    -0.174 A  
HETATM   11  C   UNL     1      -8.950  15.901  67.228  1.00  0.00    -0.195 A  
HETATM   12  O   UNL     1      -7.955  15.884  66.292  1.00  0.00    -0.259 OA 
HETATM   13  H   UNL     1      -7.174  15.360  66.427  1.00  0.00     0.000 HD 
ENDBRANCH   4   6
ENDBRANCH   3   4
ENDBRANCH   2   3
TORSDOF 3
ENDMDL
MODEL       79
REMARK 921   NORMALIZED FREE ENERGY PREDICTED BY IDOCK:   -3.58 KCAL/MOL
REMARK 922        TOTAL FREE ENERGY PREDICTED BY IDOCK:   -4.66 KCAL/MOL
REMARK 923 INTER-LIGAND FREE ENERGY PREDICTED BY IDOCK:   -4.19 KCAL/MOL
REMARK 924 INTRA-LIGAND FREE ENERGY PREDICTED BY IDOCK:   -0.47 KCAL/MOL
REMARK 927      BINDING AFFINITY PREDICTED BY RF-SCORE:    0.00 PKD
ROOT
HETATM    1  C   UNL     1      -5.192  19.492  70.775  1.00  0.00    -0.241 C  
HETATM    2  C   UNL     1      -6.380  20.054  70.009  1.00  0.00    -0.346 C  
ENDROOT
BRANCH   2   3
HETATM    3  O   UNL     1      -6.105  19.923  68.608  1.00  0.00    -0.243 OA 
BRANCH   3   4
HETATM    4  C   UNL     1      -6.651  18.825  68.017  1.00  0.00    -0.219 C  
HETATM    5  O   UNL     1      -6.087  17.757  67.852  1.00  0.00    -0.154 OA 
BRANCH   4   6
HETATM    6  C   UNL     1      -8.091  19.084  67.759  1.00  0.00    -0.297 A  
HETATM    7  C   UNL     1      -9.059  18.231  68.323  1.00  0.00    -0.318 A  
HETATM    8  C   UNL     1     -10.407  18.365  67.988  1.00  0.00    -0.410 A  
HETATM    9  C   UNL     1     -10.800  19.350  67.086  1.00  0.00    -0.561 A  
HETATM   10  C   UNL     1      -9.852  20.212  66.530  1.00  0.00    -0.574 A  
HETATM   11  C   UNL     1      -8.504  20.079  66.865  1.00  0.00    -0.328 A  
HETATM   12  O   UNL     1      -7.598  20.944  66.321  1.00  0.00    -0.499 OA 
HETATM   13  H   UNL     1      -7.878  21.619  65.714  1.00  0.00     0.000 HD 
ENDBRANCH   4   6
ENDBRANCH   3   4
ENDBRANCH   2   3
TORSDOF 3
ENDMDL
MODEL       80
REMARK 921   NORMALIZED FREE ENERGY PREDICTED BY IDOCK:   -3.58 KCAL/MOL
REMARK 922        TOTAL FREE ENERGY PREDICTED BY IDOCK:   -4.66 KCAL/MOL
REMARK 923 INTER-LIGAND FREE ENERGY PREDICTED BY IDOCK:   -4.25 KCAL/MOL
REMARK 924 INTRA-LIGAND FREE ENERGY PREDICTED BY IDOCK:   -0.40 KCAL/MOL
REMARK 927      BINDING AFFINITY PREDICTED BY RF-SCORE:    0.00 PKD
ROOT
HETATM    1  C   UNL     1      -8.376  10.632  68.762  1.00  0.00    -0.144 C  
HETATM    2  C   UNL     1      -8.789  11.356  67.489  1.00  0.00    -0.146 C  
ENDROOT
BRANCH   2   3
HETATM    3  O   UNL     1      -9.798  10.571  66.841  1.00  0.00    -0.181 OA 
BRANCH   3   4
HETATM    4  C   UNL     1     -11.066  11.046  66.972  1.00  0.00    -0.244 C  
HETATM    5  O   UNL     1     -11.804  10.841  67.921  1.00  0.00    -0.553 OA 
BRANCH   4   6
HETATM    6  C   UNL     1     -11.345  11.986  65.855  1.00  0.00    -0.391 A  
HETATM    7  C   UNL     1     -12.016  13.195  66.122  1.00  0.00    -0.478 A  
HETATM    8  C   UNL     1     -12.414  14.032  65.079  1.00  0.00    -0.446 A  
HETATM    9  C   UNL     1     -12.146  13.670  63.761  1.00  0.00    -0.435 A  
HETATM   10  C   UNL     1     -11.469  12.481  63.484  1.00  0.00    -0.570 A  
HETATM   11  C   UNL     1     -11.071  11.642  64.527  1.00  0.00    -0.301 A  
HETATM   12  O   UNL     1     -10.396  10.492  64.231  1.00  0.00    -0.365 OA 
HETATM   13  H   UNL     1     -10.210  10.259  63.330  1.00  0.00     0.000 HD 
ENDBRANCH   4   6
ENDBRANCH   3   4
ENDBRANCH   2   3
TORSDOF 3
ENDMDL
MODEL       81
REMARK 921   NORMALIZED FREE ENERGY PREDICTED BY IDOCK:   -3.57 KCAL/MOL
REMARK 922        TOTAL FREE ENERGY PREDICTED BY IDOCK:   -4.65 KCAL/MOL
REMARK 923 INTER-LIGAND FREE ENERGY PREDICTED BY IDOCK:   -4.12 KCAL/MOL
REMARK 924 INTRA-LIGAND FREE ENERGY PREDICTED BY IDOCK:   -0.53 KCAL/MOL
REMARK 927      BINDING AFFINITY PREDICTED BY RF-SCORE:    0.00 PKD
ROOT
HETATM    1  C   UNL     1     -13.067  10.561  71.725  1.00  0.00    -0.570 C  
HETATM    2  C   UNL     1     -13.376   9.118  72.091  1.00  0.00    -0.463 C  
ENDROOT
BRANCH   2   3
HETATM    3  O   UNL     1     -12.204   8.553  72.693  1.00  0.00    -0.379 OA 
BRANCH   3   4
HETATM    4  C   UNL     1     -11.698   7.465  72.051  1.00  0.00    -0.289 C  
HETATM    5  O   UNL     1     -12.073   6.315  72.204  1.00  0.00    -0.333 OA 
BRANCH   4   6
HETATM    6  C   UNL     1     -10.734   7.923  71.017  1.00  0.00    -0.239 A  
HETATM    7  C   UNL     1      -9.759   8.880  71.356  1.00  0.00    -0.370 A  
HETATM    8  C   UNL     1      -8.931   9.430  70.377  1.00  0.00    -0.294 A  
HETATM    9  C   UNL     1      -9.070   9.030  69.050  1.00  0.00    -0.143 A  
HETATM   10  C   UNL     1     -10.024   8.072  68.702  1.00  0.00    -0.200 A  
HETATM   11  C   UNL     1     -10.852   7.521  69.682  1.00  0.00    -0.202 A  
HETATM   12  O   UNL     1     -11.766   6.573  69.319  1.00  0.00    -0.644 OA 
HETATM   13  H   UNL     1     -11.846   6.300  68.413  1.00  0.00     0.000 HD 
ENDBRANCH   4   6
ENDBRANCH   3   4
ENDBRANCH   2   3
TORSDOF 3
ENDMDL
MODEL       82
REMARK 921   NORMALIZED FREE ENERGY PREDICTED BY IDOCK:   -3.56 KCAL/MOL
REMARK 922        TOTAL FREE ENERGY PREDICTED BY IDOCK:   -4.63 KCAL/MOL
REMARK 923 INTER-LIGAND FREE ENERGY PREDICTED BY IDOCK:   -4.25 KCAL/MOL
REMARK 924 INTRA-LIGAND FREE ENERGY PREDICTED BY IDOCK:   -0.38 KCAL/MOL
REMARK 927      BINDING AFFINITY PREDICTED BY RF-SCORE:    0.00 PKD
ROOT
HETATM    1  C   UNL     1     -11.777  10.792  69.080  1.00  0.00    -0.368 C  
HETATM    2  C   UNL     1     -11.729  11.968  68.117  1.00  0.00    -0.333 C  
ENDROOT
BRANCH   2   3
HETATM    3  O   UNL     1     -10.778  11.661  67.090  1.00  0.00    -0.225 OA 
BRANCH   3   4
HETATM    4  C   UNL     1     -11.219  11.869  65.820  1.00  0.00    -0.312 C  
HETATM    5  O   UNL     1     -12.053  12.694  65.486  1.00  0.00    -0.436 OA 
BRANCH   4   6
HETATM    6  C   UNL     1     -10.403  11.048  64.887  1.00  0.00    -0.378 A  
HETATM    7  C   UNL     1      -9.551  10.054  65.406  1.00  0.00    -0.342 A  
HETATM    8  C   UNL     1      -8.673   9.363  64.571  1.00  0.00    -0.233 A  
HETATM    9  C   UNL     1      -8.636   9.659  63.211  1.00  0.00    -0.210 A  
HETATM   10  C   UNL     1      -9.485  10.633  62.681  1.00  0.00    -0.332 A  
HETATM   11  C   UNL     1     -10.364  11.324  63.516  1.00  0.00    -0.408 A  
HETATM   12  O   UNL     1     -11.196  12.261  62.972  1.00  0.00    -0.677 OA 
HETATM   13  H   UNL     1     -11.170  12.448  62.041  1.00  0.00     0.000 HD 
ENDBRANCH   4   6
ENDBRANCH   3   4
ENDBRANCH   2   3
TORSDOF 3
ENDMDL
MODEL       83
REMARK 921   NORMALIZED FREE ENERGY PREDICTED BY IDOCK:   -3.56 KCAL/MOL
REMARK 922        TOTAL FREE ENERGY PREDICTED BY IDOCK:   -4.63 KCAL/MOL
REMARK 923 INTER-LIGAND FREE ENERGY PREDICTED BY IDOCK:   -4.20 KCAL/MOL
REMARK 924 INTRA-LIGAND FREE ENERGY PREDICTED BY IDOCK:   -0.43 KCAL/MOL
REMARK 927      BINDING AFFINITY PREDICTED BY RF-SCORE:    0.00 PKD
ROOT
HETATM    1  C   UNL     1     -12.720  10.860  71.382  1.00  0.00    -0.539 C  
HETATM    2  C   UNL     1     -11.676   9.756  71.451  1.00  0.00    -0.398 C  
ENDROOT
BRANCH   2   3
HETATM    3  O   UNL     1     -12.111   8.682  70.608  1.00  0.00    -0.144 OA 
BRANCH   3   4
HETATM    4  C   UNL     1     -12.560   7.580  71.268  1.00  0.00    -0.314 C  
HETATM    5  O   UNL     1     -13.671   7.451  71.756  1.00  0.00    -0.359 OA 
BRANCH   4   6
HETATM    6  C   UNL     1     -11.543   6.503  71.154  1.00  0.00    -0.390 A  
HETATM    7  C   UNL     1     -11.026   5.914  72.324  1.00  0.00    -0.313 A  
HETATM    8  C   UNL     1      -9.974   5.000  72.254  1.00  0.00    -0.233 A  
HETATM    9  C   UNL     1      -9.428   4.667  71.017  1.00  0.00    -0.227 A  
HETATM   10  C   UNL     1      -9.940   5.234  69.849  1.00  0.00    -0.309 A  
HETATM   11  C   UNL     1     -10.993   6.148  69.917  1.00  0.00    -0.389 A  
HETATM   12  O   UNL     1     -11.489   6.675  68.759  1.00  0.00    -0.584 OA 
HETATM   13  H   UNL     1     -11.115   6.434  67.919  1.00  0.00     0.000 HD 
ENDBRANCH   4   6
ENDBRANCH   3   4
ENDBRANCH   2   3
TORSDOF 3
ENDMDL
MODEL       84
REMARK 921   NORMALIZED FREE ENERGY PREDICTED BY IDOCK:   -3.56 KCAL/MOL
REMARK 922        TOTAL FREE ENERGY PREDICTED BY IDOCK:   -4.63 KCAL/MOL
REMARK 923 INTER-LIGAND FREE ENERGY PREDICTED BY IDOCK:   -4.27 KCAL/MOL
REMARK 924 INTRA-LIGAND FREE ENERGY PREDICTED BY IDOCK:   -0.36 KCAL/MOL
REMARK 927      BINDING AFFINITY PREDICTED BY RF-SCORE:    0.00 PKD
ROOT
HETATM    1  C   UNL     1     -11.630   5.794  72.412  1.00  0.00    -0.320 C  
HETATM    2  C   UNL     1     -12.512   6.941  71.942  1.00  0.00    -0.311 C  
ENDROOT
BRANCH   2   3
HETATM    3  O   UNL     1     -12.091   8.131  72.622  1.00  0.00    -0.359 OA 
BRANCH   3   4
HETATM    4  C   UNL     1     -12.279   9.285  71.928  1.00  0.00    -0.378 C  
HETATM    5  O   UNL     1     -13.164  10.099  72.134  1.00  0.00    -0.444 OA 
BRANCH   4   6
HETATM    6  C   UNL     1     -11.139   9.475  70.993  1.00  0.00    -0.433 A  
HETATM    7  C   UNL     1      -9.862   9.007  71.357  1.00  0.00    -0.381 A  
HETATM    8  C   UNL     1      -8.749   9.291  70.565  1.00  0.00    -0.276 A  
HETATM    9  C   UNL     1      -8.900  10.045  69.404  1.00  0.00    -0.200 A  
HETATM   10  C   UNL     1     -10.164  10.503  69.025  1.00  0.00    -0.233 A  
HETATM   11  C   UNL     1     -11.278  10.219  69.816  1.00  0.00    -0.282 A  
HETATM   12  O   UNL     1     -12.506  10.664  69.415  1.00  0.00    -0.655 OA 
HETATM   13  H   UNL     1     -12.599  11.169  68.616  1.00  0.00     0.000 HD 
ENDBRANCH   4   6
ENDBRANCH   3   4
ENDBRANCH   2   3
TORSDOF 3
ENDMDL
MODEL       85
REMARK 921   NORMALIZED FREE ENERGY PREDICTED BY IDOCK:   -3.55 KCAL/MOL
REMARK 922        TOTAL FREE ENERGY PREDICTED BY IDOCK:   -4.63 KCAL/MOL
REMARK 923 INTER-LIGAND FREE ENERGY PREDICTED BY IDOCK:   -4.24 KCAL/MOL
REMARK 924 INTRA-LIGAND FREE ENERGY PREDICTED BY IDOCK:   -0.39 KCAL/MOL
REMARK 927      BINDING AFFINITY PREDICTED BY RF-SCORE:    0.00 PKD
ROOT
HETATM    1  C   UNL     1     -11.542  15.312  68.865  1.00  0.00    -0.365 C  
HETATM    2  C   UNL     1     -12.226  14.015  68.461  1.00  0.00    -0.174 C  
ENDROOT
BRANCH   2   3
HETATM    3  O   UNL     1     -11.571  12.938  69.142  1.00  0.00    -0.285 OA 
BRANCH   3   4
HETATM    4  C   UNL     1     -11.836  11.699  68.645  1.00  0.00    -0.308 C  
HETATM    5  O   UNL     1     -11.862  11.402  67.462  1.00  0.00    -0.614 OA 
BRANCH   4   6
HETATM    6  C   UNL     1     -11.921  10.736  69.773  1.00  0.00    -0.397 A  
HETATM    7  C   UNL     1     -12.861  10.954  70.798  1.00  0.00    -0.378 A  
HETATM    8  C   UNL     1     -12.872  10.147  71.937  1.00  0.00    -0.526 A  
HETATM    9  C   UNL     1     -11.944   9.116  72.062  1.00  0.00    -0.421 A  
HETATM   10  C   UNL     1     -11.016   8.881  71.047  1.00  0.00    -0.341 A  
HETATM   11  C   UNL     1     -11.004   9.687  69.907  1.00  0.00    -0.252 A  
HETATM   12  O   UNL     1     -10.097   9.426  68.920  1.00  0.00    -0.177 OA 
HETATM   13  H   UNL     1      -9.475   8.715  69.012  1.00  0.00     0.000 HD 
ENDBRANCH   4   6
ENDBRANCH   3   4
ENDBRANCH   2   3
TORSDOF 3
ENDMDL
MODEL       86
REMARK 921   NORMALIZED FREE ENERGY PREDICTED BY IDOCK:   -3.55 KCAL/MOL
REMARK 922        TOTAL FREE ENERGY PREDICTED BY IDOCK:   -4.63 KCAL/MOL
REMARK 923 INTER-LIGAND FREE ENERGY PREDICTED BY IDOCK:   -4.20 KCAL/MOL
REMARK 924 INTRA-LIGAND FREE ENERGY PREDICTED BY IDOCK:   -0.42 KCAL/MOL
REMARK 927      BINDING AFFINITY PREDICTED BY RF-SCORE:    0.00 PKD
ROOT
HETATM    1  C   UNL     1     -11.965  10.366  70.373  1.00  0.00    -0.409 C  
HETATM    2  C   UNL     1     -11.192  11.038  69.248  1.00  0.00    -0.257 C  
ENDROOT
BRANCH   2   3
HETATM    3  O   UNL     1     -12.120  11.807  68.471  1.00  0.00    -0.454 OA 
BRANCH   3   4
HETATM    4  C   UNL     1     -12.006  13.155  68.612  1.00  0.00    -0.284 C  
HETATM    5  O   UNL     1     -12.140  13.771  69.656  1.00  0.00    -0.318 OA 
BRANCH   4   6
HETATM    6  C   UNL     1     -11.530  13.734  67.328  1.00  0.00    -0.367 A  
HETATM    7  C   UNL     1     -12.291  13.540  66.159  1.00  0.00    -0.463 A  
HETATM    8  C   UNL     1     -11.803  13.951  64.918  1.00  0.00    -0.401 A  
HETATM    9  C   UNL     1     -10.553  14.558  64.833  1.00  0.00    -0.450 A  
HETATM   10  C   UNL     1      -9.795  14.769  65.987  1.00  0.00    -0.350 A  
HETATM   11  C   UNL     1     -10.282  14.358  67.229  1.00  0.00    -0.252 A  
HETATM   12  O   UNL     1      -9.530  14.590  68.345  1.00  0.00    -0.197 OA 
HETATM   13  H   UNL     1      -8.682  15.014  68.277  1.00  0.00     0.000 HD 
ENDBRANCH   4   6
ENDBRANCH   3   4
ENDBRANCH   2   3
TORSDOF 3
ENDMDL
MODEL       87
REMARK 921   NORMALIZED FREE ENERGY PREDICTED BY IDOCK:   -3.54 KCAL/MOL
REMARK 922        TOTAL FREE ENERGY PREDICTED BY IDOCK:   -4.61 KCAL/MOL
REMARK 923 INTER-LIGAND FREE ENERGY PREDICTED BY IDOCK:   -4.20 KCAL/MOL
REMARK 924 INTRA-LIGAND FREE ENERGY PREDICTED BY IDOCK:   -0.42 KCAL/MOL
REMARK 927      BINDING AFFINITY PREDICTED BY RF-SCORE:    0.00 PKD
ROOT
HETATM    1  C   UNL     1     -10.868  10.905  66.864  1.00  0.00    -0.307 C  
HETATM    2  C   UNL     1     -10.106   9.611  67.108  1.00  0.00    -0.218 C  
ENDROOT
BRANCH   2   3
HETATM    3  O   UNL     1     -10.580   9.043  68.336  1.00  0.00    -0.207 OA 
BRANCH   3   4
HETATM    4  C   UNL     1     -10.088   9.623  69.464  1.00  0.00    -0.209 C  
HETATM    5  O   UNL     1      -8.975  10.108  69.583  1.00  0.00    -0.202 OA 
BRANCH   4   6
HETATM    6  C   UNL     1     -11.178   9.720  70.469  1.00  0.00    -0.381 A  
HETATM    7  C   UNL     1     -11.599   8.559  71.145  1.00  0.00    -0.325 A  
HETATM    8  C   UNL     1     -12.709   8.591  71.991  1.00  0.00    -0.421 A  
HETATM    9  C   UNL     1     -13.408   9.782  72.168  1.00  0.00    -0.527 A  
HETATM   10  C   UNL     1     -12.993  10.944  71.514  1.00  0.00    -0.556 A  
HETATM   11  C   UNL     1     -11.883  10.912  70.669  1.00  0.00    -0.352 A  
HETATM   12  O   UNL     1     -11.486  12.065  70.053  1.00  0.00    -0.490 OA 
HETATM   13  H   UNL     1     -11.964  12.875  70.189  1.00  0.00     0.000 HD 
ENDBRANCH   4   6
ENDBRANCH   3   4
ENDBRANCH   2   3
TORSDOF 3
ENDMDL
MODEL       88
REMARK 921   NORMALIZED FREE ENERGY PREDICTED BY IDOCK:   -3.54 KCAL/MOL
REMARK 922        TOTAL FREE ENERGY PREDICTED BY IDOCK:   -4.61 KCAL/MOL
REMARK 923 INTER-LIGAND FREE ENERGY PREDICTED BY IDOCK:   -4.20 KCAL/MOL
REMARK 924 INTRA-LIGAND FREE ENERGY PREDICTED BY IDOCK:   -0.41 KCAL/MOL
REMARK 927      BINDING AFFINITY PREDICTED BY RF-SCORE:    0.00 PKD
ROOT
HETATM    1  C   UNL     1      -9.090   4.910  72.596  1.00  0.00    -0.142 C  
HETATM    2  C   UNL     1     -10.422   4.788  71.873  1.00  0.00    -0.130 C  
ENDROOT
BRANCH   2   3
HETATM    3  O   UNL     1     -11.087   6.055  71.954  1.00  0.00    -0.255 OA 
BRANCH   3   4
HETATM    4  C   UNL     1     -11.230   6.705  70.767  1.00  0.00    -0.315 C  
HETATM    5  O   UNL     1     -10.977   6.238  69.669  1.00  0.00    -0.298 OA 
BRANCH   4   6
HETATM    6  C   UNL     1     -11.898   8.010  71.010  1.00  0.00    -0.280 A  
HETATM    7  C   UNL     1     -11.278   9.196  70.573  1.00  0.00    -0.309 A  
HETATM    8  C   UNL     1     -11.810  10.442  70.907  1.00  0.00    -0.475 A  
HETATM    9  C   UNL     1     -12.966  10.515  71.681  1.00  0.00    -0.581 A  
HETATM   10  C   UNL     1     -13.598   9.346  72.109  1.00  0.00    -0.528 A  
HETATM   11  C   UNL     1     -13.066   8.099  71.775  1.00  0.00    -0.345 A  
HETATM   12  O   UNL     1     -13.712   6.970  72.192  1.00  0.00    -0.543 OA 
HETATM   13  H   UNL     1     -14.505   7.031  72.711  1.00  0.00     0.000 HD 
ENDBRANCH   4   6
ENDBRANCH   3   4
ENDBRANCH   2   3
TORSDOF 3
ENDMDL
MODEL       89
REMARK 921   NORMALIZED FREE ENERGY PREDICTED BY IDOCK:   -3.53 KCAL/MOL
REMARK 922        TOTAL FREE ENERGY PREDICTED BY IDOCK:   -4.60 KCAL/MOL
REMARK 923 INTER-LIGAND FREE ENERGY PREDICTED BY IDOCK:   -4.22 KCAL/MOL
REMARK 924 INTRA-LIGAND FREE ENERGY PREDICTED BY IDOCK:   -0.38 KCAL/MOL
REMARK 927      BINDING AFFINITY PREDICTED BY RF-SCORE:    0.00 PKD
ROOT
HETATM    1  C   UNL     1      -8.899  10.624  65.957  1.00  0.00    -0.187 C  
HETATM    2  C   UNL     1     -10.302  10.347  66.475  1.00  0.00    -0.224 C  
ENDROOT
BRANCH   2   3
HETATM    3  O   UNL     1     -10.523  11.179  67.621  1.00  0.00    -0.182 OA 
BRANCH   3   4
HETATM    4  C   UNL     1     -11.601  12.004  67.530  1.00  0.00    -0.330 C  
HETATM    5  O   UNL     1     -12.286  12.168  66.534  1.00  0.00    -0.584 OA 
BRANCH   4   6
HETATM    6  C   UNL     1     -11.908  12.543  68.881  1.00  0.00    -0.346 A  
HETATM    7  C   UNL     1     -12.080  11.652  69.958  1.00  0.00    -0.395 A  
HETATM    8  C   UNL     1     -12.504  12.116  71.204  1.00  0.00    -0.337 A  
HETATM    9  C   UNL     1     -12.761  13.473  71.385  1.00  0.00    -0.423 A  
HETATM   10  C   UNL     1     -12.581  14.369  70.329  1.00  0.00    -0.380 A  
HETATM   11  C   UNL     1     -12.157  13.905  69.083  1.00  0.00    -0.338 A  
HETATM   12  O   UNL     1     -11.972  14.804  68.070  1.00  0.00    -0.492 OA 
HETATM   13  H   UNL     1     -12.140  15.728  68.208  1.00  0.00     0.000 HD 
ENDBRANCH   4   6
ENDBRANCH   3   4
ENDBRANCH   2   3
TORSDOF 3
ENDMDL
MODEL       90
REMARK 921   NORMALIZED FREE ENERGY PREDICTED BY IDOCK:   -3.53 KCAL/MOL
REMARK 922        TOTAL FREE ENERGY PREDICTED BY IDOCK:   -4.60 KCAL/MOL
REMARK 923 INTER-LIGAND FREE ENERGY PREDICTED BY IDOCK:   -4.23 KCAL/MOL
REMARK 924 INTRA-LIGAND FREE ENERGY PREDICTED BY IDOCK:   -0.37 KCAL/MOL
REMARK 927      BINDING AFFINITY PREDICTED BY RF-SCORE:    0.00 PKD
ROOT
HETATM    1  C   UNL     1      -8.352   7.272  70.767  1.00  0.00    -0.124 C  
HETATM    2  C   UNL     1      -9.868   7.149  70.738  1.00  0.00    -0.178 C  
ENDROOT
BRANCH   2   3
HETATM    3  O   UNL     1     -10.419   8.471  70.675  1.00  0.00    -0.194 OA 
BRANCH   3   4
HETATM    4  C   UNL     1     -11.754   8.548  70.925  1.00  0.00    -0.245 C  
HETATM    5  O   UNL     1     -12.476   7.608  71.213  1.00  0.00    -0.318 OA 
BRANCH   4   6
HETATM    6  C   UNL     1     -12.155   9.979  70.955  1.00  0.00    -0.469 A  
HETATM    7  C   UNL     1     -11.536  10.888  70.077  1.00  0.00    -0.424 A  
HETATM    8  C   UNL     1     -11.791  12.257  70.175  1.00  0.00    -0.352 A  
HETATM    9  C   UNL     1     -12.664  12.729  71.151  1.00  0.00    -0.355 A  
HETATM   10  C   UNL     1     -13.295  11.836  72.019  1.00  0.00    -0.417 A  
HETATM   11  C   UNL     1     -13.041  10.467  71.922  1.00  0.00    -0.458 A  
HETATM   12  O   UNL     1     -13.683   9.612  72.772  1.00  0.00    -0.692 OA 
HETATM   13  H   UNL     1     -14.285   9.944  73.428  1.00  0.00     0.000 HD 
ENDBRANCH   4   6
ENDBRANCH   3   4
ENDBRANCH   2   3
TORSDOF 3
ENDMDL
MODEL       91
REMARK 921   NORMALIZED FREE ENERGY PREDICTED BY IDOCK:   -3.52 KCAL/MOL
REMARK 922        TOTAL FREE ENERGY PREDICTED BY IDOCK:   -4.59 KCAL/MOL
REMARK 923 INTER-LIGAND FREE ENERGY PREDICTED BY IDOCK:   -4.18 KCAL/MOL
REMARK 924 INTRA-LIGAND FREE ENERGY PREDICTED BY IDOCK:   -0.41 KCAL/MOL
REMARK 927      BINDING AFFINITY PREDICTED BY RF-SCORE:    0.00 PKD
ROOT
HETATM    1  C   UNL     1      -9.990   5.838  73.377  1.00  0.00    -0.186 C  
HETATM    2  C   UNL     1     -10.835   7.095  73.238  1.00  0.00    -0.338 C  
ENDROOT
BRANCH   2   3
HETATM    3  O   UNL     1     -11.004   7.363  71.841  1.00  0.00    -0.227 OA 
BRANCH   3   4
HETATM    4  C   UNL     1     -12.242   7.800  71.486  1.00  0.00    -0.318 C  
HETATM    5  O   UNL     1     -13.257   7.123  71.481  1.00  0.00    -0.383 OA 
BRANCH   4   6
HETATM    6  C   UNL     1     -12.190   9.269  71.268  1.00  0.00    -0.410 A  
HETATM    7  C   UNL     1     -13.042  10.108  72.012  1.00  0.00    -0.538 A  
HETATM    8  C   UNL     1     -13.115  11.474  71.734  1.00  0.00    -0.503 A  
HETATM    9  C   UNL     1     -12.339  12.013  70.711  1.00  0.00    -0.403 A  
HETATM   10  C   UNL     1     -11.480  11.194  69.975  1.00  0.00    -0.376 A  
HETATM   11  C   UNL     1     -11.407   9.828  70.253  1.00  0.00    -0.272 A  
HETATM   12  O   UNL     1     -10.547   9.051  69.530  1.00  0.00    -0.223 OA 
HETATM   13  H   UNL     1     -10.015   9.430  68.841  1.00  0.00     0.000 HD 
ENDBRANCH   4   6
ENDBRANCH   3   4
ENDBRANCH   2   3
TORSDOF 3
ENDMDL
MODEL       92
REMARK 921   NORMALIZED FREE ENERGY PREDICTED BY IDOCK:   -3.52 KCAL/MOL
REMARK 922        TOTAL FREE ENERGY PREDICTED BY IDOCK:   -4.58 KCAL/MOL
REMARK 923 INTER-LIGAND FREE ENERGY PREDICTED BY IDOCK:   -4.06 KCAL/MOL
REMARK 924 INTRA-LIGAND FREE ENERGY PREDICTED BY IDOCK:   -0.52 KCAL/MOL
REMARK 927      BINDING AFFINITY PREDICTED BY RF-SCORE:    0.00 PKD
ROOT
HETATM    1  C   UNL     1      -5.992  16.808  67.044  1.00  0.00    -0.213 C  
HETATM    2  C   UNL     1      -5.876  18.039  66.159  1.00  0.00    -0.196 C  
ENDROOT
BRANCH   2   3
HETATM    3  O   UNL     1      -5.855  19.194  67.008  1.00  0.00    -0.164 OA 
BRANCH   3   4
HETATM    4  C   UNL     1      -6.700  20.194  66.635  1.00  0.00    -0.222 C  
HETATM    5  O   UNL     1      -6.394  21.165  65.963  1.00  0.00    -0.252 OA 
BRANCH   4   6
HETATM    6  C   UNL     1      -8.083  19.830  67.037  1.00  0.00    -0.327 A  
HETATM    7  C   UNL     1      -9.125  19.931  66.095  1.00  0.00    -0.393 A  
HETATM    8  C   UNL     1     -10.452  19.729  66.478  1.00  0.00    -0.615 A  
HETATM    9  C   UNL     1     -10.750  19.426  67.804  1.00  0.00    -0.480 A  
HETATM   10  C   UNL     1      -9.725  19.308  68.745  1.00  0.00    -0.510 A  
HETATM   11  C   UNL     1      -8.397  19.510  68.362  1.00  0.00    -0.349 A  
HETATM   12  O   UNL     1      -7.411  19.373  69.297  1.00  0.00    -0.343 OA 
HETATM   13  H   UNL     1      -7.624  19.156  70.197  1.00  0.00     0.000 HD 
ENDBRANCH   4   6
ENDBRANCH   3   4
ENDBRANCH   2   3
TORSDOF 3
ENDMDL
MODEL       93
REMARK 921   NORMALIZED FREE ENERGY PREDICTED BY IDOCK:   -3.51 KCAL/MOL
REMARK 922        TOTAL FREE ENERGY PREDICTED BY IDOCK:   -4.57 KCAL/MOL
REMARK 923 INTER-LIGAND FREE ENERGY PREDICTED BY IDOCK:   -4.13 KCAL/MOL
REMARK 924 INTRA-LIGAND FREE ENERGY PREDICTED BY IDOCK:   -0.44 KCAL/MOL
REMARK 927      BINDING AFFINITY PREDICTED BY RF-SCORE:    0.00 PKD
ROOT
HETATM    1  C   UNL     1      -9.671  16.498  68.615  1.00  0.00    -0.247 C  
HETATM    2  C   UNL     1     -10.819  16.173  69.559  1.00  0.00    -0.329 C  
ENDROOT
BRANCH   2   3
HETATM    3  O   UNL     1     -11.798  15.427  68.826  1.00  0.00    -0.351 OA 
BRANCH   3   4
HETATM    4  C   UNL     1     -12.131  14.226  69.373  1.00  0.00    -0.318 C  
HETATM    5  O   UNL     1     -12.755  14.069  70.409  1.00  0.00    -0.326 OA 
BRANCH   4   6
HETATM    6  C   UNL     1     -11.761  13.146  68.422  1.00  0.00    -0.386 A  
HETATM    7  C   UNL     1     -11.017  12.043  68.885  1.00  0.00    -0.277 A  
HETATM    8  C   UNL     1     -10.537  11.084  67.992  1.00  0.00    -0.241 A  
HETATM    9  C   UNL     1     -10.794  11.217  66.630  1.00  0.00    -0.325 A  
HETATM   10  C   UNL     1     -11.542  12.298  66.160  1.00  0.00    -0.450 A  
HETATM   11  C   UNL     1     -12.023  13.258  67.052  1.00  0.00    -0.365 A  
HETATM   12  O   UNL     1     -12.766  14.298  66.570  1.00  0.00    -0.521 OA 
HETATM   13  H   UNL     1     -12.944  14.374  65.640  1.00  0.00     0.000 HD 
ENDBRANCH   4   6
ENDBRANCH   3   4
ENDBRANCH   2   3
TORSDOF 3
ENDMDL
MODEL       94
REMARK 921   NORMALIZED FREE ENERGY PREDICTED BY IDOCK:   -3.48 KCAL/MOL
REMARK 922        TOTAL FREE ENERGY PREDICTED BY IDOCK:   -4.55 KCAL/MOL
REMARK 923 INTER-LIGAND FREE ENERGY PREDICTED BY IDOCK:   -4.18 KCAL/MOL
REMARK 924 INTRA-LIGAND FREE ENERGY PREDICTED BY IDOCK:   -0.36 KCAL/MOL
REMARK 927      BINDING AFFINITY PREDICTED BY RF-SCORE:    0.00 PKD
ROOT
HETATM    1  C   UNL     1     -13.535  12.739  72.224  1.00  0.00    -0.591 C  
HETATM    2  C   UNL     1     -12.874  14.024  72.698  1.00  0.00    -0.310 C  
ENDROOT
BRANCH   2   3
HETATM    3  O   UNL     1     -11.959  14.452  71.682  1.00  0.00    -0.321 OA 
BRANCH   3   4
HETATM    4  C   UNL     1     -12.530  15.102  70.632  1.00  0.00    -0.388 C  
HETATM    5  O   UNL     1     -13.545  15.776  70.685  1.00  0.00    -0.394 OA 
BRANCH   4   6
HETATM    6  C   UNL     1     -11.632  14.995  69.453  1.00  0.00    -0.337 A  
HETATM    7  C   UNL     1     -11.293  16.158  68.735  1.00  0.00    -0.359 A  
HETATM    8  C   UNL     1     -10.566  16.073  67.547  1.00  0.00    -0.313 A  
HETATM    9  C   UNL     1     -10.172  14.828  67.065  1.00  0.00    -0.253 A  
HETATM   10  C   UNL     1     -10.489  13.668  67.775  1.00  0.00    -0.241 A  
HETATM   11  C   UNL     1     -11.216  13.752  68.964  1.00  0.00    -0.272 A  
HETATM   12  O   UNL     1     -11.500  12.604  69.648  1.00  0.00    -0.403 OA 
HETATM   13  H   UNL     1     -11.218  11.761  69.316  1.00  0.00     0.000 HD 
ENDBRANCH   4   6
ENDBRANCH   3   4
ENDBRANCH   2   3
TORSDOF 3
ENDMDL
MODEL       95
REMARK 921   NORMALIZED FREE ENERGY PREDICTED BY IDOCK:   -3.48 KCAL/MOL
REMARK 922        TOTAL FREE ENERGY PREDICTED BY IDOCK:   -4.54 KCAL/MOL
REMARK 923 INTER-LIGAND FREE ENERGY PREDICTED BY IDOCK:   -4.19 KCAL/MOL
REMARK 924 INTRA-LIGAND FREE ENERGY PREDICTED BY IDOCK:   -0.36 KCAL/MOL
REMARK 927      BINDING AFFINITY PREDICTED BY RF-SCORE:    0.00 PKD
ROOT
HETATM    1  C   UNL     1     -10.685   5.882  66.951  1.00  0.00    -0.395 C  
HETATM    2  C   UNL     1     -10.524   5.595  68.436  1.00  0.00    -0.195 C  
ENDROOT
BRANCH   2   3
HETATM    3  O   UNL     1     -11.474   6.399  69.148  1.00  0.00    -0.364 OA 
BRANCH   3   4
HETATM    4  C   UNL     1     -11.407   6.301  70.503  1.00  0.00    -0.361 C  
HETATM    5  O   UNL     1     -10.724   5.502  71.122  1.00  0.00    -0.247 OA 
BRANCH   4   6
HETATM    6  C   UNL     1     -12.166   7.428  71.105  1.00  0.00    -0.357 A  
HETATM    7  C   UNL     1     -13.445   7.189  71.644  1.00  0.00    -0.397 A  
HETATM    8  C   UNL     1     -14.237   8.248  72.090  1.00  0.00    -0.460 A  
HETATM    9  C   UNL     1     -13.760   9.554  72.001  1.00  0.00    -0.435 A  
HETATM   10  C   UNL     1     -12.488   9.802  71.482  1.00  0.00    -0.495 A  
HETATM   11  C   UNL     1     -11.695   8.744  71.035  1.00  0.00    -0.282 A  
HETATM   12  O   UNL     1     -10.448   9.011  70.546  1.00  0.00    -0.199 OA 
HETATM   13  H   UNL     1     -10.129   9.904  70.499  1.00  0.00     0.000 HD 
ENDBRANCH   4   6
ENDBRANCH   3   4
ENDBRANCH   2   3
TORSDOF 3
ENDMDL
MODEL       96
REMARK 921   NORMALIZED FREE ENERGY PREDICTED BY IDOCK:   -3.47 KCAL/MOL
REMARK 922        TOTAL FREE ENERGY PREDICTED BY IDOCK:   -4.53 KCAL/MOL
REMARK 923 INTER-LIGAND FREE ENERGY PREDICTED BY IDOCK:   -4.16 KCAL/MOL
REMARK 924 INTRA-LIGAND FREE ENERGY PREDICTED BY IDOCK:   -0.38 KCAL/MOL
REMARK 927      BINDING AFFINITY PREDICTED BY RF-SCORE:    0.00 PKD
ROOT
HETATM    1  C   UNL     1     -12.938  12.486  71.420  1.00  0.00    -0.347 C  
HETATM    2  C   UNL     1     -12.135  11.591  70.488  1.00  0.00    -0.378 C  
ENDROOT
BRANCH   2   3
HETATM    3  O   UNL     1     -12.188  10.255  71.004  1.00  0.00    -0.320 OA 
BRANCH   3   4
HETATM    4  C   UNL     1     -11.399   9.357  70.354  1.00  0.00    -0.248 C  
HETATM    5  O   UNL     1     -10.806   9.564  69.308  1.00  0.00    -0.228 OA 
BRANCH   4   6
HETATM    6  C   UNL     1     -11.241   8.150  71.206  1.00  0.00    -0.297 A  
HETATM    7  C   UNL     1     -10.867   8.300  72.555  1.00  0.00    -0.421 A  
HETATM    8  C   UNL     1     -10.577   7.184  73.341  1.00  0.00    -0.424 A  
HETATM    9  C   UNL     1     -10.658   5.909  72.787  1.00  0.00    -0.257 A  
HETATM   10  C   UNL     1     -11.042   5.745  71.455  1.00  0.00    -0.273 A  
HETATM   11  C   UNL     1     -11.332   6.861  70.668  1.00  0.00    -0.320 A  
HETATM   12  O   UNL     1     -11.721   6.675  69.372  1.00  0.00    -0.643 OA 
HETATM   13  H   UNL     1     -11.782   5.800  69.007  1.00  0.00     0.000 HD 
ENDBRANCH   4   6
ENDBRANCH   3   4
ENDBRANCH   2   3
TORSDOF 3
ENDMDL
MODEL       97
REMARK 921   NORMALIZED FREE ENERGY PREDICTED BY IDOCK:   -3.46 KCAL/MOL
REMARK 922        TOTAL FREE ENERGY PREDICTED BY IDOCK:   -4.52 KCAL/MOL
REMARK 923 INTER-LIGAND FREE ENERGY PREDICTED BY IDOCK:   -4.01 KCAL/MOL
REMARK 924 INTRA-LIGAND FREE ENERGY PREDICTED BY IDOCK:   -0.51 KCAL/MOL
REMARK 927      BINDING AFFINITY PREDICTED BY RF-SCORE:    0.00 PKD
ROOT
HETATM    1  C   UNL     1     -10.719  17.608  67.652  1.00  0.00    -0.318 C  
HETATM    2  C   UNL     1     -10.774  16.708  68.876  1.00  0.00    -0.337 C  
ENDROOT
BRANCH   2   3
HETATM    3  O   UNL     1     -12.003  15.971  68.830  1.00  0.00    -0.340 OA 
BRANCH   3   4
HETATM    4  C   UNL     1     -11.880  14.636  69.059  1.00  0.00    -0.310 C  
HETATM    5  O   UNL     1     -12.144  14.071  70.107  1.00  0.00    -0.309 OA 
BRANCH   4   6
HETATM    6  C   UNL     1     -11.535  13.958  67.782  1.00  0.00    -0.354 A  
HETATM    7  C   UNL     1     -12.323  14.194  66.640  1.00  0.00    -0.375 A  
HETATM    8  C   UNL     1     -12.109  13.470  65.466  1.00  0.00    -0.454 A  
HETATM    9  C   UNL     1     -11.107  12.504  65.423  1.00  0.00    -0.337 A  
HETATM   10  C   UNL     1     -10.309  12.271  66.545  1.00  0.00    -0.250 A  
HETATM   11  C   UNL     1     -10.522  12.995  67.719  1.00  0.00    -0.228 A  
HETATM   12  O   UNL     1      -9.717  12.760  68.798  1.00  0.00    -0.403 OA 
HETATM   13  H   UNL     1      -9.030  12.106  68.754  1.00  0.00     0.000 HD 
ENDBRANCH   4   6
ENDBRANCH   3   4
ENDBRANCH   2   3
TORSDOF 3
ENDMDL
MODEL       98
REMARK 921   NORMALIZED FREE ENERGY PREDICTED BY IDOCK:   -3.46 KCAL/MOL
REMARK 922        TOTAL FREE ENERGY PREDICTED BY IDOCK:   -4.51 KCAL/MOL
REMARK 923 INTER-LIGAND FREE ENERGY PREDICTED BY IDOCK:   -4.18 KCAL/MOL
REMARK 924 INTRA-LIGAND FREE ENERGY PREDICTED BY IDOCK:   -0.34 KCAL/MOL
REMARK 927      BINDING AFFINITY PREDICTED BY RF-SCORE:    0.00 PKD
ROOT
HETATM    1  C   UNL     1      -8.928  10.535  65.900  1.00  0.00    -0.185 C  
HETATM    2  C   UNL     1     -10.215  10.910  66.618  1.00  0.00    -0.234 C  
ENDROOT
BRANCH   2   3
HETATM    3  O   UNL     1     -10.040  10.634  68.014  1.00  0.00    -0.152 OA 
BRANCH   3   4
HETATM    4  C   UNL     1     -11.186  10.629  68.746  1.00  0.00    -0.279 C  
HETATM    5  O   UNL     1     -12.280  10.996  68.350  1.00  0.00    -0.586 OA 
BRANCH   4   6
HETATM    6  C   UNL     1     -10.926   9.953  70.043  1.00  0.00    -0.338 A  
HETATM    7  C   UNL     1      -9.621   9.518  70.346  1.00  0.00    -0.326 A  
HETATM    8  C   UNL     1      -9.372   8.760  71.491  1.00  0.00    -0.337 A  
HETATM    9  C   UNL     1     -10.423   8.428  72.342  1.00  0.00    -0.402 A  
HETATM   10  C   UNL     1     -11.719   8.865  72.061  1.00  0.00    -0.438 A  
HETATM   11  C   UNL     1     -11.969   9.623  70.916  1.00  0.00    -0.309 A  
HETATM   12  O   UNL     1     -13.242  10.053  70.671  1.00  0.00    -0.588 OA 
HETATM   13  H   UNL     1     -13.950   9.829  71.263  1.00  0.00     0.000 HD 
ENDBRANCH   4   6
ENDBRANCH   3   4
ENDBRANCH   2   3
TORSDOF 3
ENDMDL
MODEL       99
REMARK 921   NORMALIZED FREE ENERGY PREDICTED BY IDOCK:   -3.45 KCAL/MOL
REMARK 922        TOTAL FREE ENERGY PREDICTED BY IDOCK:   -4.51 KCAL/MOL
REMARK 923 INTER-LIGAND FREE ENERGY PREDICTED BY IDOCK:   -4.01 KCAL/MOL
REMARK 924 INTRA-LIGAND FREE ENERGY PREDICTED BY IDOCK:   -0.50 KCAL/MOL
REMARK 927      BINDING AFFINITY PREDICTED BY RF-SCORE:    0.00 PKD
ROOT
HETATM    1  C   UNL     1      -5.910  16.336  67.476  1.00  0.00    -0.183 C  
HETATM    2  C   UNL     1      -5.765  17.749  66.930  1.00  0.00    -0.146 C  
ENDROOT
BRANCH   2   3
HETATM    3  O   UNL     1      -6.050  18.666  67.994  1.00  0.00    -0.192 OA 
BRANCH   3   4
HETATM    4  C   UNL     1      -6.538  19.871  67.596  1.00  0.00    -0.228 C  
HETATM    5  O   UNL     1      -5.865  20.835  67.271  1.00  0.00    -0.186 OA 
BRANCH   4   6
HETATM    6  C   UNL     1      -8.015  19.772  67.462  1.00  0.00    -0.324 A  
HETATM    7  C   UNL     1      -8.783  19.365  68.569  1.00  0.00    -0.407 A  
HETATM    8  C   UNL     1     -10.152  19.130  68.437  1.00  0.00    -0.498 A  
HETATM    9  C   UNL     1     -10.766  19.296  67.198  1.00  0.00    -0.584 A  
HETATM   10  C   UNL     1     -10.017  19.712  66.095  1.00  0.00    -0.554 A  
HETATM   11  C   UNL     1      -8.648  19.948  66.227  1.00  0.00    -0.337 A  
HETATM   12  O   UNL     1      -7.941  20.371  65.137  1.00  0.00    -0.376 OA 
HETATM   13  H   UNL     1      -8.371  20.491  64.299  1.00  0.00     0.000 HD 
ENDBRANCH   4   6
ENDBRANCH   3   4
ENDBRANCH   2   3
TORSDOF 3
ENDMDL
MODEL      100
REMARK 921   NORMALIZED FREE ENERGY PREDICTED BY IDOCK:   -3.43 KCAL/MOL
REMARK 922        TOTAL FREE ENERGY PREDICTED BY IDOCK:   -4.49 KCAL/MOL
REMARK 923 INTER-LIGAND FREE ENERGY PREDICTED BY IDOCK:   -4.06 KCAL/MOL
REMARK 924 INTRA-LIGAND FREE ENERGY PREDICTED BY IDOCK:   -0.43 KCAL/MOL
REMARK 927      BINDING AFFINITY PREDICTED BY RF-SCORE:    0.00 PKD
ROOT
HETATM    1  C   UNL     1      -9.149  18.261  67.743  1.00  0.00    -0.273 C  
HETATM    2  C   UNL     1      -9.581  16.839  68.067  1.00  0.00    -0.234 C  
ENDROOT
BRANCH   2   3
HETATM    3  O   UNL     1     -10.811  16.582  67.380  1.00  0.00    -0.294 OA 
BRANCH   3   4
HETATM    4  C   UNL     1     -10.698  15.796  66.275  1.00  0.00    -0.282 C  
HETATM    5  O   UNL     1     -10.527  16.196  65.136  1.00  0.00    -0.560 OA 
BRANCH   4   6
HETATM    6  C   UNL     1     -10.649  14.373  66.701  1.00  0.00    -0.282 A  
HETATM    7  C   UNL     1      -9.699  13.511  66.122  1.00  0.00    -0.264 A  
HETATM    8  C   UNL     1      -9.718  12.143  66.398  1.00  0.00    -0.243 A  
HETATM    9  C   UNL     1     -10.686  11.624  67.253  1.00  0.00    -0.281 A  
HETATM   10  C   UNL     1     -11.626  12.470  67.845  1.00  0.00    -0.403 A  
HETATM   11  C   UNL     1     -11.607  13.839  67.569  1.00  0.00    -0.354 A  
HETATM   12  O   UNL     1     -12.527  14.648  68.173  1.00  0.00    -0.587 OA 
HETATM   13  H   UNL     1     -13.177  14.285  68.763  1.00  0.00     0.000 HD 
ENDBRANCH   4   6
ENDBRANCH   3   4
ENDBRANCH   2   3
TORSDOF 3
ENDMDL
MODEL      101
REMARK 921   NORMALIZED FREE ENERGY PREDICTED BY IDOCK:   -3.41 KCAL/MOL
REMARK 922        TOTAL FREE ENERGY PREDICTED BY IDOCK:   -4.46 KCAL/MOL
REMARK 923 INTER-LIGAND FREE ENERGY PREDICTED BY IDOCK:   -4.25 KCAL/MOL
REMARK 924 INTRA-LIGAND FREE ENERGY PREDICTED BY IDOCK:   -0.21 KCAL/MOL
REMARK 927      BINDING AFFINITY PREDICTED BY RF-SCORE:    0.00 PKD
ROOT
HETATM    1  C   UNL     1      -8.633  19.858  67.702  1.00  0.00    -0.385 C  
HETATM    2  C   UNL     1      -9.543  19.100  68.656  1.00  0.00    -0.413 C  
ENDROOT
BRANCH   2   3
HETATM    3  O   UNL     1      -9.458  17.706  68.336  1.00  0.00    -0.278 OA 
BRANCH   3   4
HETATM    4  C   UNL     1     -10.351  17.276  67.403  1.00  0.00    -0.338 C  
HETATM    5  O   UNL     1     -10.453  17.710  66.268  1.00  0.00    -0.349 OA 
BRANCH   4   6
HETATM    6  C   UNL     1     -11.064  16.085  67.934  1.00  0.00    -0.307 A  
HETATM    7  C   UNL     1     -11.404  16.035  69.299  1.00  0.00    -0.356 A  
HETATM    8  C   UNL     1     -11.950  14.877  69.854  1.00  0.00    -0.376 A  
HETATM    9  C   UNL     1     -12.159  13.758  69.052  1.00  0.00    -0.359 A  
HETATM   10  C   UNL     1     -11.839  13.800  67.693  1.00  0.00    -0.413 A  
HETATM   11  C   UNL     1     -11.294  14.958  67.137  1.00  0.00    -0.343 A  
HETATM   12  O   UNL     1     -11.004  14.980  65.802  1.00  0.00    -0.333 OA 
HETATM   13  H   UNL     1     -11.160  14.214  65.262  1.00  0.00     0.000 HD 
ENDBRANCH   4   6
ENDBRANCH   3   4
ENDBRANCH   2   3
TORSDOF 3
ENDMDL
MODEL      102
REMARK 921   NORMALIZED FREE ENERGY PREDICTED BY IDOCK:   -3.37 KCAL/MOL
REMARK 922        TOTAL FREE ENERGY PREDICTED BY IDOCK:   -4.41 KCAL/MOL
REMARK 923 INTER-LIGAND FREE ENERGY PREDICTED BY IDOCK:   -4.12 KCAL/MOL
REMARK 924 INTRA-LIGAND FREE ENERGY PREDICTED BY IDOCK:   -0.29 KCAL/MOL
REMARK 927      BINDING AFFINITY PREDICTED BY RF-SCORE:    0.00 PKD
ROOT
HETATM    1  C   UNL     1      -9.942  18.661  66.362  1.00  0.00    -0.415 C  
HETATM    2  C   UNL     1      -9.234  17.501  67.044  1.00  0.00    -0.248 C  
ENDROOT
BRANCH   2   3
HETATM    3  O   UNL     1     -10.234  16.630  67.589  1.00  0.00    -0.269 OA 
BRANCH   3   4
HETATM    4  C   UNL     1     -10.452  16.773  68.924  1.00  0.00    -0.332 C  
HETATM    5  O   UNL     1     -10.394  17.823  69.542  1.00  0.00    -0.168 OA 
BRANCH   4   6
HETATM    6  C   UNL     1     -10.935  15.479  69.473  1.00  0.00    -0.273 A  
HETATM    7  C   UNL     1     -10.842  14.316  68.685  1.00  0.00    -0.265 A  
HETATM    8  C   UNL     1     -11.410  13.117  69.117  1.00  0.00    -0.335 A  
HETATM    9  C   UNL     1     -12.077  13.069  70.338  1.00  0.00    -0.391 A  
HETATM   10  C   UNL     1     -12.164  14.212  71.136  1.00  0.00    -0.435 A  
HETATM   11  C   UNL     1     -11.596  15.411  70.705  1.00  0.00    -0.332 A  
HETATM   12  O   UNL     1     -11.680  16.511  71.510  1.00  0.00    -0.658 OA 
HETATM   13  H   UNL     1     -12.129  16.465  72.346  1.00  0.00     0.000 HD 
ENDBRANCH   4   6
ENDBRANCH   3   4
ENDBRANCH   2   3
TORSDOF 3
ENDMDL
MODEL      103
REMARK 921   NORMALIZED FREE ENERGY PREDICTED BY IDOCK:   -3.36 KCAL/MOL
REMARK 922        TOTAL FREE ENERGY PREDICTED BY IDOCK:   -4.40 KCAL/MOL
REMARK 923 INTER-LIGAND FREE ENERGY PREDICTED BY IDOCK:   -4.05 KCAL/MOL
REMARK 924 INTRA-LIGAND FREE ENERGY PREDICTED BY IDOCK:   -0.36 KCAL/MOL
REMARK 927      BINDING AFFINITY PREDICTED BY RF-SCORE:    0.00 PKD
ROOT
HETATM    1  C   UNL     1      -8.966  17.911  68.207  1.00  0.00    -0.277 C  
HETATM    2  C   UNL     1      -9.379  17.345  66.856  1.00  0.00    -0.263 C  
ENDROOT
BRANCH   2   3
HETATM    3  O   UNL     1     -10.247  16.229  67.090  1.00  0.00    -0.265 OA 
BRANCH   3   4
HETATM    4  C   UNL     1      -9.680  15.009  66.887  1.00  0.00    -0.238 C  
HETATM    5  O   UNL     1      -8.670  14.598  67.433  1.00  0.00    -0.175 OA 
BRANCH   4   6
HETATM    6  C   UNL     1     -10.577  14.199  66.022  1.00  0.00    -0.297 A  
HETATM    7  C   UNL     1     -10.063  13.614  64.849  1.00  0.00    -0.293 A  
HETATM    8  C   UNL     1     -10.909  12.966  63.949  1.00  0.00    -0.402 A  
HETATM    9  C   UNL     1     -12.275  12.898  64.210  1.00  0.00    -0.481 A  
HETATM   10  C   UNL     1     -12.795  13.462  65.376  1.00  0.00    -0.388 A  
HETATM   11  C   UNL     1     -11.950  14.110  66.278  1.00  0.00    -0.429 A  
HETATM   12  O   UNL     1     -12.480  14.640  67.420  1.00  0.00    -0.537 OA 
HETATM   13  H   UNL     1     -13.412  14.579  67.593  1.00  0.00     0.000 HD 
ENDBRANCH   4   6
ENDBRANCH   3   4
ENDBRANCH   2   3
TORSDOF 3
ENDMDL
MODEL      104
REMARK 921   NORMALIZED FREE ENERGY PREDICTED BY IDOCK:   -3.35 KCAL/MOL
REMARK 922        TOTAL FREE ENERGY PREDICTED BY IDOCK:   -4.39 KCAL/MOL
REMARK 923 INTER-LIGAND FREE ENERGY PREDICTED BY IDOCK:   -4.01 KCAL/MOL
REMARK 924 INTRA-LIGAND FREE ENERGY PREDICTED BY IDOCK:   -0.38 KCAL/MOL
REMARK 927      BINDING AFFINITY PREDICTED BY RF-SCORE:    0.00 PKD
ROOT
HETATM    1  C   UNL     1     -12.272  11.599  70.688  1.00  0.00    -0.461 C  
HETATM    2  C   UNL     1     -12.392  13.067  71.067  1.00  0.00    -0.244 C  
ENDROOT
BRANCH   2   3
HETATM    3  O   UNL     1     -12.759  13.799  69.891  1.00  0.00    -0.177 OA 
BRANCH   3   4
HETATM    4  C   UNL     1     -12.279  15.070  69.833  1.00  0.00    -0.309 C  
HETATM    5  O   UNL     1     -12.184  15.834  70.779  1.00  0.00    -0.391 OA 
BRANCH   4   6
HETATM    6  C   UNL     1     -11.735  15.318  68.473  1.00  0.00    -0.352 A  
HETATM    7  C   UNL     1     -11.861  14.321  67.486  1.00  0.00    -0.429 A  
HETATM    8  C   UNL     1     -11.241  14.467  66.244  1.00  0.00    -0.342 A  
HETATM    9  C   UNL     1     -10.490  15.609  65.977  1.00  0.00    -0.343 A  
HETATM   10  C   UNL     1     -10.369  16.611  66.941  1.00  0.00    -0.299 A  
HETATM   11  C   UNL     1     -10.988  16.466  68.184  1.00  0.00    -0.339 A  
HETATM   12  O   UNL     1     -10.869  17.467  69.105  1.00  0.00    -0.323 OA 
HETATM   13  H   UNL     1     -10.362  18.246  68.908  1.00  0.00     0.000 HD 
ENDBRANCH   4   6
ENDBRANCH   3   4
ENDBRANCH   2   3
TORSDOF 3
ENDMDL
MODEL      105
REMARK 921   NORMALIZED FREE ENERGY PREDICTED BY IDOCK:   -3.35 KCAL/MOL
REMARK 922        TOTAL FREE ENERGY PREDICTED BY IDOCK:   -4.39 KCAL/MOL
REMARK 923 INTER-LIGAND FREE ENERGY PREDICTED BY IDOCK:   -4.00 KCAL/MOL
REMARK 924 INTRA-LIGAND FREE ENERGY PREDICTED BY IDOCK:   -0.39 KCAL/MOL
REMARK 927      BINDING AFFINITY PREDICTED BY RF-SCORE:    0.00 PKD
ROOT
HETATM    1  C   UNL     1      -7.723   9.902  68.612  1.00  0.00    -0.081 C  
HETATM    2  C   UNL     1      -8.036   9.865  70.100  1.00  0.00    -0.162 C  
ENDROOT
BRANCH   2   3
HETATM    3  O   UNL     1      -9.136   8.968  70.299  1.00  0.00    -0.169 OA 
BRANCH   3   4
HETATM    4  C   UNL     1      -9.579   8.881  71.583  1.00  0.00    -0.293 C  
HETATM    5  O   UNL     1      -8.871   8.776  72.570  1.00  0.00    -0.402 OA 
BRANCH   4   6
HETATM    6  C   UNL     1     -11.049   9.100  71.600  1.00  0.00    -0.445 A  
HETATM    7  C   UNL     1     -11.615  10.050  70.729  1.00  0.00    -0.444 A  
HETATM    8  C   UNL     1     -12.969  10.377  70.818  1.00  0.00    -0.422 A  
HETATM    9  C   UNL     1     -13.768   9.760  71.777  1.00  0.00    -0.309 A  
HETATM   10  C   UNL     1     -13.221   8.806  72.637  1.00  0.00    -0.331 A  
HETATM   11  C   UNL     1     -11.867   8.478  72.549  1.00  0.00    -0.328 A  
HETATM   12  O   UNL     1     -11.359   7.530  73.391  1.00  0.00    -0.611 OA 
HETATM   13  H   UNL     1     -11.915   7.108  74.035  1.00  0.00     0.000 HD 
ENDBRANCH   4   6
ENDBRANCH   3   4
ENDBRANCH   2   3
TORSDOF 3
ENDMDL
MODEL      106
REMARK 921   NORMALIZED FREE ENERGY PREDICTED BY IDOCK:   -3.35 KCAL/MOL
REMARK 922        TOTAL FREE ENERGY PREDICTED BY IDOCK:   -4.38 KCAL/MOL
REMARK 923 INTER-LIGAND FREE ENERGY PREDICTED BY IDOCK:   -3.85 KCAL/MOL
REMARK 924 INTRA-LIGAND FREE ENERGY PREDICTED BY IDOCK:   -0.54 KCAL/MOL
REMARK 927      BINDING AFFINITY PREDICTED BY RF-SCORE:    0.00 PKD
ROOT
HETATM    1  C   UNL     1     -14.218   8.515  71.959  1.00  0.00    -0.535 C  
HETATM    2  C   UNL     1     -13.384   9.641  71.368  1.00  0.00    -0.368 C  
ENDROOT
BRANCH   2   3
HETATM    3  O   UNL     1     -12.051   9.521  71.881  1.00  0.00    -0.371 OA 
BRANCH   3   4
HETATM    4  C   UNL     1     -11.089   9.325  70.939  1.00  0.00    -0.306 C  
HETATM    5  O   UNL     1     -10.488  10.206  70.348  1.00  0.00    -0.280 OA 
BRANCH   4   6
HETATM    6  C   UNL     1     -10.773   7.874  70.868  1.00  0.00    -0.234 A  
HETATM    7  C   UNL     1     -10.781   7.226  69.619  1.00  0.00    -0.249 A  
HETATM    8  C   UNL     1     -10.625   5.842  69.535  1.00  0.00    -0.390 A  
HETATM    9  C   UNL     1     -10.461   5.093  70.697  1.00  0.00    -0.269 A  
HETATM   10  C   UNL     1     -10.437   5.726  71.942  1.00  0.00    -0.272 A  
HETATM   11  C   UNL     1     -10.593   7.110  72.027  1.00  0.00    -0.210 A  
HETATM   12  O   UNL     1     -10.550   7.708  73.254  1.00  0.00    -0.365 OA 
HETATM   13  H   UNL     1     -10.428   7.189  74.040  1.00  0.00     0.000 HD 
ENDBRANCH   4   6
ENDBRANCH   3   4
ENDBRANCH   2   3
TORSDOF 3
ENDMDL
MODEL      107
REMARK 921   NORMALIZED FREE ENERGY PREDICTED BY IDOCK:   -3.33 KCAL/MOL
REMARK 922        TOTAL FREE ENERGY PREDICTED BY IDOCK:   -4.37 KCAL/MOL
REMARK 923 INTER-LIGAND FREE ENERGY PREDICTED BY IDOCK:   -3.99 KCAL/MOL
REMARK 924 INTRA-LIGAND FREE ENERGY PREDICTED BY IDOCK:   -0.38 KCAL/MOL
REMARK 927      BINDING AFFINITY PREDICTED BY RF-SCORE:    0.00 PKD
ROOT
HETATM    1  C   UNL     1      -7.592  17.392  67.055  1.00  0.00    -0.235 C  
HETATM    2  C   UNL     1      -8.503  16.177  66.968  1.00  0.00    -0.208 C  
ENDROOT
BRANCH   2   3
HETATM    3  O   UNL     1      -9.436  16.244  68.054  1.00  0.00    -0.219 OA 
BRANCH   3   4
HETATM    4  C   UNL     1     -10.663  15.721  67.788  1.00  0.00    -0.307 C  
HETATM    5  O   UNL     1     -11.113  15.502  66.676  1.00  0.00    -0.293 OA 
BRANCH   4   6
HETATM    6  C   UNL     1     -11.296  15.307  69.067  1.00  0.00    -0.311 A  
HETATM    7  C   UNL     1     -11.256  16.179  70.172  1.00  0.00    -0.374 A  
HETATM    8  C   UNL     1     -11.719  15.764  71.422  1.00  0.00    -0.508 A  
HETATM    9  C   UNL     1     -12.224  14.476  71.580  1.00  0.00    -0.415 A  
HETATM   10  C   UNL     1     -12.282  13.607  70.489  1.00  0.00    -0.438 A  
HETATM   11  C   UNL     1     -11.820  14.021  69.238  1.00  0.00    -0.344 A  
HETATM   12  O   UNL     1     -11.903  13.158  68.183  1.00  0.00    -0.336 OA 
HETATM   13  H   UNL     1     -12.258  12.284  68.299  1.00  0.00     0.000 HD 
ENDBRANCH   4   6
ENDBRANCH   3   4
ENDBRANCH   2   3
TORSDOF 3
ENDMDL
MODEL      108
REMARK 921   NORMALIZED FREE ENERGY PREDICTED BY IDOCK:   -3.33 KCAL/MOL
REMARK 922        TOTAL FREE ENERGY PREDICTED BY IDOCK:   -4.37 KCAL/MOL
REMARK 923 INTER-LIGAND FREE ENERGY PREDICTED BY IDOCK:   -3.91 KCAL/MOL
REMARK 924 INTRA-LIGAND FREE ENERGY PREDICTED BY IDOCK:   -0.46 KCAL/MOL
REMARK 927      BINDING AFFINITY PREDICTED BY RF-SCORE:    0.00 PKD
ROOT
HETATM    1  C   UNL     1      -7.225  10.815  69.698  1.00  0.00    -0.127 C  
HETATM    2  C   UNL     1      -7.494   9.420  70.240  1.00  0.00    -0.128 C  
ENDROOT
BRANCH   2   3
HETATM    3  O   UNL     1      -8.683   9.475  71.037  1.00  0.00    -0.260 OA 
BRANCH   3   4
HETATM    4  C   UNL     1      -9.702   8.684  70.603  1.00  0.00    -0.184 C  
HETATM    5  O   UNL     1      -9.573   7.650  69.969  1.00  0.00    -0.165 OA 
BRANCH   4   6
HETATM    6  C   UNL     1     -10.979   9.192  71.167  1.00  0.00    -0.390 A  
HETATM    7  C   UNL     1     -11.739   8.362  72.013  1.00  0.00    -0.417 A  
HETATM    8  C   UNL     1     -13.006   8.757  72.446  1.00  0.00    -0.442 A  
HETATM    9  C   UNL     1     -13.525   9.983  72.037  1.00  0.00    -0.448 A  
HETATM   10  C   UNL     1     -12.776  10.821  71.209  1.00  0.00    -0.546 A  
HETATM   11  C   UNL     1     -11.509  10.427  70.776  1.00  0.00    -0.332 A  
HETATM   12  O   UNL     1     -10.789  11.271  69.980  1.00  0.00    -0.466 OA 
HETATM   13  H   UNL     1     -11.148  12.110  69.714  1.00  0.00     0.000 HD 
ENDBRANCH   4   6
ENDBRANCH   3   4
ENDBRANCH   2   3
TORSDOF 3
ENDMDL
MODEL      109
REMARK 921   NORMALIZED FREE ENERGY PREDICTED BY IDOCK:   -3.28 KCAL/MOL
REMARK 922        TOTAL FREE ENERGY PREDICTED BY IDOCK:   -4.31 KCAL/MOL
REMARK 923 INTER-LIGAND FREE ENERGY PREDICTED BY IDOCK:   -3.89 KCAL/MOL
REMARK 924 INTRA-LIGAND FREE ENERGY PREDICTED BY IDOCK:   -0.42 KCAL/MOL
REMARK 927      BINDING AFFINITY PREDICTED BY RF-SCORE:    0.00 PKD
ROOT
HETATM    1  C   UNL     1     -13.323  12.787  71.699  1.00  0.00    -0.345 C  
HETATM    2  C   UNL     1     -12.700  14.036  71.095  1.00  0.00    -0.364 C  
ENDROOT
BRANCH   2   3
HETATM    3  O   UNL     1     -11.642  13.624  70.220  1.00  0.00    -0.216 OA 
BRANCH   3   4
HETATM    4  C   UNL     1     -11.660  14.201  68.988  1.00  0.00    -0.304 C  
HETATM    5  O   UNL     1     -11.781  15.394  68.766  1.00  0.00    -0.341 OA 
BRANCH   4   6
HETATM    6  C   UNL     1     -11.342  13.167  67.968  1.00  0.00    -0.327 A  
HETATM    7  C   UNL     1     -10.510  12.085  68.318  1.00  0.00    -0.218 A  
HETATM    8  C   UNL     1     -10.083  11.176  67.350  1.00  0.00    -0.213 A  
HETATM    9  C   UNL     1     -10.480  11.339  66.025  1.00  0.00    -0.310 A  
HETATM   10  C   UNL     1     -11.315  12.399  65.668  1.00  0.00    -0.387 A  
HETATM   11  C   UNL     1     -11.744  13.309  66.636  1.00  0.00    -0.377 A  
HETATM   12  O   UNL     1     -12.574  14.328  66.265  1.00  0.00    -0.488 OA 
HETATM   13  H   UNL     1     -12.847  14.424  65.360  1.00  0.00     0.000 HD 
ENDBRANCH   4   6
ENDBRANCH   3   4
ENDBRANCH   2   3
TORSDOF 3
ENDMDL
MODEL      110
REMARK 921   NORMALIZED FREE ENERGY PREDICTED BY IDOCK:   -3.28 KCAL/MOL
REMARK 922        TOTAL FREE ENERGY PREDICTED BY IDOCK:   -4.31 KCAL/MOL
REMARK 923 INTER-LIGAND FREE ENERGY PREDICTED BY IDOCK:   -3.96 KCAL/MOL
REMARK 924 INTRA-LIGAND FREE ENERGY PREDICTED BY IDOCK:   -0.35 KCAL/MOL
REMARK 927      BINDING AFFINITY PREDICTED BY RF-SCORE:    0.00 PKD
ROOT
HETATM    1  C   UNL     1     -11.759  12.590  65.901  1.00  0.00    -0.480 C  
HETATM    2  C   UNL     1     -12.095  14.068  65.779  1.00  0.00    -0.427 C  
ENDROOT
BRANCH   2   3
HETATM    3  O   UNL     1     -10.941  14.819  66.177  1.00  0.00    -0.320 OA 
BRANCH   3   4
HETATM    4  C   UNL     1     -11.081  15.512  67.339  1.00  0.00    -0.285 C  
HETATM    5  O   UNL     1     -11.774  15.175  68.285  1.00  0.00    -0.338 OA 
BRANCH   4   6
HETATM    6  C   UNL     1     -10.127  16.651  67.338  1.00  0.00    -0.274 A  
HETATM    7  C   UNL     1      -9.259  16.824  66.243  1.00  0.00    -0.313 A  
HETATM    8  C   UNL     1      -8.261  17.799  66.273  1.00  0.00    -0.252 A  
HETATM    9  C   UNL     1      -8.120  18.609  67.397  1.00  0.00    -0.258 A  
HETATM   10  C   UNL     1      -8.984  18.458  68.484  1.00  0.00    -0.336 A  
HETATM   11  C   UNL     1      -9.982  17.483  68.454  1.00  0.00    -0.335 A  
HETATM   12  O   UNL     1     -10.825  17.365  69.522  1.00  0.00    -0.337 OA 
HETATM   13  H   UNL     1     -10.727  17.929  70.280  1.00  0.00     0.000 HD 
ENDBRANCH   4   6
ENDBRANCH   3   4
ENDBRANCH   2   3
TORSDOF 3
ENDMDL
MODEL      111
REMARK 921   NORMALIZED FREE ENERGY PREDICTED BY IDOCK:   -3.27 KCAL/MOL
REMARK 922        TOTAL FREE ENERGY PREDICTED BY IDOCK:   -4.30 KCAL/MOL
REMARK 923 INTER-LIGAND FREE ENERGY PREDICTED BY IDOCK:   -3.92 KCAL/MOL
REMARK 924 INTRA-LIGAND FREE ENERGY PREDICTED BY IDOCK:   -0.38 KCAL/MOL
REMARK 927      BINDING AFFINITY PREDICTED BY RF-SCORE:    0.00 PKD
ROOT
HETATM    1  C   UNL     1      -8.842   4.966  71.668  1.00  0.00    -0.146 C  
HETATM    2  C   UNL     1     -10.264   4.795  71.157  1.00  0.00    -0.158 C  
ENDROOT
BRANCH   2   3
HETATM    3  O   UNL     1     -11.003   5.974  71.499  1.00  0.00    -0.260 OA 
BRANCH   3   4
HETATM    4  C   UNL     1     -11.374   6.745  70.441  1.00  0.00    -0.347 C  
HETATM    5  O   UNL     1     -11.454   6.369  69.284  1.00  0.00    -0.381 OA 
BRANCH   4   6
HETATM    6  C   UNL     1     -11.825   8.069  70.946  1.00  0.00    -0.236 A  
HETATM    7  C   UNL     1     -12.833   8.127  71.927  1.00  0.00    -0.360 A  
HETATM    8  C   UNL     1     -13.373   9.352  72.320  1.00  0.00    -0.539 A  
HETATM    9  C   UNL     1     -12.913  10.529  71.736  1.00  0.00    -0.582 A  
HETATM   10  C   UNL     1     -11.903  10.487  70.772  1.00  0.00    -0.465 A  
HETATM   11  C   UNL     1     -11.362   9.261  70.379  1.00  0.00    -0.242 A  
HETATM   12  O   UNL     1     -10.365   9.247  69.446  1.00  0.00    -0.201 OA 
HETATM   13  H   UNL     1     -10.051  10.056  69.061  1.00  0.00     0.000 HD 
ENDBRANCH   4   6
ENDBRANCH   3   4
ENDBRANCH   2   3
TORSDOF 3
ENDMDL
MODEL      112
REMARK 921   NORMALIZED FREE ENERGY PREDICTED BY IDOCK:   -3.25 KCAL/MOL
REMARK 922        TOTAL FREE ENERGY PREDICTED BY IDOCK:   -4.28 KCAL/MOL
REMARK 923 INTER-LIGAND FREE ENERGY PREDICTED BY IDOCK:   -3.94 KCAL/MOL
REMARK 924 INTRA-LIGAND FREE ENERGY PREDICTED BY IDOCK:   -0.34 KCAL/MOL
REMARK 927      BINDING AFFINITY PREDICTED BY RF-SCORE:    0.00 PKD
ROOT
HETATM    1  C   UNL     1     -10.569   7.951  67.049  1.00  0.00    -0.381 C  
HETATM    2  C   UNL     1     -10.103   9.382  66.832  1.00  0.00    -0.248 C  
ENDROOT
BRANCH   2   3
HETATM    3  O   UNL     1     -10.733  10.207  67.820  1.00  0.00    -0.237 OA 
BRANCH   3   4
HETATM    4  C   UNL     1     -10.214  10.099  69.073  1.00  0.00    -0.206 C  
HETATM    5  O   UNL     1      -9.027  10.123  69.352  1.00  0.00    -0.177 OA 
BRANCH   4   6
HETATM    6  C   UNL     1     -11.327  10.114  70.058  1.00  0.00    -0.351 A  
HETATM    7  C   UNL     1     -11.942  11.337  70.387  1.00  0.00    -0.471 A  
HETATM    8  C   UNL     1     -12.893  11.403  71.406  1.00  0.00    -0.502 A  
HETATM    9  C   UNL     1     -13.238  10.250  72.105  1.00  0.00    -0.443 A  
HETATM   10  C   UNL     1     -12.647   9.028  71.779  1.00  0.00    -0.434 A  
HETATM   11  C   UNL     1     -11.695   8.961  70.760  1.00  0.00    -0.230 A  
HETATM   12  O   UNL     1     -11.142   7.751  70.448  1.00  0.00    -0.257 OA 
HETATM   13  H   UNL     1     -11.392   6.968  70.925  1.00  0.00     0.000 HD 
ENDBRANCH   4   6
ENDBRANCH   3   4
ENDBRANCH   2   3
TORSDOF 3
ENDMDL
MODEL      113
REMARK 921   NORMALIZED FREE ENERGY PREDICTED BY IDOCK:   -3.25 KCAL/MOL
REMARK 922        TOTAL FREE ENERGY PREDICTED BY IDOCK:   -4.27 KCAL/MOL
REMARK 923 INTER-LIGAND FREE ENERGY PREDICTED BY IDOCK:   -3.88 KCAL/MOL
REMARK 924 INTRA-LIGAND FREE ENERGY PREDICTED BY IDOCK:   -0.38 KCAL/MOL
REMARK 927      BINDING AFFINITY PREDICTED BY RF-SCORE:    0.00 PKD
ROOT
HETATM    1  C   UNL     1      -8.548   9.227  66.542  1.00  0.00    -0.139 C  
HETATM    2  C   UNL     1      -9.398  10.175  67.374  1.00  0.00    -0.148 C  
ENDROOT
BRANCH   2   3
HETATM    3  O   UNL     1      -9.847  11.233  66.518  1.00  0.00    -0.199 OA 
BRANCH   3   4
HETATM    4  C   UNL     1     -11.048  11.775  66.858  1.00  0.00    -0.307 C  
HETATM    5  O   UNL     1     -11.799  11.347  67.719  1.00  0.00    -0.595 OA 
BRANCH   4   6
HETATM    6  C   UNL     1     -11.219  13.060  66.133  1.00  0.00    -0.320 A  
HETATM    7  C   UNL     1     -12.380  13.271  65.365  1.00  0.00    -0.528 A  
HETATM    8  C   UNL     1     -12.507  14.407  64.564  1.00  0.00    -0.362 A  
HETATM    9  C   UNL     1     -11.474  15.341  64.522  1.00  0.00    -0.318 A  
HETATM   10  C   UNL     1     -10.324  15.151  65.289  1.00  0.00    -0.425 A  
HETATM   11  C   UNL     1     -10.197  14.015  66.091  1.00  0.00    -0.302 A  
HETATM   12  O   UNL     1      -9.068  13.859  66.845  1.00  0.00    -0.239 OA 
HETATM   13  H   UNL     1      -8.375  14.507  66.816  1.00  0.00     0.000 HD 
ENDBRANCH   4   6
ENDBRANCH   3   4
ENDBRANCH   2   3
TORSDOF 3
ENDMDL
MODEL      114
REMARK 921   NORMALIZED FREE ENERGY PREDICTED BY IDOCK:   -3.24 KCAL/MOL
REMARK 922        TOTAL FREE ENERGY PREDICTED BY IDOCK:   -4.27 KCAL/MOL
REMARK 923 INTER-LIGAND FREE ENERGY PREDICTED BY IDOCK:   -3.91 KCAL/MOL
REMARK 924 INTRA-LIGAND FREE ENERGY PREDICTED BY IDOCK:   -0.35 KCAL/MOL
REMARK 927      BINDING AFFINITY PREDICTED BY RF-SCORE:    0.00 PKD
ROOT
HETATM    1  C   UNL     1     -13.138  10.034  71.523  1.00  0.00    -0.531 C  
HETATM    2  C   UNL     1     -11.941   9.877  70.598  1.00  0.00    -0.277 C  
ENDROOT
BRANCH   2   3
HETATM    3  O   UNL     1     -12.096  10.800  69.513  1.00  0.00    -0.312 OA 
BRANCH   3   4
HETATM    4  C   UNL     1     -10.941  11.142  68.881  1.00  0.00    -0.225 C  
HETATM    5  O   UNL     1      -9.846  10.647  69.091  1.00  0.00    -0.207 OA 
BRANCH   4   6
HETATM    6  C   UNL     1     -11.256  12.094  67.784  1.00  0.00    -0.333 A  
HETATM    7  C   UNL     1     -11.740  13.377  68.101  1.00  0.00    -0.397 A  
HETATM    8  C   UNL     1     -12.174  14.242  67.094  1.00  0.00    -0.312 A  
HETATM    9  C   UNL     1     -12.129  13.832  65.764  1.00  0.00    -0.458 A  
HETATM   10  C   UNL     1     -11.638  12.567  65.436  1.00  0.00    -0.416 A  
HETATM   11  C   UNL     1     -11.204  11.702  66.442  1.00  0.00    -0.287 A  
HETATM   12  O   UNL     1     -10.712  10.475  66.094  1.00  0.00    -0.159 OA 
HETATM   13  H   UNL     1     -10.677  10.210  65.183  1.00  0.00     0.000 HD 
ENDBRANCH   4   6
ENDBRANCH   3   4
ENDBRANCH   2   3
TORSDOF 3
ENDMDL
MODEL      115
REMARK 921   NORMALIZED FREE ENERGY PREDICTED BY IDOCK:   -3.24 KCAL/MOL
REMARK 922        TOTAL FREE ENERGY PREDICTED BY IDOCK:   -4.26 KCAL/MOL
REMARK 923 INTER-LIGAND FREE ENERGY PREDICTED BY IDOCK:   -3.82 KCAL/MOL
REMARK 924 INTRA-LIGAND FREE ENERGY PREDICTED BY IDOCK:   -0.44 KCAL/MOL
REMARK 927      BINDING AFFINITY PREDICTED BY RF-SCORE:    0.00 PKD
ROOT
HETATM    1  C   UNL     1     -10.640  16.656  67.522  1.00  0.00    -0.311 C  
HETATM    2  C   UNL     1     -10.031  15.381  68.086  1.00  0.00    -0.221 C  
ENDROOT
BRANCH   2   3
HETATM    3  O   UNL     1     -10.619  14.269  67.399  1.00  0.00    -0.272 OA 
BRANCH   3   4
HETATM    4  C   UNL     1      -9.747  13.511  66.681  1.00  0.00    -0.280 C  
HETATM    5  O   UNL     1      -8.668  13.105  67.080  1.00  0.00    -0.211 OA 
BRANCH   4   6
HETATM    6  C   UNL     1     -10.390  13.121  65.400  1.00  0.00    -0.313 A  
HETATM    7  C   UNL     1     -11.535  13.815  64.962  1.00  0.00    -0.340 A  
HETATM    8  C   UNL     1     -12.240  13.384  63.838  1.00  0.00    -0.478 A  
HETATM    9  C   UNL     1     -11.810  12.257  63.142  1.00  0.00    -0.328 A  
HETATM   10  C   UNL     1     -10.669  11.568  63.557  1.00  0.00    -0.483 A  
HETATM   11  C   UNL     1      -9.963  11.999  64.682  1.00  0.00    -0.214 A  
HETATM   12  O   UNL     1      -8.840  11.318  65.059  1.00  0.00    -0.371 OA 
HETATM   13  H   UNL     1      -8.550  10.556  64.571  1.00  0.00     0.000 HD 
ENDBRANCH   4   6
ENDBRANCH   3   4
ENDBRANCH   2   3
TORSDOF 3
ENDMDL
MODEL      116
REMARK 921   NORMALIZED FREE ENERGY PREDICTED BY IDOCK:   -3.22 KCAL/MOL
REMARK 922        TOTAL FREE ENERGY PREDICTED BY IDOCK:   -4.23 KCAL/MOL
REMARK 923 INTER-LIGAND FREE ENERGY PREDICTED BY IDOCK:   -3.78 KCAL/MOL
REMARK 924 INTRA-LIGAND FREE ENERGY PREDICTED BY IDOCK:   -0.46 KCAL/MOL
REMARK 927      BINDING AFFINITY PREDICTED BY RF-SCORE:    0.00 PKD
ROOT
HETATM    1  C   UNL     1     -10.173  20.156  67.579  1.00  0.00    -0.520 C  
HETATM    2  C   UNL     1      -9.814  20.011  66.108  1.00  0.00    -0.443 C  
ENDROOT
BRANCH   2   3
HETATM    3  O   UNL     1      -9.162  18.746  65.934  1.00  0.00    -0.457 OA 
BRANCH   3   4
HETATM    4  C   UNL     1      -9.999  17.681  65.816  1.00  0.00    -0.013 C  
HETATM    5  O   UNL     1     -10.939  17.602  65.043  1.00  0.00    -0.780 OA 
BRANCH   4   6
HETATM    6  C   UNL     1      -9.484  16.569  66.658  1.00  0.00    -0.278 A  
HETATM    7  C   UNL     1      -8.159  16.127  66.484  1.00  0.00    -0.331 A  
HETATM    8  C   UNL     1      -7.691  14.999  67.159  1.00  0.00    -0.202 A  
HETATM    9  C   UNL     1      -8.542  14.302  68.013  1.00  0.00    -0.169 A  
HETATM   10  C   UNL     1      -9.855  14.738  68.205  1.00  0.00    -0.221 A  
HETATM   11  C   UNL     1     -10.323  15.866  67.529  1.00  0.00    -0.283 A  
HETATM   12  O   UNL     1     -11.606  16.283  67.747  1.00  0.00    -0.079 OA 
HETATM   13  H   UNL     1     -12.175  15.806  68.339  1.00  0.00     0.000 HD 
ENDBRANCH   4   6
ENDBRANCH   3   4
ENDBRANCH   2   3
TORSDOF 3
ENDMDL
MODEL      117
REMARK 921   NORMALIZED FREE ENERGY PREDICTED BY IDOCK:   -3.21 KCAL/MOL
REMARK 922        TOTAL FREE ENERGY PREDICTED BY IDOCK:   -4.23 KCAL/MOL
REMARK 923 INTER-LIGAND FREE ENERGY PREDICTED BY IDOCK:   -3.76 KCAL/MOL
REMARK 924 INTRA-LIGAND FREE ENERGY PREDICTED BY IDOCK:   -0.46 KCAL/MOL
REMARK 927      BINDING AFFINITY PREDICTED BY RF-SCORE:    0.00 PKD
ROOT
HETATM    1  C   UNL     1     -11.101  15.331  64.919  1.00  0.00    -0.435 C  
HETATM    2  C   UNL     1     -10.716  16.028  66.215  1.00  0.00    -0.234 C  
ENDROOT
BRANCH   2   3
HETATM    3  O   UNL     1     -11.415  15.386  67.288  1.00  0.00    -0.286 OA 
BRANCH   3   4
HETATM    4  C   UNL     1     -10.628  14.959  68.312  1.00  0.00    -0.240 C  
HETATM    5  O   UNL     1      -9.801  15.637  68.899  1.00  0.00    -0.198 OA 
BRANCH   4   6
HETATM    6  C   UNL     1     -11.054  13.592  68.710  1.00  0.00    -0.302 A  
HETATM    7  C   UNL     1     -10.946  12.538  67.782  1.00  0.00    -0.270 A  
HETATM    8  C   UNL     1     -11.464  11.276  68.077  1.00  0.00    -0.369 A  
HETATM    9  C   UNL     1     -12.095  11.056  69.298  1.00  0.00    -0.363 A  
HETATM   10  C   UNL     1     -12.196  12.089  70.232  1.00  0.00    -0.348 A  
HETATM   11  C   UNL     1     -11.678  13.351  69.939  1.00  0.00    -0.267 A  
HETATM   12  O   UNL     1     -11.774  14.341  70.875  1.00  0.00    -0.452 OA 
HETATM   13  H   UNL     1     -12.198  14.177  71.709  1.00  0.00     0.000 HD 
ENDBRANCH   4   6
ENDBRANCH   3   4
ENDBRANCH   2   3
TORSDOF 3
ENDMDL
MODEL      118
REMARK 921   NORMALIZED FREE ENERGY PREDICTED BY IDOCK:   -3.20 KCAL/MOL
REMARK 922        TOTAL FREE ENERGY PREDICTED BY IDOCK:   -4.21 KCAL/MOL
REMARK 923 INTER-LIGAND FREE ENERGY PREDICTED BY IDOCK:   -3.87 KCAL/MOL
REMARK 924 INTRA-LIGAND FREE ENERGY PREDICTED BY IDOCK:   -0.34 KCAL/MOL
REMARK 927      BINDING AFFINITY PREDICTED BY RF-SCORE:    0.00 PKD
ROOT
HETATM    1  C   UNL     1     -13.985   8.196  71.632  1.00  0.00    -0.463 C  
HETATM    2  C   UNL     1     -13.613   9.615  71.229  1.00  0.00    -0.226 C  
ENDROOT
BRANCH   2   3
HETATM    3  O   UNL     1     -12.319   9.905  71.773  1.00  0.00    -0.383 OA 
BRANCH   3   4
HETATM    4  C   UNL     1     -11.271   9.540  70.986  1.00  0.00    -0.362 C  
HETATM    5  O   UNL     1     -11.082   9.914  69.841  1.00  0.00    -0.248 OA 
BRANCH   4   6
HETATM    6  C   UNL     1     -10.311   8.749  71.800  1.00  0.00    -0.413 A  
HETATM    7  C   UNL     1     -10.801   7.873  72.787  1.00  0.00    -0.451 A  
HETATM    8  C   UNL     1      -9.926   7.223  73.658  1.00  0.00    -0.377 A  
HETATM    9  C   UNL     1      -8.555   7.442  73.551  1.00  0.00    -0.202 A  
HETATM   10  C   UNL     1      -8.055   8.298  72.567  1.00  0.00    -0.209 A  
HETATM   11  C   UNL     1      -8.931   8.949  71.696  1.00  0.00    -0.173 A  
HETATM   12  O   UNL     1      -8.417   9.768  70.731  1.00  0.00    -0.365 OA 
HETATM   13  H   UNL     1      -7.479   9.903  70.661  1.00  0.00     0.000 HD 
ENDBRANCH   4   6
ENDBRANCH   3   4
ENDBRANCH   2   3
TORSDOF 3
ENDMDL
MODEL      119
REMARK 921   NORMALIZED FREE ENERGY PREDICTED BY IDOCK:   -3.20 KCAL/MOL
REMARK 922        TOTAL FREE ENERGY PREDICTED BY IDOCK:   -4.21 KCAL/MOL
REMARK 923 INTER-LIGAND FREE ENERGY PREDICTED BY IDOCK:   -3.87 KCAL/MOL
REMARK 924 INTRA-LIGAND FREE ENERGY PREDICTED BY IDOCK:   -0.34 KCAL/MOL
REMARK 927      BINDING AFFINITY PREDICTED BY RF-SCORE:    0.00 PKD
ROOT
HETATM    1  C   UNL     1     -10.447   5.399  66.493  1.00  0.00    -0.352 C  
HETATM    2  C   UNL     1      -9.777   6.668  66.996  1.00  0.00    -0.157 C  
ENDROOT
BRANCH   2   3
HETATM    3  O   UNL     1     -10.769   7.701  67.052  1.00  0.00    -0.348 OA 
BRANCH   3   4
HETATM    4  C   UNL     1     -10.442   8.768  67.830  1.00  0.00    -0.216 C  
HETATM    5  O   UNL     1      -9.927   8.708  68.934  1.00  0.00    -0.179 OA 
BRANCH   4   6
HETATM    6  C   UNL     1     -10.660  10.016  67.052  1.00  0.00    -0.279 A  
HETATM    7  C   UNL     1      -9.901  10.244  65.888  1.00  0.00    -0.298 A  
HETATM    8  C   UNL     1      -9.983  11.464  65.214  1.00  0.00    -0.303 A  
HETATM    9  C   UNL     1     -10.822  12.465  65.697  1.00  0.00    -0.312 A  
HETATM   10  C   UNL     1     -11.589  12.246  66.843  1.00  0.00    -0.427 A  
HETATM   11  C   UNL     1     -11.508  11.026  67.517  1.00  0.00    -0.185 A  
HETATM   12  O   UNL     1     -12.282  10.830  68.626  1.00  0.00    -0.813 OA 
HETATM   13  H   UNL     1     -12.857  11.516  68.941  1.00  0.00     0.000 HD 
ENDBRANCH   4   6
ENDBRANCH   3   4
ENDBRANCH   2   3
TORSDOF 3
ENDMDL
MODEL      120
REMARK 921   NORMALIZED FREE ENERGY PREDICTED BY IDOCK:   -3.17 KCAL/MOL
REMARK 922        TOTAL FREE ENERGY PREDICTED BY IDOCK:   -4.18 KCAL/MOL
REMARK 923 INTER-LIGAND FREE ENERGY PREDICTED BY IDOCK:   -3.77 KCAL/MOL
REMARK 924 INTRA-LIGAND FREE ENERGY PREDICTED BY IDOCK:   -0.41 KCAL/MOL
REMARK 927      BINDING AFFINITY PREDICTED BY RF-SCORE:    0.00 PKD
ROOT
HETATM    1  C   UNL     1      -7.464   7.705  63.758  1.00  0.00    -0.105 C  
HETATM    2  C   UNL     1      -7.549   9.186  64.094  1.00  0.00    -0.113 C  
ENDROOT
BRANCH   2   3
HETATM    3  O   UNL     1      -8.932   9.561  64.096  1.00  0.00    -0.230 OA 
BRANCH   3   4
HETATM    4  C   UNL     1      -9.210  10.732  63.461  1.00  0.00    -0.257 C  
HETATM    5  O   UNL     1      -8.719  11.098  62.406  1.00  0.00    -0.305 OA 
BRANCH   4   6
HETATM    6  C   UNL     1     -10.326  11.411  64.170  1.00  0.00    -0.400 A  
HETATM    7  C   UNL     1     -11.495  11.743  63.459  1.00  0.00    -0.489 A  
HETATM    8  C   UNL     1     -12.501  12.501  64.059  1.00  0.00    -0.527 A  
HETATM    9  C   UNL     1     -12.348  12.935  65.374  1.00  0.00    -0.538 A  
HETATM   10  C   UNL     1     -11.199  12.601  66.094  1.00  0.00    -0.350 A  
HETATM   11  C   UNL     1     -10.193  11.842  65.494  1.00  0.00    -0.254 A  
HETATM   12  O   UNL     1      -9.086  11.514  66.224  1.00  0.00    -0.200 OA 
HETATM   13  H   UNL     1      -8.996  11.807  67.123  1.00  0.00     0.000 HD 
ENDBRANCH   4   6
ENDBRANCH   3   4
ENDBRANCH   2   3
TORSDOF 3
ENDMDL
MODEL      121
REMARK 921   NORMALIZED FREE ENERGY PREDICTED BY IDOCK:   -3.17 KCAL/MOL
REMARK 922        TOTAL FREE ENERGY PREDICTED BY IDOCK:   -4.17 KCAL/MOL
REMARK 923 INTER-LIGAND FREE ENERGY PREDICTED BY IDOCK:   -3.69 KCAL/MOL
REMARK 924 INTRA-LIGAND FREE ENERGY PREDICTED BY IDOCK:   -0.49 KCAL/MOL
REMARK 927      BINDING AFFINITY PREDICTED BY RF-SCORE:    0.00 PKD
ROOT
HETATM    1  C   UNL     1      -8.173  16.711  66.225  1.00  0.00    -0.365 C  
HETATM    2  C   UNL     1      -8.791  16.787  67.612  1.00  0.00    -0.205 C  
ENDROOT
BRANCH   2   3
HETATM    3  O   UNL     1      -8.564  15.532  68.267  1.00  0.00    -0.156 OA 
BRANCH   3   4
HETATM    4  C   UNL     1      -9.680  14.939  68.772  1.00  0.00    -0.225 C  
HETATM    5  O   UNL     1     -10.168  15.166  69.866  1.00  0.00    -0.234 OA 
BRANCH   4   6
HETATM    6  C   UNL     1     -10.299  14.099  67.713  1.00  0.00    -0.242 A  
HETATM    7  C   UNL     1      -9.474  13.324  66.876  1.00  0.00    -0.249 A  
HETATM    8  C   UNL     1     -10.012  12.635  65.789  1.00  0.00    -0.266 A  
HETATM    9  C   UNL     1     -11.378  12.715  65.527  1.00  0.00    -0.356 A  
HETATM   10  C   UNL     1     -12.209  13.469  66.357  1.00  0.00    -0.454 A  
HETATM   11  C   UNL     1     -11.671  14.158  67.446  1.00  0.00    -0.391 A  
HETATM   12  O   UNL     1     -12.507  14.876  68.253  1.00  0.00    -0.542 OA 
HETATM   13  H   UNL     1     -13.439  14.916  68.071  1.00  0.00     0.000 HD 
ENDBRANCH   4   6
ENDBRANCH   3   4
ENDBRANCH   2   3
TORSDOF 3
ENDMDL
MODEL      122
REMARK 921   NORMALIZED FREE ENERGY PREDICTED BY IDOCK:   -3.16 KCAL/MOL
REMARK 922        TOTAL FREE ENERGY PREDICTED BY IDOCK:   -4.17 KCAL/MOL
REMARK 923 INTER-LIGAND FREE ENERGY PREDICTED BY IDOCK:   -3.79 KCAL/MOL
REMARK 924 INTRA-LIGAND FREE ENERGY PREDICTED BY IDOCK:   -0.37 KCAL/MOL
REMARK 927      BINDING AFFINITY PREDICTED BY RF-SCORE:    0.00 PKD
ROOT
HETATM    1  C   UNL     1      -6.591  14.782  69.941  1.00  0.00    -0.175 C  
HETATM    2  C   UNL     1      -6.643  15.040  68.443  1.00  0.00    -0.102 C  
ENDROOT
BRANCH   2   3
HETATM    3  O   UNL     1      -7.382  16.249  68.227  1.00  0.00    -0.138 OA 
BRANCH   3   4
HETATM    4  C   UNL     1      -8.348  16.168  67.273  1.00  0.00    -0.180 C  
HETATM    5  O   UNL     1      -8.751  15.137  66.760  1.00  0.00    -0.243 OA 
BRANCH   4   6
HETATM    6  C   UNL     1      -8.947  17.514  67.079  1.00  0.00    -0.250 A  
HETATM    7  C   UNL     1      -8.623  18.550  67.977  1.00  0.00    -0.310 A  
HETATM    8  C   UNL     1      -9.273  19.783  67.903  1.00  0.00    -0.427 A  
HETATM    9  C   UNL     1     -10.251  19.992  66.934  1.00  0.00    -0.595 A  
HETATM   10  C   UNL     1     -10.571  18.978  66.029  1.00  0.00    -0.499 A  
HETATM   11  C   UNL     1      -9.921  17.745  66.102  1.00  0.00    -0.276 A  
HETATM   12  O   UNL     1     -10.240  16.774  65.195  1.00  0.00    -0.599 OA 
HETATM   13  H   UNL     1     -10.902  16.931  64.532  1.00  0.00     0.000 HD 
ENDBRANCH   4   6
ENDBRANCH   3   4
ENDBRANCH   2   3
TORSDOF 3
ENDMDL
MODEL      123
REMARK 921   NORMALIZED FREE ENERGY PREDICTED BY IDOCK:   -3.15 KCAL/MOL
REMARK 922        TOTAL FREE ENERGY PREDICTED BY IDOCK:   -4.16 KCAL/MOL
REMARK 923 INTER-LIGAND FREE ENERGY PREDICTED BY IDOCK:   -3.70 KCAL/MOL
REMARK 924 INTRA-LIGAND FREE ENERGY PREDICTED BY IDOCK:   -0.46 KCAL/MOL
REMARK 927      BINDING AFFINITY PREDICTED BY RF-SCORE:    0.00 PKD
ROOT
HETATM    1  C   UNL     1     -14.410   8.202  71.627  1.00  0.00    -0.570 C  
HETATM    2  C   UNL     1     -13.505   9.363  72.010  1.00  0.00    -0.449 C  
ENDROOT
BRANCH   2   3
HETATM    3  O   UNL     1     -12.154   8.884  72.031  1.00  0.00    -0.338 OA 
BRANCH   3   4
HETATM    4  C   UNL     1     -11.342   9.417  71.079  1.00  0.00    -0.337 C  
HETATM    5  O   UNL     1     -11.421  10.550  70.635  1.00  0.00    -0.322 OA 
BRANCH   4   6
HETATM    6  C   UNL     1     -10.245   8.457  70.790  1.00  0.00    -0.227 A  
HETATM    7  C   UNL     1      -8.918   8.809  71.106  1.00  0.00    -0.280 A  
HETATM    8  C   UNL     1      -7.855   7.990  70.722  1.00  0.00    -0.091 A  
HETATM    9  C   UNL     1      -8.107   6.814  70.020  1.00  0.00    -0.125 A  
HETATM   10  C   UNL     1      -9.419   6.447  69.714  1.00  0.00    -0.160 A  
HETATM   11  C   UNL     1     -10.483   7.265  70.097  1.00  0.00    -0.218 A  
HETATM   12  O   UNL     1     -11.758   6.876  69.800  1.00  0.00    -0.581 OA 
HETATM   13  H   UNL     1     -11.919   6.067  69.329  1.00  0.00     0.000 HD 
ENDBRANCH   4   6
ENDBRANCH   3   4
ENDBRANCH   2   3
TORSDOF 3
ENDMDL
MODEL      124
REMARK 921   NORMALIZED FREE ENERGY PREDICTED BY IDOCK:   -3.15 KCAL/MOL
REMARK 922        TOTAL FREE ENERGY PREDICTED BY IDOCK:   -4.15 KCAL/MOL
REMARK 923 INTER-LIGAND FREE ENERGY PREDICTED BY IDOCK:   -3.72 KCAL/MOL
REMARK 924 INTRA-LIGAND FREE ENERGY PREDICTED BY IDOCK:   -0.44 KCAL/MOL
REMARK 927      BINDING AFFINITY PREDICTED BY RF-SCORE:    0.00 PKD
ROOT
HETATM    1  C   UNL     1      -7.613  19.942  67.658  1.00  0.00    -0.324 C  
HETATM    2  C   UNL     1      -8.511  19.262  68.681  1.00  0.00    -0.368 C  
ENDROOT
BRANCH   2   3
HETATM    3  O   UNL     1      -9.231  18.219  68.014  1.00  0.00    -0.277 OA 
BRANCH   3   4
HETATM    4  C   UNL     1      -8.758  16.963  68.236  1.00  0.00    -0.235 C  
HETATM    5  O   UNL     1      -7.921  16.659  69.069  1.00  0.00    -0.240 OA 
BRANCH   4   6
HETATM    6  C   UNL     1      -9.542  16.001  67.417  1.00  0.00    -0.225 A  
HETATM    7  C   UNL     1      -9.838  16.316  66.077  1.00  0.00    -0.371 A  
HETATM    8  C   UNL     1     -10.686  15.501  65.326  1.00  0.00    -0.440 A  
HETATM    9  C   UNL     1     -11.247  14.366  65.906  1.00  0.00    -0.324 A  
HETATM   10  C   UNL     1     -10.950  14.036  67.230  1.00  0.00    -0.303 A  
HETATM   11  C   UNL     1     -10.102  14.850  67.982  1.00  0.00    -0.221 A  
HETATM   12  O   UNL     1      -9.814  14.497  69.270  1.00  0.00    -0.390 OA 
HETATM   13  H   UNL     1     -10.194  13.715  69.653  1.00  0.00     0.000 HD 
ENDBRANCH   4   6
ENDBRANCH   3   4
ENDBRANCH   2   3
TORSDOF 3
ENDMDL
MODEL      125
REMARK 921   NORMALIZED FREE ENERGY PREDICTED BY IDOCK:   -3.14 KCAL/MOL
REMARK 922        TOTAL FREE ENERGY PREDICTED BY IDOCK:   -4.14 KCAL/MOL
REMARK 923 INTER-LIGAND FREE ENERGY PREDICTED BY IDOCK:   -3.79 KCAL/MOL
REMARK 924 INTRA-LIGAND FREE ENERGY PREDICTED BY IDOCK:   -0.35 KCAL/MOL
REMARK 927      BINDING AFFINITY PREDICTED BY RF-SCORE:    0.00 PKD
ROOT
HETATM    1  C   UNL     1      -9.201  13.040  66.872  1.00  0.00    -0.236 C  
HETATM    2  C   UNL     1     -10.150  14.112  66.360  1.00  0.00    -0.293 C  
ENDROOT
BRANCH   2   3
HETATM    3  O   UNL     1      -9.783  15.356  66.969  1.00  0.00    -0.219 OA 
BRANCH   3   4
HETATM    4  C   UNL     1      -9.820  16.434  66.139  1.00  0.00    -0.338 C  
HETATM    5  O   UNL     1     -10.381  16.474  65.057  1.00  0.00    -0.622 OA 
BRANCH   4   6
HETATM    6  C   UNL     1      -9.212  17.598  66.834  1.00  0.00    -0.270 A  
HETATM    7  C   UNL     1      -7.901  17.992  66.504  1.00  0.00    -0.292 A  
HETATM    8  C   UNL     1      -7.254  18.990  67.234  1.00  0.00    -0.228 A  
HETATM    9  C   UNL     1      -7.909  19.603  68.299  1.00  0.00    -0.355 A  
HETATM   10  C   UNL     1      -9.214  19.231  68.627  1.00  0.00    -0.436 A  
HETATM   11  C   UNL     1      -9.862  18.232  67.898  1.00  0.00    -0.317 A  
HETATM   12  O   UNL     1     -11.145  17.898  68.228  1.00  0.00    -0.181 OA 
HETATM   13  H   UNL     1     -11.586  18.329  68.950  1.00  0.00     0.000 HD 
ENDBRANCH   4   6
ENDBRANCH   3   4
ENDBRANCH   2   3
TORSDOF 3
ENDMDL
MODEL      126
REMARK 921   NORMALIZED FREE ENERGY PREDICTED BY IDOCK:   -3.14 KCAL/MOL
REMARK 922        TOTAL FREE ENERGY PREDICTED BY IDOCK:   -4.14 KCAL/MOL
REMARK 923 INTER-LIGAND FREE ENERGY PREDICTED BY IDOCK:   -3.66 KCAL/MOL
REMARK 924 INTRA-LIGAND FREE ENERGY PREDICTED BY IDOCK:   -0.48 KCAL/MOL
REMARK 927      BINDING AFFINITY PREDICTED BY RF-SCORE:    0.00 PKD
ROOT
HETATM    1  C   UNL     1      -5.928  15.136  68.463  1.00  0.00    -0.097 C  
HETATM    2  C   UNL     1      -7.258  14.736  67.843  1.00  0.00    -0.156 C  
ENDROOT
BRANCH   2   3
HETATM    3  O   UNL     1      -7.951  15.934  67.471  1.00  0.00    -0.129 OA 
BRANCH   3   4
HETATM    4  C   UNL     1      -8.873  16.367  68.372  1.00  0.00    -0.214 C  
HETATM    5  O   UNL     1      -9.279  15.731  69.330  1.00  0.00    -0.254 OA 
BRANCH   4   6
HETATM    6  C   UNL     1      -9.178  17.796  68.099  1.00  0.00    -0.277 A  
HETATM    7  C   UNL     1     -10.460  18.152  67.639  1.00  0.00    -0.432 A  
HETATM    8  C   UNL     1     -10.735  19.462  67.244  1.00  0.00    -0.603 A  
HETATM    9  C   UNL     1      -9.733  20.427  67.303  1.00  0.00    -0.602 A  
HETATM   10  C   UNL     1      -8.461  20.089  67.771  1.00  0.00    -0.338 A  
HETATM   11  C   UNL     1      -8.186  18.779  68.167  1.00  0.00    -0.304 A  
HETATM   12  O   UNL     1      -6.939  18.478  68.637  1.00  0.00    -0.254 OA 
HETATM   13  H   UNL     1      -6.265  19.146  68.683  1.00  0.00     0.000 HD 
ENDBRANCH   4   6
ENDBRANCH   3   4
ENDBRANCH   2   3
TORSDOF 3
ENDMDL
MODEL      127
REMARK 921   NORMALIZED FREE ENERGY PREDICTED BY IDOCK:   -3.14 KCAL/MOL
REMARK 922        TOTAL FREE ENERGY PREDICTED BY IDOCK:   -4.14 KCAL/MOL
REMARK 923 INTER-LIGAND FREE ENERGY PREDICTED BY IDOCK:   -3.70 KCAL/MOL
REMARK 924 INTRA-LIGAND FREE ENERGY PREDICTED BY IDOCK:   -0.44 KCAL/MOL
REMARK 927      BINDING AFFINITY PREDICTED BY RF-SCORE:    0.00 PKD
ROOT
HETATM    1  C   UNL     1     -10.064   7.117  73.667  1.00  0.00    -0.389 C  
HETATM    2  C   UNL     1     -11.035   7.650  72.625  1.00  0.00    -0.351 C  
ENDROOT
BRANCH   2   3
HETATM    3  O   UNL     1     -10.552   7.265  71.332  1.00  0.00    -0.212 OA 
BRANCH   3   4
HETATM    4  C   UNL     1     -11.460   6.620  70.550  1.00  0.00    -0.376 C  
HETATM    5  O   UNL     1     -12.653   6.868  70.499  1.00  0.00    -0.216 OA 
BRANCH   4   6
HETATM    6  C   UNL     1     -10.739   5.682  69.650  1.00  0.00    -0.398 A  
HETATM    7  C   UNL     1      -9.961   4.650  70.208  1.00  0.00    -0.309 A  
HETATM    8  C   UNL     1      -9.165   3.841  69.395  1.00  0.00    -0.226 A  
HETATM    9  C   UNL     1      -9.138   4.057  68.020  1.00  0.00    -0.179 A  
HETATM   10  C   UNL     1      -9.915   5.069  67.453  1.00  0.00    -0.214 A  
HETATM   11  C   UNL     1     -10.712   5.878  68.265  1.00  0.00    -0.243 A  
HETATM   12  O   UNL     1     -11.477   6.850  67.684  1.00  0.00    -0.585 OA 
HETATM   13  H   UNL     1     -11.458   6.982  66.744  1.00  0.00     0.000 HD 
ENDBRANCH   4   6
ENDBRANCH   3   4
ENDBRANCH   2   3
TORSDOF 3
ENDMDL
MODEL      128
REMARK 921   NORMALIZED FREE ENERGY PREDICTED BY IDOCK:   -3.12 KCAL/MOL
REMARK 922        TOTAL FREE ENERGY PREDICTED BY IDOCK:   -4.12 KCAL/MOL
REMARK 923 INTER-LIGAND FREE ENERGY PREDICTED BY IDOCK:   -3.75 KCAL/MOL
REMARK 924 INTRA-LIGAND FREE ENERGY PREDICTED BY IDOCK:   -0.37 KCAL/MOL
REMARK 927      BINDING AFFINITY PREDICTED BY RF-SCORE:    0.00 PKD
ROOT
HETATM    1  C   UNL     1      -6.675   9.181  66.651  1.00  0.00    -0.076 C  
HETATM    2  C   UNL     1      -7.847   9.183  67.622  1.00  0.00    -0.096 C  
ENDROOT
BRANCH   2   3
HETATM    3  O   UNL     1      -8.808  10.138  67.153  1.00  0.00    -0.132 OA 
BRANCH   3   4
HETATM    4  C   UNL     1      -9.837   9.611  66.436  1.00  0.00    -0.244 C  
HETATM    5  O   UNL     1     -10.311   8.497  66.592  1.00  0.00    -0.298 OA 
BRANCH   4   6
HETATM    6  C   UNL     1     -10.397  10.666  65.552  1.00  0.00    -0.297 A  
HETATM    7  C   UNL     1      -9.936  10.771  64.225  1.00  0.00    -0.403 A  
HETATM    8  C   UNL     1     -10.339  11.834  63.415  1.00  0.00    -0.481 A  
HETATM    9  C   UNL     1     -11.205  12.800  63.922  1.00  0.00    -0.491 A  
HETATM   10  C   UNL     1     -11.680  12.698  65.231  1.00  0.00    -0.417 A  
HETATM   11  C   UNL     1     -11.277  11.636  66.042  1.00  0.00    -0.240 A  
HETATM   12  O   UNL     1     -11.769  11.550  67.313  1.00  0.00    -0.576 OA 
HETATM   13  H   UNL     1     -12.367  12.209  67.646  1.00  0.00     0.000 HD 
ENDBRANCH   4   6
ENDBRANCH   3   4
ENDBRANCH   2   3
TORSDOF 3
ENDMDL
MODEL      129
REMARK 921   NORMALIZED FREE ENERGY PREDICTED BY IDOCK:   -3.11 KCAL/MOL
REMARK 922        TOTAL FREE ENERGY PREDICTED BY IDOCK:   -4.11 KCAL/MOL
REMARK 923 INTER-LIGAND FREE ENERGY PREDICTED BY IDOCK:   -3.73 KCAL/MOL
REMARK 924 INTRA-LIGAND FREE ENERGY PREDICTED BY IDOCK:   -0.38 KCAL/MOL
REMARK 927      BINDING AFFINITY PREDICTED BY RF-SCORE:    0.00 PKD
ROOT
HETATM    1  C   UNL     1      -8.472   8.449  65.202  1.00  0.00    -0.179 C  
HETATM    2  C   UNL     1      -8.810   8.900  66.615  1.00  0.00    -0.129 C  
ENDROOT
BRANCH   2   3
HETATM    3  O   UNL     1      -9.662  10.048  66.521  1.00  0.00    -0.180 OA 
BRANCH   3   4
HETATM    4  C   UNL     1     -10.598  10.149  67.504  1.00  0.00    -0.273 C  
HETATM    5  O   UNL     1     -10.804   9.319  68.373  1.00  0.00    -0.177 OA 
BRANCH   4   6
HETATM    6  C   UNL     1     -11.211  11.502  67.446  1.00  0.00    -0.367 A  
HETATM    7  C   UNL     1     -11.459  12.095  66.194  1.00  0.00    -0.429 A  
HETATM    8  C   UNL     1     -11.905  13.415  66.108  1.00  0.00    -0.427 A  
HETATM    9  C   UNL     1     -12.105  14.154  67.272  1.00  0.00    -0.407 A  
HETATM   10  C   UNL     1     -11.876  13.572  68.520  1.00  0.00    -0.398 A  
HETATM   11  C   UNL     1     -11.430  12.252  68.607  1.00  0.00    -0.307 A  
HETATM   12  O   UNL     1     -11.229  11.701  69.840  1.00  0.00    -0.457 OA 
HETATM   13  H   UNL     1     -11.378  12.210  70.628  1.00  0.00     0.000 HD 
ENDBRANCH   4   6
ENDBRANCH   3   4
ENDBRANCH   2   3
TORSDOF 3
ENDMDL
MODEL      130
REMARK 921   NORMALIZED FREE ENERGY PREDICTED BY IDOCK:   -3.10 KCAL/MOL
REMARK 922        TOTAL FREE ENERGY PREDICTED BY IDOCK:   -4.10 KCAL/MOL
REMARK 923 INTER-LIGAND FREE ENERGY PREDICTED BY IDOCK:   -3.69 KCAL/MOL
REMARK 924 INTRA-LIGAND FREE ENERGY PREDICTED BY IDOCK:   -0.41 KCAL/MOL
REMARK 927      BINDING AFFINITY PREDICTED BY RF-SCORE:    0.00 PKD
ROOT
HETATM    1  C   UNL     1      -7.665  12.634  67.356  1.00  0.00    -0.161 C  
HETATM    2  C   UNL     1      -9.058  12.926  66.819  1.00  0.00    -0.211 C  
ENDROOT
BRANCH   2   3
HETATM    3  O   UNL     1      -9.982  12.836  67.911  1.00  0.00    -0.215 OA 
BRANCH   3   4
HETATM    4  C   UNL     1     -11.024  11.984  67.713  1.00  0.00    -0.232 C  
HETATM    5  O   UNL     1     -11.814  12.036  66.786  1.00  0.00    -0.581 OA 
BRANCH   4   6
HETATM    6  C   UNL     1     -10.943  10.886  68.712  1.00  0.00    -0.285 A  
HETATM    7  C   UNL     1     -10.476   9.620  68.310  1.00  0.00    -0.259 A  
HETATM    8  C   UNL     1     -10.519   8.535  69.187  1.00  0.00    -0.217 A  
HETATM    9  C   UNL     1     -11.029   8.705  70.472  1.00  0.00    -0.266 A  
HETATM   10  C   UNL     1     -11.483   9.958  70.887  1.00  0.00    -0.456 A  
HETATM   11  C   UNL     1     -11.440  11.044  70.010  1.00  0.00    -0.314 A  
HETATM   12  O   UNL     1     -11.875  12.264  70.445  1.00  0.00    -0.494 OA 
HETATM   13  H   UNL     1     -12.212  12.371  71.327  1.00  0.00     0.000 HD 
ENDBRANCH   4   6
ENDBRANCH   3   4
ENDBRANCH   2   3
TORSDOF 3
ENDMDL
MODEL      131
REMARK 921   NORMALIZED FREE ENERGY PREDICTED BY IDOCK:   -3.10 KCAL/MOL
REMARK 922        TOTAL FREE ENERGY PREDICTED BY IDOCK:   -4.09 KCAL/MOL
REMARK 923 INTER-LIGAND FREE ENERGY PREDICTED BY IDOCK:   -4.09 KCAL/MOL
REMARK 924 INTRA-LIGAND FREE ENERGY PREDICTED BY IDOCK:   -0.01 KCAL/MOL
REMARK 927      BINDING AFFINITY PREDICTED BY RF-SCORE:    0.00 PKD
ROOT
HETATM    1  C   UNL     1     -14.205   7.731  71.379  1.00  0.00    -0.489 C  
HETATM    2  C   UNL     1     -14.010   9.086  72.042  1.00  0.00    -0.410 C  
ENDROOT
BRANCH   2   3
HETATM    3  O   UNL     1     -12.707   9.568  71.689  1.00  0.00    -0.335 OA 
BRANCH   3   4
HETATM    4  C   UNL     1     -12.671  10.857  71.254  1.00  0.00    -0.437 C  
HETATM    5  O   UNL     1     -13.273  11.791  71.758  1.00  0.00    -0.457 OA 
BRANCH   4   6
HETATM    6  C   UNL     1     -11.654  10.973  70.177  1.00  0.00    -0.421 A  
HETATM    7  C   UNL     1     -11.788  11.984  69.207  1.00  0.00    -0.377 A  
HETATM    8  C   UNL     1     -10.929  12.033  68.108  1.00  0.00    -0.273 A  
HETATM    9  C   UNL     1      -9.931  11.072  67.967  1.00  0.00    -0.188 A  
HETATM   10  C   UNL     1      -9.779  10.072  68.929  1.00  0.00    -0.181 A  
HETATM   11  C   UNL     1     -10.637  10.023  70.029  1.00  0.00    -0.293 A  
HETATM   12  O   UNL     1     -10.458   9.045  70.966  1.00  0.00    -0.224 OA 
HETATM   13  H   UNL     1      -9.768   8.400  70.865  1.00  0.00     0.000 HD 
ENDBRANCH   4   6
ENDBRANCH   3   4
ENDBRANCH   2   3
TORSDOF 3
ENDMDL
MODEL      132
REMARK 921   NORMALIZED FREE ENERGY PREDICTED BY IDOCK:   -3.08 KCAL/MOL
REMARK 922        TOTAL FREE ENERGY PREDICTED BY IDOCK:   -4.07 KCAL/MOL
REMARK 923 INTER-LIGAND FREE ENERGY PREDICTED BY IDOCK:   -3.66 KCAL/MOL
REMARK 924 INTRA-LIGAND FREE ENERGY PREDICTED BY IDOCK:   -0.42 KCAL/MOL
REMARK 927      BINDING AFFINITY PREDICTED BY RF-SCORE:    0.00 PKD
ROOT
HETATM    1  C   UNL     1     -11.939  15.487  64.323  1.00  0.00    -0.161 C  
HETATM    2  C   UNL     1     -12.048  14.108  64.956  1.00  0.00    -0.421 C  
ENDROOT
BRANCH   2   3
HETATM    3  O   UNL     1     -12.528  14.274  66.296  1.00  0.00    -0.445 OA 
BRANCH   3   4
HETATM    4  C   UNL     1     -11.564  14.517  67.225  1.00  0.00    -0.385 C  
HETATM    5  O   UNL     1     -11.384  15.580  67.797  1.00  0.00    -0.330 OA 
BRANCH   4   6
HETATM    6  C   UNL     1     -10.875  13.241  67.550  1.00  0.00    -0.276 A  
HETATM    7  C   UNL     1     -11.592  12.215  68.197  1.00  0.00    -0.397 A  
HETATM    8  C   UNL     1     -10.941  11.063  68.638  1.00  0.00    -0.271 A  
HETATM    9  C   UNL     1      -9.569  10.924  68.438  1.00  0.00    -0.177 A  
HETATM   10  C   UNL     1      -8.850  11.927  67.786  1.00  0.00    -0.166 A  
HETATM   11  C   UNL     1      -9.501  13.081  67.344  1.00  0.00    -0.210 A  
HETATM   12  O   UNL     1      -8.779  14.041  66.694  1.00  0.00    -0.416 OA 
HETATM   13  H   UNL     1      -7.846  13.932  66.554  1.00  0.00     0.000 HD 
ENDBRANCH   4   6
ENDBRANCH   3   4
ENDBRANCH   2   3
TORSDOF 3
ENDMDL
MODEL      133
REMARK 921   NORMALIZED FREE ENERGY PREDICTED BY IDOCK:   -3.06 KCAL/MOL
REMARK 922        TOTAL FREE ENERGY PREDICTED BY IDOCK:   -4.05 KCAL/MOL
REMARK 923 INTER-LIGAND FREE ENERGY PREDICTED BY IDOCK:   -3.67 KCAL/MOL
REMARK 924 INTRA-LIGAND FREE ENERGY PREDICTED BY IDOCK:   -0.38 KCAL/MOL
REMARK 927      BINDING AFFINITY PREDICTED BY RF-SCORE:    0.00 PKD
ROOT
HETATM    1  C   UNL     1      -7.824   9.809  68.123  1.00  0.00    -0.085 C  
HETATM    2  C   UNL     1      -7.830   9.928  66.607  1.00  0.00    -0.110 C  
ENDROOT
BRANCH   2   3
HETATM    3  O   UNL     1      -8.971  10.710  66.229  1.00  0.00    -0.157 OA 
BRANCH   3   4
HETATM    4  C   UNL     1      -9.050  11.004  64.903  1.00  0.00    -0.147 C  
HETATM    5  O   UNL     1      -8.405  10.466  64.019  1.00  0.00    -0.166 OA 
BRANCH   4   6
HETATM    6  C   UNL     1     -10.166  11.963  64.689  1.00  0.00    -0.316 A  
HETATM    7  C   UNL     1     -11.201  11.629  63.795  1.00  0.00    -0.498 A  
HETATM    8  C   UNL     1     -12.187  12.562  63.469  1.00  0.00    -0.652 A  
HETATM    9  C   UNL     1     -12.146  13.836  64.031  1.00  0.00    -0.448 A  
HETATM   10  C   UNL     1     -11.132  14.174  64.930  1.00  0.00    -0.389 A  
HETATM   11  C   UNL     1     -10.146  13.241  65.256  1.00  0.00    -0.239 A  
HETATM   12  O   UNL     1      -9.174  13.591  66.150  1.00  0.00    -0.466 OA 
HETATM   13  H   UNL     1      -9.161  14.459  66.535  1.00  0.00     0.000 HD 
ENDBRANCH   4   6
ENDBRANCH   3   4
ENDBRANCH   2   3
TORSDOF 3
ENDMDL
MODEL      134
REMARK 921   NORMALIZED FREE ENERGY PREDICTED BY IDOCK:   -3.03 KCAL/MOL
REMARK 922        TOTAL FREE ENERGY PREDICTED BY IDOCK:   -4.02 KCAL/MOL
REMARK 923 INTER-LIGAND FREE ENERGY PREDICTED BY IDOCK:   -3.84 KCAL/MOL
REMARK 924 INTRA-LIGAND FREE ENERGY PREDICTED BY IDOCK:   -0.18 KCAL/MOL
REMARK 927      BINDING AFFINITY PREDICTED BY RF-SCORE:    0.00 PKD
ROOT
HETATM    1  C   UNL     1     -10.946  14.031  65.741  1.00  0.00    -0.294 C  
HETATM    2  C   UNL     1     -10.942  15.503  65.361  1.00  0.00    -0.357 C  
ENDROOT
BRANCH   2   3
HETATM    3  O   UNL     1      -9.633  16.025  65.624  1.00  0.00    -0.384 OA 
BRANCH   3   4
HETATM    4  C   UNL     1      -9.478  16.593  66.851  1.00  0.00    -0.235 C  
HETATM    5  O   UNL     1      -9.709  16.048  67.917  1.00  0.00    -0.219 OA 
BRANCH   4   6
HETATM    6  C   UNL     1      -8.827  17.919  66.688  1.00  0.00    -0.285 A  
HETATM    7  C   UNL     1      -7.478  17.982  66.288  1.00  0.00    -0.312 A  
HETATM    8  C   UNL     1      -6.801  19.202  66.260  1.00  0.00    -0.236 A  
HETATM    9  C   UNL     1      -7.464  20.369  66.631  1.00  0.00    -0.297 A  
HETATM   10  C   UNL     1      -8.805  20.322  67.015  1.00  0.00    -0.427 A  
HETATM   11  C   UNL     1      -9.483  19.102  67.043  1.00  0.00    -0.316 A  
HETATM   12  O   UNL     1     -10.800  19.085  67.407  1.00  0.00    -0.473 OA 
HETATM   13  H   UNL     1     -11.245  19.888  67.649  1.00  0.00     0.000 HD 
ENDBRANCH   4   6
ENDBRANCH   3   4
ENDBRANCH   2   3
TORSDOF 3
ENDMDL
MODEL      135
REMARK 921   NORMALIZED FREE ENERGY PREDICTED BY IDOCK:   -3.03 KCAL/MOL
REMARK 922        TOTAL FREE ENERGY PREDICTED BY IDOCK:   -4.01 KCAL/MOL
REMARK 923 INTER-LIGAND FREE ENERGY PREDICTED BY IDOCK:   -3.61 KCAL/MOL
REMARK 924 INTRA-LIGAND FREE ENERGY PREDICTED BY IDOCK:   -0.41 KCAL/MOL
REMARK 927      BINDING AFFINITY PREDICTED BY RF-SCORE:    0.00 PKD
ROOT
HETATM    1  C   UNL     1     -11.307   6.303  70.281  1.00  0.00    -0.457 C  
HETATM    2  C   UNL     1     -10.447   7.309  69.533  1.00  0.00    -0.230 C  
ENDROOT
BRANCH   2   3
HETATM    3  O   UNL     1     -10.005   8.298  70.471  1.00  0.00    -0.182 OA 
BRANCH   3   4
HETATM    4  C   UNL     1     -10.694   9.471  70.436  1.00  0.00    -0.284 C  
HETATM    5  O   UNL     1     -11.440   9.880  71.311  1.00  0.00    -0.365 OA 
BRANCH   4   6
HETATM    6  C   UNL     1     -10.263  10.246  69.244  1.00  0.00    -0.244 A  
HETATM    7  C   UNL     1      -8.890  10.458  69.016  1.00  0.00    -0.176 A  
HETATM    8  C   UNL     1      -8.461  11.295  67.986  1.00  0.00    -0.138 A  
HETATM    9  C   UNL     1      -9.399  11.929  67.174  1.00  0.00    -0.180 A  
HETATM   10  C   UNL     1     -10.763  11.717  67.381  1.00  0.00    -0.277 A  
HETATM   11  C   UNL     1     -11.193  10.879  68.411  1.00  0.00    -0.285 A  
HETATM   12  O   UNL     1     -12.533  10.674  68.583  1.00  0.00    -0.788 OA 
HETATM   13  H   UNL     1     -13.163  11.103  68.017  1.00  0.00     0.000 HD 
ENDBRANCH   4   6
ENDBRANCH   3   4
ENDBRANCH   2   3
TORSDOF 3
ENDMDL
MODEL      136
REMARK 921   NORMALIZED FREE ENERGY PREDICTED BY IDOCK:   -3.03 KCAL/MOL
REMARK 922        TOTAL FREE ENERGY PREDICTED BY IDOCK:   -4.01 KCAL/MOL
REMARK 923 INTER-LIGAND FREE ENERGY PREDICTED BY IDOCK:   -3.54 KCAL/MOL
REMARK 924 INTRA-LIGAND FREE ENERGY PREDICTED BY IDOCK:   -0.47 KCAL/MOL
REMARK 927      BINDING AFFINITY PREDICTED BY RF-SCORE:    0.00 PKD
ROOT
HETATM    1  C   UNL     1     -11.073  15.357  70.484  1.00  0.00    -0.361 C  
HETATM    2  C   UNL     1     -11.260  16.328  69.328  1.00  0.00    -0.312 C  
ENDROOT
BRANCH   2   3
HETATM    3  O   UNL     1     -11.611  15.569  68.164  1.00  0.00    -0.353 OA 
BRANCH   3   4
HETATM    4  C   UNL     1     -10.559  15.187  67.391  1.00  0.00    -0.271 C  
HETATM    5  O   UNL     1      -9.628  15.901  67.058  1.00  0.00    -0.217 OA 
BRANCH   4   6
HETATM    6  C   UNL     1     -10.641  13.721  67.159  1.00  0.00    -0.277 A  
HETATM    7  C   UNL     1     -11.843  13.043  67.439  1.00  0.00    -0.411 A  
HETATM    8  C   UNL     1     -11.909  11.652  67.362  1.00  0.00    -0.170 A  
HETATM    9  C   UNL     1     -10.776  10.924  67.007  1.00  0.00    -0.323 A  
HETATM   10  C   UNL     1      -9.582  11.585  66.714  1.00  0.00    -0.203 A  
HETATM   11  C   UNL     1      -9.515  12.977  66.789  1.00  0.00    -0.250 A  
HETATM   12  O   UNL     1      -8.340  13.602  66.481  1.00  0.00    -0.388 OA 
HETATM   13  H   UNL     1      -7.575  13.097  66.231  1.00  0.00     0.000 HD 
ENDBRANCH   4   6
ENDBRANCH   3   4
ENDBRANCH   2   3
TORSDOF 3
ENDMDL
MODEL      137
REMARK 921   NORMALIZED FREE ENERGY PREDICTED BY IDOCK:   -3.01 KCAL/MOL
REMARK 922        TOTAL FREE ENERGY PREDICTED BY IDOCK:   -3.99 KCAL/MOL
REMARK 923 INTER-LIGAND FREE ENERGY PREDICTED BY IDOCK:   -3.55 KCAL/MOL
REMARK 924 INTRA-LIGAND FREE ENERGY PREDICTED BY IDOCK:   -0.44 KCAL/MOL
REMARK 927      BINDING AFFINITY PREDICTED BY RF-SCORE:    0.00 PKD
ROOT
HETATM    1  C   UNL     1      -9.575   5.380  73.134  1.00  0.00    -0.156 C  
HETATM    2  C   UNL     1     -10.971   5.972  73.260  1.00  0.00    -0.215 C  
ENDROOT
BRANCH   2   3
HETATM    3  O   UNL     1     -10.845   7.399  73.293  1.00  0.00    -0.374 OA 
BRANCH   3   4
HETATM    4  C   UNL     1     -11.542   8.058  72.328  1.00  0.00    -0.366 C  
HETATM    5  O   UNL     1     -12.647   8.555  72.467  1.00  0.00    -0.376 OA 
BRANCH   4   6
HETATM    6  C   UNL     1     -10.673   8.220  71.133  1.00  0.00    -0.270 A  
HETATM    7  C   UNL     1      -9.561   9.081  71.199  1.00  0.00    -0.356 A  
HETATM    8  C   UNL     1      -8.809   9.360  70.057  1.00  0.00    -0.231 A  
HETATM    9  C   UNL     1      -9.160   8.782  68.840  1.00  0.00    -0.141 A  
HETATM   10  C   UNL     1     -10.252   7.915  68.764  1.00  0.00    -0.218 A  
HETATM   11  C   UNL     1     -11.005   7.636  69.906  1.00  0.00    -0.200 A  
HETATM   12  O   UNL     1     -12.059   6.772  69.809  1.00  0.00    -0.648 OA 
HETATM   13  H   UNL     1     -12.284   6.376  68.976  1.00  0.00     0.000 HD 
ENDBRANCH   4   6
ENDBRANCH   3   4
ENDBRANCH   2   3
TORSDOF 3
ENDMDL
MODEL      138
REMARK 921   NORMALIZED FREE ENERGY PREDICTED BY IDOCK:   -3.00 KCAL/MOL
REMARK 922        TOTAL FREE ENERGY PREDICTED BY IDOCK:   -3.98 KCAL/MOL
REMARK 923 INTER-LIGAND FREE ENERGY PREDICTED BY IDOCK:   -3.46 KCAL/MOL
REMARK 924 INTRA-LIGAND FREE ENERGY PREDICTED BY IDOCK:   -0.53 KCAL/MOL
REMARK 927      BINDING AFFINITY PREDICTED BY RF-SCORE:    0.00 PKD
ROOT
HETATM    1  C   UNL     1     -11.778  11.188  69.288  1.00  0.00    -0.401 C  
HETATM    2  C   UNL     1     -11.814  10.564  70.674  1.00  0.00    -0.360 C  
ENDROOT
BRANCH   2   3
HETATM    3  O   UNL     1     -10.521  10.008  70.944  1.00  0.00    -0.228 OA 
BRANCH   3   4
HETATM    4  C   UNL     1     -10.532   8.727  71.403  1.00  0.00    -0.284 C  
HETATM    5  O   UNL     1     -10.848   8.381  72.529  1.00  0.00    -0.344 OA 
BRANCH   4   6
HETATM    6  C   UNL     1     -10.260   7.807  70.267  1.00  0.00    -0.199 A  
HETATM    7  C   UNL     1      -9.043   7.915  69.568  1.00  0.00    -0.149 A  
HETATM    8  C   UNL     1      -8.816   7.161  68.415  1.00  0.00    -0.127 A  
HETATM    9  C   UNL     1      -9.803   6.295  67.951  1.00  0.00    -0.129 A  
HETATM   10  C   UNL     1     -11.009   6.169  68.643  1.00  0.00    -0.415 A  
HETATM   11  C   UNL     1     -11.236   6.922  69.796  1.00  0.00    -0.267 A  
HETATM   12  O   UNL     1     -12.417   6.769  70.465  1.00  0.00    -0.553 OA 
HETATM   13  H   UNL     1     -13.079   6.168  70.145  1.00  0.00     0.000 HD 
ENDBRANCH   4   6
ENDBRANCH   3   4
ENDBRANCH   2   3
TORSDOF 3
ENDMDL
MODEL      139
REMARK 921   NORMALIZED FREE ENERGY PREDICTED BY IDOCK:   -3.00 KCAL/MOL
REMARK 922        TOTAL FREE ENERGY PREDICTED BY IDOCK:   -3.98 KCAL/MOL
REMARK 923 INTER-LIGAND FREE ENERGY PREDICTED BY IDOCK:   -3.49 KCAL/MOL
REMARK 924 INTRA-LIGAND FREE ENERGY PREDICTED BY IDOCK:   -0.49 KCAL/MOL
REMARK 927      BINDING AFFINITY PREDICTED BY RF-SCORE:    0.00 PKD
ROOT
HETATM    1  C   UNL     1      -8.312  10.396  67.643  1.00  0.00    -0.114 C  
HETATM    2  C   UNL     1      -9.065   9.963  66.394  1.00  0.00    -0.150 C  
ENDROOT
BRANCH   2   3
HETATM    3  O   UNL     1      -9.461  11.144  65.684  1.00  0.00    -0.208 OA 
BRANCH   3   4
HETATM    4  C   UNL     1     -10.610  11.721  66.126  1.00  0.00    -0.260 C  
HETATM    5  O   UNL     1     -11.618  11.123  66.466  1.00  0.00    -0.278 OA 
BRANCH   4   6
HETATM    6  C   UNL     1     -10.385  13.181  66.286  1.00  0.00    -0.291 A  
HETATM    7  C   UNL     1     -10.590  13.778  67.545  1.00  0.00    -0.246 A  
HETATM    8  C   UNL     1     -10.520  15.164  67.694  1.00  0.00    -0.253 A  
HETATM    9  C   UNL     1     -10.247  15.966  66.589  1.00  0.00    -0.293 A  
HETATM   10  C   UNL     1     -10.027  15.385  65.338  1.00  0.00    -0.356 A  
HETATM   11  C   UNL     1     -10.096  13.999  65.188  1.00  0.00    -0.314 A  
HETATM   12  O   UNL     1      -9.862  13.454  63.958  1.00  0.00    -0.724 OA 
HETATM   13  H   UNL     1      -9.666  14.009  63.212  1.00  0.00     0.000 HD 
ENDBRANCH   4   6
ENDBRANCH   3   4
ENDBRANCH   2   3
TORSDOF 3
ENDMDL
MODEL      140
REMARK 921   NORMALIZED FREE ENERGY PREDICTED BY IDOCK:   -2.99 KCAL/MOL
REMARK 922        TOTAL FREE ENERGY PREDICTED BY IDOCK:   -3.97 KCAL/MOL
REMARK 923 INTER-LIGAND FREE ENERGY PREDICTED BY IDOCK:   -3.54 KCAL/MOL
REMARK 924 INTRA-LIGAND FREE ENERGY PREDICTED BY IDOCK:   -0.43 KCAL/MOL
REMARK 927      BINDING AFFINITY PREDICTED BY RF-SCORE:    0.00 PKD
ROOT
HETATM    1  C   UNL     1     -11.086  14.963  64.949  1.00  0.00    -0.424 C  
HETATM    2  C   UNL     1     -11.400  14.923  66.437  1.00  0.00    -0.308 C  
ENDROOT
BRANCH   2   3
HETATM    3  O   UNL     1     -12.150  13.731  66.700  1.00  0.00    -0.411 OA 
BRANCH   3   4
HETATM    4  C   UNL     1     -11.594  12.894  67.617  1.00  0.00    -0.355 C  
HETATM    5  O   UNL     1     -11.953  12.776  68.777  1.00  0.00    -0.305 OA 
BRANCH   4   6
HETATM    6  C   UNL     1     -10.594  12.030  66.937  1.00  0.00    -0.260 A  
HETATM    7  C   UNL     1     -10.934  11.406  65.721  1.00  0.00    -0.256 A  
HETATM    8  C   UNL     1     -10.071  10.483  65.130  1.00  0.00    -0.383 A  
HETATM    9  C   UNL     1      -8.861  10.174  65.747  1.00  0.00    -0.177 A  
HETATM   10  C   UNL     1      -8.506  10.797  66.946  1.00  0.00    -0.131 A  
HETATM   11  C   UNL     1      -9.369  11.720  67.538  1.00  0.00    -0.174 A  
HETATM   12  O   UNL     1      -8.992  12.328  68.701  1.00  0.00    -0.355 OA 
HETATM   13  H   UNL     1      -8.161  12.117  69.109  1.00  0.00     0.000 HD 
ENDBRANCH   4   6
ENDBRANCH   3   4
ENDBRANCH   2   3
TORSDOF 3
ENDMDL
MODEL      141
REMARK 921   NORMALIZED FREE ENERGY PREDICTED BY IDOCK:   -2.99 KCAL/MOL
REMARK 922        TOTAL FREE ENERGY PREDICTED BY IDOCK:   -3.97 KCAL/MOL
REMARK 923 INTER-LIGAND FREE ENERGY PREDICTED BY IDOCK:   -3.54 KCAL/MOL
REMARK 924 INTRA-LIGAND FREE ENERGY PREDICTED BY IDOCK:   -0.42 KCAL/MOL
REMARK 927      BINDING AFFINITY PREDICTED BY RF-SCORE:    0.00 PKD
ROOT
HETATM    1  C   UNL     1      -6.324  19.943  69.909  1.00  0.00    -0.395 C  
HETATM    2  C   UNL     1      -7.493  19.495  69.045  1.00  0.00    -0.345 C  
ENDROOT
BRANCH   2   3
HETATM    3  O   UNL     1      -7.018  18.485  68.146  1.00  0.00    -0.225 OA 
BRANCH   3   4
HETATM    4  C   UNL     1      -7.288  17.207  68.524  1.00  0.00    -0.231 C  
HETATM    5  O   UNL     1      -6.669  16.570  69.361  1.00  0.00    -0.203 OA 
BRANCH   4   6
HETATM    6  C   UNL     1      -8.555  16.773  67.880  1.00  0.00    -0.202 A  
HETATM    7  C   UNL     1      -9.553  16.160  68.663  1.00  0.00    -0.226 A  
HETATM    8  C   UNL     1     -10.692  15.619  68.066  1.00  0.00    -0.287 A  
HETATM    9  C   UNL     1     -10.844  15.682  66.683  1.00  0.00    -0.266 A  
HETATM   10  C   UNL     1      -9.869  16.299  65.897  1.00  0.00    -0.365 A  
HETATM   11  C   UNL     1      -8.729  16.842  66.494  1.00  0.00    -0.275 A  
HETATM   12  O   UNL     1      -7.797  17.454  65.706  1.00  0.00    -0.526 OA 
HETATM   13  H   UNL     1      -7.915  17.501  64.765  1.00  0.00     0.000 HD 
ENDBRANCH   4   6
ENDBRANCH   3   4
ENDBRANCH   2   3
TORSDOF 3
ENDMDL
MODEL      142
REMARK 921   NORMALIZED FREE ENERGY PREDICTED BY IDOCK:   -2.97 KCAL/MOL
REMARK 922        TOTAL FREE ENERGY PREDICTED BY IDOCK:   -3.94 KCAL/MOL
REMARK 923 INTER-LIGAND FREE ENERGY PREDICTED BY IDOCK:   -3.57 KCAL/MOL
REMARK 924 INTRA-LIGAND FREE ENERGY PREDICTED BY IDOCK:   -0.37 KCAL/MOL
REMARK 927      BINDING AFFINITY PREDICTED BY RF-SCORE:    0.00 PKD
ROOT
HETATM    1  C   UNL     1      -9.865   8.680  69.692  1.00  0.00    -0.186 C  
HETATM    2  C   UNL     1     -10.266   9.906  70.498  1.00  0.00    -0.191 C  
ENDROOT
BRANCH   2   3
HETATM    3  O   UNL     1     -10.586  10.956  69.577  1.00  0.00    -0.229 OA 
BRANCH   3   4
HETATM    4  C   UNL     1     -11.865  11.415  69.652  1.00  0.00    -0.362 C  
HETATM    5  O   UNL     1     -12.830  10.765  70.018  1.00  0.00    -0.230 OA 
BRANCH   4   6
HETATM    6  C   UNL     1     -11.868  12.876  69.378  1.00  0.00    -0.371 A  
HETATM    7  C   UNL     1     -11.551  13.337  68.086  1.00  0.00    -0.373 A  
HETATM    8  C   UNL     1     -11.411  14.702  67.833  1.00  0.00    -0.332 A  
HETATM    9  C   UNL     1     -11.585  15.618  68.867  1.00  0.00    -0.392 A  
HETATM   10  C   UNL     1     -11.914  15.175  70.149  1.00  0.00    -0.374 A  
HETATM   11  C   UNL     1     -12.054  13.809  70.403  1.00  0.00    -0.350 A  
HETATM   12  O   UNL     1     -12.392  13.401  71.662  1.00  0.00    -0.175 OA 
HETATM   13  H   UNL     1     -12.518  14.035  72.358  1.00  0.00     0.000 HD 
ENDBRANCH   4   6
ENDBRANCH   3   4
ENDBRANCH   2   3
TORSDOF 3
ENDMDL
MODEL      143
REMARK 921   NORMALIZED FREE ENERGY PREDICTED BY IDOCK:   -2.96 KCAL/MOL
REMARK 922        TOTAL FREE ENERGY PREDICTED BY IDOCK:   -3.94 KCAL/MOL
REMARK 923 INTER-LIGAND FREE ENERGY PREDICTED BY IDOCK:   -3.58 KCAL/MOL
REMARK 924 INTRA-LIGAND FREE ENERGY PREDICTED BY IDOCK:   -0.35 KCAL/MOL
REMARK 927      BINDING AFFINITY PREDICTED BY RF-SCORE:    0.00 PKD
ROOT
HETATM    1  C   UNL     1     -10.255   5.580  67.709  1.00  0.00    -0.237 C  
HETATM    2  C   UNL     1     -11.007   6.736  67.070  1.00  0.00    -0.368 C  
ENDROOT
BRANCH   2   3
HETATM    3  O   UNL     1     -10.645   7.938  67.762  1.00  0.00    -0.223 OA 
BRANCH   3   4
HETATM    4  C   UNL     1     -10.396   9.009  66.961  1.00  0.00    -0.269 C  
HETATM    5  O   UNL     1      -9.981   8.954  65.816  1.00  0.00    -0.188 OA 
BRANCH   4   6
HETATM    6  C   UNL     1     -10.867  10.241  67.645  1.00  0.00    -0.363 A  
HETATM    7  C   UNL     1     -11.205  10.187  69.011  1.00  0.00    -0.223 A  
HETATM    8  C   UNL     1     -11.779  11.289  69.646  1.00  0.00    -0.420 A  
HETATM    9  C   UNL     1     -12.023  12.453  68.923  1.00  0.00    -0.289 A  
HETATM   10  C   UNL     1     -11.680  12.525  67.571  1.00  0.00    -0.439 A  
HETATM   11  C   UNL     1     -11.105  11.423  66.935  1.00  0.00    -0.295 A  
HETATM   12  O   UNL     1     -10.764  11.523  65.617  1.00  0.00    -0.267 OA 
HETATM   13  H   UNL     1     -10.925  12.325  65.135  1.00  0.00     0.000 HD 
ENDBRANCH   4   6
ENDBRANCH   3   4
ENDBRANCH   2   3
TORSDOF 3
ENDMDL
MODEL      144
REMARK 921   NORMALIZED FREE ENERGY PREDICTED BY IDOCK:   -2.96 KCAL/MOL
REMARK 922        TOTAL FREE ENERGY PREDICTED BY IDOCK:   -3.93 KCAL/MOL
REMARK 923 INTER-LIGAND FREE ENERGY PREDICTED BY IDOCK:   -3.44 KCAL/MOL
REMARK 924 INTRA-LIGAND FREE ENERGY PREDICTED BY IDOCK:   -0.49 KCAL/MOL
REMARK 927      BINDING AFFINITY PREDICTED BY RF-SCORE:    0.00 PKD
ROOT
HETATM    1  C   UNL     1     -12.497   9.415  71.766  1.00  0.00    -0.471 C  
HETATM    2  C   UNL     1     -12.357   8.000  71.227  1.00  0.00    -0.271 C  
ENDROOT
BRANCH   2   3
HETATM    3  O   UNL     1     -10.960   7.717  71.082  1.00  0.00    -0.240 OA 
BRANCH   3   4
HETATM    4  C   UNL     1     -10.646   6.890  70.049  1.00  0.00    -0.226 C  
HETATM    5  O   UNL     1     -10.874   5.692  70.006  1.00  0.00    -0.325 OA 
BRANCH   4   6
HETATM    6  C   UNL     1     -10.135   7.706  68.917  1.00  0.00    -0.202 A  
HETATM    7  C   UNL     1      -9.170   8.702  69.164  1.00  0.00    -0.152 A  
HETATM    8  C   UNL     1      -8.774   9.575  68.150  1.00  0.00    -0.120 A  
HETATM    9  C   UNL     1      -9.337   9.462  66.881  1.00  0.00    -0.188 A  
HETATM   10  C   UNL     1     -10.285   8.470  66.620  1.00  0.00    -0.345 A  
HETATM   11  C   UNL     1     -10.682   7.597  67.634  1.00  0.00    -0.175 A  
HETATM   12  O   UNL     1     -11.598   6.624  67.349  1.00  0.00    -0.727 OA 
HETATM   13  H   UNL     1     -11.969   6.550  66.478  1.00  0.00     0.000 HD 
ENDBRANCH   4   6
ENDBRANCH   3   4
ENDBRANCH   2   3
TORSDOF 3
ENDMDL
MODEL      145
REMARK 921   NORMALIZED FREE ENERGY PREDICTED BY IDOCK:   -2.95 KCAL/MOL
REMARK 922        TOTAL FREE ENERGY PREDICTED BY IDOCK:   -3.92 KCAL/MOL
REMARK 923 INTER-LIGAND FREE ENERGY PREDICTED BY IDOCK:   -3.48 KCAL/MOL
REMARK 924 INTRA-LIGAND FREE ENERGY PREDICTED BY IDOCK:   -0.44 KCAL/MOL
REMARK 927      BINDING AFFINITY PREDICTED BY RF-SCORE:    0.00 PKD
ROOT
HETATM    1  C   UNL     1      -7.394  13.684  67.964  1.00  0.00    -0.131 C  
HETATM    2  C   UNL     1      -7.359  12.206  67.608  1.00  0.00    -0.122 C  
ENDROOT
BRANCH   2   3
HETATM    3  O   UNL     1      -8.408  11.952  66.665  1.00  0.00    -0.176 OA 
BRANCH   3   4
HETATM    4  C   UNL     1      -9.640  11.771  67.212  1.00  0.00    -0.176 C  
HETATM    5  O   UNL     1      -9.862  11.309  68.319  1.00  0.00    -0.182 OA 
BRANCH   4   6
HETATM    6  C   UNL     1     -10.658  12.378  66.315  1.00  0.00    -0.277 A  
HETATM    7  C   UNL     1     -10.540  12.210  64.922  1.00  0.00    -0.332 A  
HETATM    8  C   UNL     1     -11.399  12.880  64.050  1.00  0.00    -0.466 A  
HETATM    9  C   UNL     1     -12.382  13.725  64.561  1.00  0.00    -0.399 A  
HETATM   10  C   UNL     1     -12.518  13.889  65.941  1.00  0.00    -0.519 A  
HETATM   11  C   UNL     1     -11.659  13.218  66.814  1.00  0.00    -0.365 A  
HETATM   12  O   UNL     1     -11.823  13.383  68.160  1.00  0.00    -0.339 OA 
HETATM   13  H   UNL     1     -12.503  13.954  68.498  1.00  0.00     0.000 HD 
ENDBRANCH   4   6
ENDBRANCH   3   4
ENDBRANCH   2   3
TORSDOF 3
ENDMDL
MODEL      146
REMARK 921   NORMALIZED FREE ENERGY PREDICTED BY IDOCK:   -2.94 KCAL/MOL
REMARK 922        TOTAL FREE ENERGY PREDICTED BY IDOCK:   -3.91 KCAL/MOL
REMARK 923 INTER-LIGAND FREE ENERGY PREDICTED BY IDOCK:   -3.54 KCAL/MOL
REMARK 924 INTRA-LIGAND FREE ENERGY PREDICTED BY IDOCK:   -0.37 KCAL/MOL
REMARK 927      BINDING AFFINITY PREDICTED BY RF-SCORE:    0.00 PKD
ROOT
HETATM    1  C   UNL     1     -12.619  12.273  63.537  1.00  0.00    -0.589 C  
HETATM    2  C   UNL     1     -11.443  11.774  64.362  1.00  0.00    -0.273 C  
ENDROOT
BRANCH   2   3
HETATM    3  O   UNL     1     -10.960  12.868  65.152  1.00  0.00    -0.280 OA 
BRANCH   3   4
HETATM    4  C   UNL     1     -11.053  12.689  66.497  1.00  0.00    -0.280 C  
HETATM    5  O   UNL     1     -11.913  13.168  67.218  1.00  0.00    -0.370 OA 
BRANCH   4   6
HETATM    6  C   UNL     1     -10.042  11.685  66.920  1.00  0.00    -0.238 A  
HETATM    7  C   UNL     1      -8.696  11.861  66.545  1.00  0.00    -0.158 A  
HETATM    8  C   UNL     1      -7.749  10.869  66.807  1.00  0.00    -0.141 A  
HETATM    9  C   UNL     1      -8.138   9.694  67.444  1.00  0.00    -0.110 A  
HETATM   10  C   UNL     1      -9.467   9.513  67.833  1.00  0.00    -0.149 A  
HETATM   11  C   UNL     1     -10.414  10.504  67.572  1.00  0.00    -0.239 A  
HETATM   12  O   UNL     1     -11.704  10.311  67.977  1.00  0.00    -0.712 OA 
HETATM   13  H   UNL     1     -11.957   9.510  68.419  1.00  0.00     0.000 HD 
ENDBRANCH   4   6
ENDBRANCH   3   4
ENDBRANCH   2   3
TORSDOF 3
ENDMDL
MODEL      147
REMARK 921   NORMALIZED FREE ENERGY PREDICTED BY IDOCK:   -2.94 KCAL/MOL
REMARK 922        TOTAL FREE ENERGY PREDICTED BY IDOCK:   -3.90 KCAL/MOL
REMARK 923 INTER-LIGAND FREE ENERGY PREDICTED BY IDOCK:   -3.50 KCAL/MOL
REMARK 924 INTRA-LIGAND FREE ENERGY PREDICTED BY IDOCK:   -0.40 KCAL/MOL
REMARK 927      BINDING AFFINITY PREDICTED BY RF-SCORE:    0.00 PKD
ROOT
HETATM    1  C   UNL     1     -12.954  13.806  65.093  1.00  0.00    -0.279 C  
HETATM    2  C   UNL     1     -11.689  13.338  64.389  1.00  0.00    -0.388 C  
ENDROOT
BRANCH   2   3
HETATM    3  O   UNL     1     -11.369  12.029  64.879  1.00  0.00    -0.319 OA 
BRANCH   3   4
HETATM    4  C   UNL     1     -10.282  11.973  65.695  1.00  0.00    -0.252 C  
HETATM    5  O   UNL     1      -9.468  12.867  65.854  1.00  0.00    -0.179 OA 
BRANCH   4   6
HETATM    6  C   UNL     1     -10.340  10.715  66.486  1.00  0.00    -0.299 A  
HETATM    7  C   UNL     1     -10.626  10.778  67.863  1.00  0.00    -0.258 A  
HETATM    8  C   UNL     1     -10.552   9.633  68.657  1.00  0.00    -0.246 A  
HETATM    9  C   UNL     1     -10.189   8.417  68.084  1.00  0.00    -0.253 A  
HETATM   10  C   UNL     1      -9.916   8.339  66.717  1.00  0.00    -0.355 A  
HETATM   11  C   UNL     1      -9.991   9.484  65.922  1.00  0.00    -0.272 A  
HETATM   12  O   UNL     1      -9.734   9.378  64.584  1.00  0.00    -0.404 OA 
HETATM   13  H   UNL     1      -9.498   8.542  64.202  1.00  0.00     0.000 HD 
ENDBRANCH   4   6
ENDBRANCH   3   4
ENDBRANCH   2   3
TORSDOF 3
ENDMDL
MODEL      148
REMARK 921   NORMALIZED FREE ENERGY PREDICTED BY IDOCK:   -2.93 KCAL/MOL
REMARK 922        TOTAL FREE ENERGY PREDICTED BY IDOCK:   -3.90 KCAL/MOL
REMARK 923 INTER-LIGAND FREE ENERGY PREDICTED BY IDOCK:   -3.91 KCAL/MOL
REMARK 924 INTRA-LIGAND FREE ENERGY PREDICTED BY IDOCK:    0.01 KCAL/MOL
REMARK 927      BINDING AFFINITY PREDICTED BY RF-SCORE:    0.00 PKD
ROOT
HETATM    1  C   UNL     1      -7.856  12.351  67.778  1.00  0.00    -0.154 C  
HETATM    2  C   UNL     1      -9.089  13.044  67.219  1.00  0.00    -0.209 C  
ENDROOT
BRANCH   2   3
HETATM    3  O   UNL     1     -10.105  12.052  67.027  1.00  0.00    -0.202 OA 
BRANCH   3   4
HETATM    4  C   UNL     1     -11.363  12.543  66.861  1.00  0.00    -0.326 C  
HETATM    5  O   UNL     1     -12.195  12.110  66.081  1.00  0.00    -0.611 OA 
BRANCH   4   6
HETATM    6  C   UNL     1     -11.614  13.580  67.896  1.00  0.00    -0.377 A  
HETATM    7  C   UNL     1     -11.617  14.939  67.526  1.00  0.00    -0.355 A  
HETATM    8  C   UNL     1     -11.713  15.939  68.494  1.00  0.00    -0.297 A  
HETATM    9  C   UNL     1     -11.805  15.592  69.840  1.00  0.00    -0.374 A  
HETATM   10  C   UNL     1     -11.817  14.248  70.219  1.00  0.00    -0.377 A  
HETATM   11  C   UNL     1     -11.722  13.247  69.250  1.00  0.00    -0.326 A  
HETATM   12  O   UNL     1     -11.752  11.940  69.645  1.00  0.00    -0.304 OA 
HETATM   13  H   UNL     1     -11.825  11.714  70.564  1.00  0.00     0.000 HD 
ENDBRANCH   4   6
ENDBRANCH   3   4
ENDBRANCH   2   3
TORSDOF 3
ENDMDL
MODEL      149
REMARK 921   NORMALIZED FREE ENERGY PREDICTED BY IDOCK:   -2.92 KCAL/MOL
REMARK 922        TOTAL FREE ENERGY PREDICTED BY IDOCK:   -3.89 KCAL/MOL
REMARK 923 INTER-LIGAND FREE ENERGY PREDICTED BY IDOCK:   -3.76 KCAL/MOL
REMARK 924 INTRA-LIGAND FREE ENERGY PREDICTED BY IDOCK:   -0.13 KCAL/MOL
REMARK 927      BINDING AFFINITY PREDICTED BY RF-SCORE:    0.00 PKD
ROOT
HETATM    1  C   UNL     1      -5.231  18.989  70.703  1.00  0.00    -0.234 C  
HETATM    2  C   UNL     1      -6.342  19.725  69.971  1.00  0.00    -0.323 C  
ENDROOT
BRANCH   2   3
HETATM    3  O   UNL     1      -6.464  19.155  68.662  1.00  0.00    -0.240 OA 
BRANCH   3   4
HETATM    4  C   UNL     1      -7.357  18.133  68.563  1.00  0.00    -0.278 C  
HETATM    5  O   UNL     1      -7.255  17.049  69.113  1.00  0.00    -0.245 OA 
BRANCH   4   6
HETATM    6  C   UNL     1      -8.550  18.607  67.815  1.00  0.00    -0.294 A  
HETATM    7  C   UNL     1      -8.593  19.937  67.353  1.00  0.00    -0.392 A  
HETATM    8  C   UNL     1      -9.752  20.450  66.771  1.00  0.00    -0.528 A  
HETATM    9  C   UNL     1     -10.879  19.642  66.645  1.00  0.00    -0.472 A  
HETATM   10  C   UNL     1     -10.845  18.317  67.086  1.00  0.00    -0.239 A  
HETATM   11  C   UNL     1      -9.686  17.803  67.669  1.00  0.00    -0.282 A  
HETATM   12  O   UNL     1      -9.672  16.499  68.077  1.00  0.00    -0.230 OA 
HETATM   13  H   UNL     1     -10.443  15.954  67.978  1.00  0.00     0.000 HD 
ENDBRANCH   4   6
ENDBRANCH   3   4
ENDBRANCH   2   3
TORSDOF 3
ENDMDL
MODEL      150
REMARK 921   NORMALIZED FREE ENERGY PREDICTED BY IDOCK:   -2.91 KCAL/MOL
REMARK 922        TOTAL FREE ENERGY PREDICTED BY IDOCK:   -3.87 KCAL/MOL
REMARK 923 INTER-LIGAND FREE ENERGY PREDICTED BY IDOCK:   -3.51 KCAL/MOL
REMARK 924 INTRA-LIGAND FREE ENERGY PREDICTED BY IDOCK:   -0.36 KCAL/MOL
REMARK 927      BINDING AFFINITY PREDICTED BY RF-SCORE:    0.00 PKD
ROOT
HETATM    1  C   UNL     1     -13.105  11.031  71.733  1.00  0.00    -0.554 C  
HETATM    2  C   UNL     1     -12.162  10.108  70.977  1.00  0.00    -0.374 C  
ENDROOT
BRANCH   2   3
HETATM    3  O   UNL     1     -12.542   8.756  71.265  1.00  0.00    -0.306 OA 
BRANCH   3   4
HETATM    4  C   UNL     1     -11.626   8.042  71.974  1.00  0.00    -0.316 C  
HETATM    5  O   UNL     1     -11.625   7.898  73.185  1.00  0.00    -0.292 OA 
BRANCH   4   6
HETATM    6  C   UNL     1     -10.729   7.332  71.025  1.00  0.00    -0.247 A  
HETATM    7  C   UNL     1     -11.228   6.241  70.288  1.00  0.00    -0.455 A  
HETATM    8  C   UNL     1     -10.377   5.471  69.495  1.00  0.00    -0.357 A  
HETATM    9  C   UNL     1      -9.021   5.782  69.431  1.00  0.00    -0.121 A  
HETATM   10  C   UNL     1      -8.517   6.870  70.146  1.00  0.00    -0.140 A  
HETATM   11  C   UNL     1      -9.368   7.641  70.939  1.00  0.00    -0.157 A  
HETATM   12  O   UNL     1      -8.853   8.710  71.616  1.00  0.00    -0.190 OA 
HETATM   13  H   UNL     1      -7.929   8.920  71.558  1.00  0.00     0.000 HD 
ENDBRANCH   4   6
ENDBRANCH   3   4
ENDBRANCH   2   3
TORSDOF 3
ENDMDL
MODEL      151
REMARK 921   NORMALIZED FREE ENERGY PREDICTED BY IDOCK:   -2.89 KCAL/MOL
REMARK 922        TOTAL FREE ENERGY PREDICTED BY IDOCK:   -3.85 KCAL/MOL
REMARK 923 INTER-LIGAND FREE ENERGY PREDICTED BY IDOCK:   -3.46 KCAL/MOL
REMARK 924 INTRA-LIGAND FREE ENERGY PREDICTED BY IDOCK:   -0.39 KCAL/MOL
REMARK 927      BINDING AFFINITY PREDICTED BY RF-SCORE:    0.00 PKD
ROOT
HETATM    1  C   UNL     1     -11.453  15.983  69.343  1.00  0.00    -0.336 C  
HETATM    2  C   UNL     1     -11.639  15.284  68.005  1.00  0.00    -0.312 C  
ENDROOT
BRANCH   2   3
HETATM    3  O   UNL     1     -11.050  13.981  68.100  1.00  0.00    -0.246 OA 
BRANCH   3   4
HETATM    4  C   UNL     1     -11.454  13.097  67.148  1.00  0.00    -0.334 C  
HETATM    5  O   UNL     1     -11.779  13.385  66.008  1.00  0.00    -0.333 OA 
BRANCH   4   6
HETATM    6  C   UNL     1     -11.277  11.716  67.666  1.00  0.00    -0.345 A  
HETATM    7  C   UNL     1     -11.433  11.470  69.044  1.00  0.00    -0.355 A  
HETATM    8  C   UNL     1     -11.139  10.215  69.580  1.00  0.00    -0.295 A  
HETATM    9  C   UNL     1     -10.685   9.197  68.746  1.00  0.00    -0.162 A  
HETATM   10  C   UNL     1     -10.539   9.424  67.376  1.00  0.00    -0.326 A  
HETATM   11  C   UNL     1     -10.834  10.678  66.839  1.00  0.00    -0.205 A  
HETATM   12  O   UNL     1     -10.699  10.871  65.494  1.00  0.00    -0.211 OA 
HETATM   13  H   UNL     1     -10.398  10.166  64.932  1.00  0.00     0.000 HD 
ENDBRANCH   4   6
ENDBRANCH   3   4
ENDBRANCH   2   3
TORSDOF 3
ENDMDL
MODEL      152
REMARK 921   NORMALIZED FREE ENERGY PREDICTED BY IDOCK:   -2.89 KCAL/MOL
REMARK 922        TOTAL FREE ENERGY PREDICTED BY IDOCK:   -3.85 KCAL/MOL
REMARK 923 INTER-LIGAND FREE ENERGY PREDICTED BY IDOCK:   -3.45 KCAL/MOL
REMARK 924 INTRA-LIGAND FREE ENERGY PREDICTED BY IDOCK:   -0.40 KCAL/MOL
REMARK 927      BINDING AFFINITY PREDICTED BY RF-SCORE:    0.00 PKD
ROOT
HETATM    1  C   UNL     1     -10.204  19.616  68.074  1.00  0.00    -0.579 C  
HETATM    2  C   UNL     1     -10.328  18.117  68.299  1.00  0.00    -0.363 C  
ENDROOT
BRANCH   2   3
HETATM    3  O   UNL     1     -10.453  17.486  67.018  1.00  0.00    -0.328 OA 
BRANCH   3   4
HETATM    4  C   UNL     1      -9.277  17.097  66.454  1.00  0.00    -0.258 C  
HETATM    5  O   UNL     1      -8.536  17.811  65.799  1.00  0.00    -0.519 OA 
BRANCH   4   6
HETATM    6  C   UNL     1      -8.963  15.715  66.903  1.00  0.00    -0.267 A  
HETATM    7  C   UNL     1      -9.980  14.741  66.903  1.00  0.00    -0.246 A  
HETATM    8  C   UNL     1      -9.752  13.476  67.446  1.00  0.00    -0.229 A  
HETATM    9  C   UNL     1      -8.509  13.173  67.995  1.00  0.00    -0.181 A  
HETATM   10  C   UNL     1      -7.488  14.125  67.988  1.00  0.00    -0.141 A  
HETATM   11  C   UNL     1      -7.715  15.391  67.444  1.00  0.00    -0.196 A  
HETATM   12  O   UNL     1      -6.695  16.300  67.434  1.00  0.00    -0.144 OA 
HETATM   13  H   UNL     1      -5.848  16.080  67.802  1.00  0.00     0.000 HD 
ENDBRANCH   4   6
ENDBRANCH   3   4
ENDBRANCH   2   3
TORSDOF 3
ENDMDL
MODEL      153
REMARK 921   NORMALIZED FREE ENERGY PREDICTED BY IDOCK:   -2.89 KCAL/MOL
REMARK 922        TOTAL FREE ENERGY PREDICTED BY IDOCK:   -3.84 KCAL/MOL
REMARK 923 INTER-LIGAND FREE ENERGY PREDICTED BY IDOCK:   -3.41 KCAL/MOL
REMARK 924 INTRA-LIGAND FREE ENERGY PREDICTED BY IDOCK:   -0.44 KCAL/MOL
REMARK 927      BINDING AFFINITY PREDICTED BY RF-SCORE:    0.00 PKD
ROOT
HETATM    1  C   UNL     1      -6.863  11.443  69.601  1.00  0.00    -0.068 C  
HETATM    2  C   UNL     1      -7.655  11.010  68.377  1.00  0.00    -0.108 C  
ENDROOT
BRANCH   2   3
HETATM    3  O   UNL     1      -8.838  10.338  68.830  1.00  0.00    -0.132 OA 
BRANCH   3   4
HETATM    4  C   UNL     1      -9.996  11.027  68.641  1.00  0.00    -0.199 C  
HETATM    5  O   UNL     1     -10.303  11.631  67.627  1.00  0.00    -0.184 OA 
BRANCH   4   6
HETATM    6  C   UNL     1     -10.894  10.785  69.801  1.00  0.00    -0.284 A  
HETATM    7  C   UNL     1     -10.808   9.565  70.499  1.00  0.00    -0.352 A  
HETATM    8  C   UNL     1     -11.727   9.253  71.501  1.00  0.00    -0.450 A  
HETATM    9  C   UNL     1     -12.740  10.156  71.815  1.00  0.00    -0.534 A  
HETATM   10  C   UNL     1     -12.827  11.375  71.141  1.00  0.00    -0.440 A  
HETATM   11  C   UNL     1     -11.908  11.688  70.138  1.00  0.00    -0.344 A  
HETATM   12  O   UNL     1     -12.005  12.894  69.503  1.00  0.00    -0.312 OA 
HETATM   13  H   UNL     1     -12.694  13.506  69.732  1.00  0.00     0.000 HD 
ENDBRANCH   4   6
ENDBRANCH   3   4
ENDBRANCH   2   3
TORSDOF 3
ENDMDL
MODEL      154
REMARK 921   NORMALIZED FREE ENERGY PREDICTED BY IDOCK:   -2.87 KCAL/MOL
REMARK 922        TOTAL FREE ENERGY PREDICTED BY IDOCK:   -3.83 KCAL/MOL
REMARK 923 INTER-LIGAND FREE ENERGY PREDICTED BY IDOCK:   -3.40 KCAL/MOL
REMARK 924 INTRA-LIGAND FREE ENERGY PREDICTED BY IDOCK:   -0.43 KCAL/MOL
REMARK 927      BINDING AFFINITY PREDICTED BY RF-SCORE:    0.00 PKD
ROOT
HETATM    1  C   UNL     1     -10.699   5.607  66.800  1.00  0.00    -0.358 C  
HETATM    2  C   UNL     1     -10.371   5.526  68.282  1.00  0.00    -0.173 C  
ENDROOT
BRANCH   2   3
HETATM    3  O   UNL     1     -11.321   6.331  68.991  1.00  0.00    -0.390 OA 
BRANCH   3   4
HETATM    4  C   UNL     1     -10.830   6.961  70.093  1.00  0.00    -0.263 C  
HETATM    5  O   UNL     1     -10.089   6.461  70.923  1.00  0.00    -0.184 OA 
BRANCH   4   6
HETATM    6  C   UNL     1     -11.205   8.398  70.032  1.00  0.00    -0.085 A  
HETATM    7  C   UNL     1     -10.885   9.148  68.885  1.00  0.00    -0.099 A  
HETATM    8  C   UNL     1     -11.100  10.526  68.853  1.00  0.00    -0.312 A  
HETATM    9  C   UNL     1     -11.635  11.168  69.968  1.00  0.00    -0.421 A  
HETATM   10  C   UNL     1     -11.969  10.434  71.107  1.00  0.00    -0.460 A  
HETATM   11  C   UNL     1     -11.755   9.055  71.139  1.00  0.00    -0.302 A  
HETATM   12  O   UNL     1     -12.106   8.356  72.259  1.00  0.00    -0.352 OA 
HETATM   13  H   UNL     1     -12.479   8.802  73.010  1.00  0.00     0.000 HD 
ENDBRANCH   4   6
ENDBRANCH   3   4
ENDBRANCH   2   3
TORSDOF 3
ENDMDL
MODEL      155
REMARK 921   NORMALIZED FREE ENERGY PREDICTED BY IDOCK:   -2.87 KCAL/MOL
REMARK 922        TOTAL FREE ENERGY PREDICTED BY IDOCK:   -3.82 KCAL/MOL
REMARK 923 INTER-LIGAND FREE ENERGY PREDICTED BY IDOCK:   -3.46 KCAL/MOL
REMARK 924 INTRA-LIGAND FREE ENERGY PREDICTED BY IDOCK:   -0.37 KCAL/MOL
REMARK 927      BINDING AFFINITY PREDICTED BY RF-SCORE:    0.00 PKD
ROOT
HETATM    1  C   UNL     1      -6.951  10.011  70.226  1.00  0.00    -0.153 C  
HETATM    2  C   UNL     1      -8.428   9.655  70.170  1.00  0.00    -0.204 C  
ENDROOT
BRANCH   2   3
HETATM    3  O   UNL     1      -8.820   9.186  71.466  1.00  0.00    -0.330 OA 
BRANCH   3   4
HETATM    4  C   UNL     1     -10.161   9.036  71.640  1.00  0.00    -0.348 C  
HETATM    5  O   UNL     1     -11.017   9.811  71.248  1.00  0.00    -0.351 OA 
BRANCH   4   6
HETATM    6  C   UNL     1     -10.422   7.699  72.234  1.00  0.00    -0.289 A  
HETATM    7  C   UNL     1     -11.274   6.799  71.564  1.00  0.00    -0.300 A  
HETATM    8  C   UNL     1     -11.647   5.595  72.161  1.00  0.00    -0.202 A  
HETATM    9  C   UNL     1     -11.175   5.278  73.433  1.00  0.00    -0.314 A  
HETATM   10  C   UNL     1     -10.319   6.154  74.102  1.00  0.00    -0.308 A  
HETATM   11  C   UNL     1      -9.945   7.360  73.505  1.00  0.00    -0.326 A  
HETATM   12  O   UNL     1      -9.093   8.193  74.173  1.00  0.00    -0.331 OA 
HETATM   13  H   UNL     1      -8.769   7.963  75.036  1.00  0.00     0.000 HD 
ENDBRANCH   4   6
ENDBRANCH   3   4
ENDBRANCH   2   3
TORSDOF 3
ENDMDL
MODEL      156
REMARK 921   NORMALIZED FREE ENERGY PREDICTED BY IDOCK:   -2.86 KCAL/MOL
REMARK 922        TOTAL FREE ENERGY PREDICTED BY IDOCK:   -3.82 KCAL/MOL
REMARK 923 INTER-LIGAND FREE ENERGY PREDICTED BY IDOCK:   -3.47 KCAL/MOL
REMARK 924 INTRA-LIGAND FREE ENERGY PREDICTED BY IDOCK:   -0.34 KCAL/MOL
REMARK 927      BINDING AFFINITY PREDICTED BY RF-SCORE:    0.00 PKD
ROOT
HETATM    1  C   UNL     1      -5.641  20.357  68.517  1.00  0.00    -0.305 C  
HETATM    2  C   UNL     1      -6.881  19.675  69.074  1.00  0.00    -0.343 C  
ENDROOT
BRANCH   2   3
HETATM    3  O   UNL     1      -7.184  18.553  68.234  1.00  0.00    -0.247 OA 
BRANCH   3   4
HETATM    4  C   UNL     1      -7.236  17.354  68.875  1.00  0.00    -0.250 C  
HETATM    5  O   UNL     1      -6.377  16.913  69.620  1.00  0.00    -0.225 OA 
BRANCH   4   6
HETATM    6  C   UNL     1      -8.575  16.748  68.654  1.00  0.00    -0.263 A  
HETATM    7  C   UNL     1      -9.588  17.514  68.046  1.00  0.00    -0.282 A  
HETATM    8  C   UNL     1     -10.890  17.022  67.950  1.00  0.00    -0.302 A  
HETATM    9  C   UNL     1     -11.193  15.763  68.462  1.00  0.00    -0.354 A  
HETATM   10  C   UNL     1     -10.194  14.988  69.055  1.00  0.00    -0.242 A  
HETATM   11  C   UNL     1      -8.891  15.479  69.151  1.00  0.00    -0.253 A  
HETATM   12  O   UNL     1      -7.928  14.695  69.721  1.00  0.00    -0.406 OA 
HETATM   13  H   UNL     1      -8.144  13.834  70.058  1.00  0.00     0.000 HD 
ENDBRANCH   4   6
ENDBRANCH   3   4
ENDBRANCH   2   3
TORSDOF 3
ENDMDL
MODEL      157
REMARK 921   NORMALIZED FREE ENERGY PREDICTED BY IDOCK:   -2.86 KCAL/MOL
REMARK 922        TOTAL FREE ENERGY PREDICTED BY IDOCK:   -3.81 KCAL/MOL
REMARK 923 INTER-LIGAND FREE ENERGY PREDICTED BY IDOCK:   -3.41 KCAL/MOL
REMARK 924 INTRA-LIGAND FREE ENERGY PREDICTED BY IDOCK:   -0.40 KCAL/MOL
REMARK 927      BINDING AFFINITY PREDICTED BY RF-SCORE:    0.00 PKD
ROOT
HETATM    1  C   UNL     1     -11.946  14.623  70.780  1.00  0.00    -0.380 C  
HETATM    2  C   UNL     1     -11.113  14.404  69.526  1.00  0.00    -0.231 C  
ENDROOT
BRANCH   2   3
HETATM    3  O   UNL     1     -11.301  15.535  68.666  1.00  0.00    -0.303 OA 
BRANCH   3   4
HETATM    4  C   UNL     1     -10.712  15.430  67.444  1.00  0.00    -0.296 C  
HETATM    5  O   UNL     1     -11.080  14.696  66.542  1.00  0.00    -0.317 OA 
BRANCH   4   6
HETATM    6  C   UNL     1      -9.657  16.470  67.328  1.00  0.00    -0.242 A  
HETATM    7  C   UNL     1      -9.936  17.786  67.743  1.00  0.00    -0.322 A  
HETATM    8  C   UNL     1      -9.016  18.812  67.520  1.00  0.00    -0.291 A  
HETATM    9  C   UNL     1      -7.811  18.533  66.880  1.00  0.00    -0.245 A  
HETATM   10  C   UNL     1      -7.517  17.229  66.476  1.00  0.00    -0.315 A  
HETATM   11  C   UNL     1      -8.436  16.203  66.699  1.00  0.00    -0.280 A  
HETATM   12  O   UNL     1      -8.118  14.933  66.310  1.00  0.00    -0.190 OA 
HETATM   13  H   UNL     1      -7.289  14.751  65.883  1.00  0.00     0.000 HD 
ENDBRANCH   4   6
ENDBRANCH   3   4
ENDBRANCH   2   3
TORSDOF 3
ENDMDL
MODEL      158
REMARK 921   NORMALIZED FREE ENERGY PREDICTED BY IDOCK:   -2.86 KCAL/MOL
REMARK 922        TOTAL FREE ENERGY PREDICTED BY IDOCK:   -3.81 KCAL/MOL
REMARK 923 INTER-LIGAND FREE ENERGY PREDICTED BY IDOCK:   -3.37 KCAL/MOL
REMARK 924 INTRA-LIGAND FREE ENERGY PREDICTED BY IDOCK:   -0.44 KCAL/MOL
REMARK 927      BINDING AFFINITY PREDICTED BY RF-SCORE:    0.00 PKD
ROOT
HETATM    1  C   UNL     1      -8.073  11.331  68.097  1.00  0.00    -0.134 C  
HETATM    2  C   UNL     1      -8.846  11.121  66.804  1.00  0.00    -0.161 C  
ENDROOT
BRANCH   2   3
HETATM    3  O   UNL     1      -9.221  12.409  66.298  1.00  0.00    -0.219 OA 
BRANCH   3   4
HETATM    4  C   UNL     1     -10.392  12.898  66.788  1.00  0.00    -0.245 C  
HETATM    5  O   UNL     1     -11.355  12.229  67.120  1.00  0.00    -0.293 OA 
BRANCH   4   6
HETATM    6  C   UNL     1     -10.246  14.361  67.010  1.00  0.00    -0.263 A  
HETATM    7  C   UNL     1      -9.026  14.989  66.694  1.00  0.00    -0.313 A  
HETATM    8  C   UNL     1      -8.812  16.329  67.018  1.00  0.00    -0.228 A  
HETATM    9  C   UNL     1      -9.813  17.054  67.661  1.00  0.00    -0.257 A  
HETATM   10  C   UNL     1     -11.032  16.446  67.967  1.00  0.00    -0.327 A  
HETATM   11  C   UNL     1     -11.247  15.105  67.643  1.00  0.00    -0.327 A  
HETATM   12  O   UNL     1     -12.454  14.538  67.938  1.00  0.00    -0.599 OA 
HETATM   13  H   UNL     1     -13.134  15.044  68.368  1.00  0.00     0.000 HD 
ENDBRANCH   4   6
ENDBRANCH   3   4
ENDBRANCH   2   3
TORSDOF 3
ENDMDL
MODEL      159
REMARK 921   NORMALIZED FREE ENERGY PREDICTED BY IDOCK:   -2.84 KCAL/MOL
REMARK 922        TOTAL FREE ENERGY PREDICTED BY IDOCK:   -3.79 KCAL/MOL
REMARK 923 INTER-LIGAND FREE ENERGY PREDICTED BY IDOCK:   -3.33 KCAL/MOL
REMARK 924 INTRA-LIGAND FREE ENERGY PREDICTED BY IDOCK:   -0.46 KCAL/MOL
REMARK 927      BINDING AFFINITY PREDICTED BY RF-SCORE:    0.00 PKD
ROOT
HETATM    1  C   UNL     1     -11.797  13.060  67.474  1.00  0.00    -0.408 C  
HETATM    2  C   UNL     1     -11.774  12.593  68.921  1.00  0.00    -0.325 C  
ENDROOT
BRANCH   2   3
HETATM    3  O   UNL     1     -10.788  11.559  69.037  1.00  0.00    -0.207 OA 
BRANCH   3   4
HETATM    4  C   UNL     1     -11.209  10.435  69.677  1.00  0.00    -0.277 C  
HETATM    5  O   UNL     1     -11.938  10.407  70.654  1.00  0.00    -0.294 OA 
BRANCH   4   6
HETATM    6  C   UNL     1     -10.776   9.247  68.896  1.00  0.00    -0.182 A  
HETATM    7  C   UNL     1     -10.556   9.373  67.511  1.00  0.00    -0.333 A  
HETATM    8  C   UNL     1     -10.284   8.250  66.729  1.00  0.00    -0.375 A  
HETATM    9  C   UNL     1     -10.230   6.991  67.322  1.00  0.00    -0.301 A  
HETATM   10  C   UNL     1     -10.431   6.854  68.697  1.00  0.00    -0.217 A  
HETATM   11  C   UNL     1     -10.704   7.977  69.480  1.00  0.00    -0.181 A  
HETATM   12  O   UNL     1     -10.881   7.820  70.825  1.00  0.00    -0.230 OA 
HETATM   13  H   UNL     1     -10.832   6.958  71.221  1.00  0.00     0.000 HD 
ENDBRANCH   4   6
ENDBRANCH   3   4
ENDBRANCH   2   3
TORSDOF 3
ENDMDL
MODEL      160
REMARK 921   NORMALIZED FREE ENERGY PREDICTED BY IDOCK:   -2.84 KCAL/MOL
REMARK 922        TOTAL FREE ENERGY PREDICTED BY IDOCK:   -3.79 KCAL/MOL
REMARK 923 INTER-LIGAND FREE ENERGY PREDICTED BY IDOCK:   -3.34 KCAL/MOL
REMARK 924 INTRA-LIGAND FREE ENERGY PREDICTED BY IDOCK:   -0.45 KCAL/MOL
REMARK 927      BINDING AFFINITY PREDICTED BY RF-SCORE:    0.00 PKD
ROOT
HETATM    1  C   UNL     1      -7.229  10.841  68.947  1.00  0.00    -0.088 C  
HETATM    2  C   UNL     1      -8.251   9.763  69.271  1.00  0.00    -0.132 C  
ENDROOT
BRANCH   2   3
HETATM    3  O   UNL     1      -9.422  10.405  69.790  1.00  0.00    -0.154 OA 
BRANCH   3   4
HETATM    4  C   UNL     1     -10.602   9.898  69.339  1.00  0.00    -0.229 C  
HETATM    5  O   UNL     1     -11.126  10.168  68.272  1.00  0.00    -0.260 OA 
BRANCH   4   6
HETATM    6  C   UNL     1     -11.060   8.840  70.277  1.00  0.00    -0.240 A  
HETATM    7  C   UNL     1     -11.284   9.165  71.629  1.00  0.00    -0.447 A  
HETATM    8  C   UNL     1     -11.581   8.169  72.560  1.00  0.00    -0.468 A  
HETATM    9  C   UNL     1     -11.656   6.840  72.150  1.00  0.00    -0.324 A  
HETATM   10  C   UNL     1     -11.450   6.506  70.810  1.00  0.00    -0.419 A  
HETATM   11  C   UNL     1     -11.153   7.502  69.878  1.00  0.00    -0.171 A  
HETATM   12  O   UNL     1     -10.973   7.153  68.570  1.00  0.00    -0.410 OA 
HETATM   13  H   UNL     1     -11.036   6.244  68.299  1.00  0.00     0.000 HD 
ENDBRANCH   4   6
ENDBRANCH   3   4
ENDBRANCH   2   3
TORSDOF 3
ENDMDL
MODEL      161
REMARK 921   NORMALIZED FREE ENERGY PREDICTED BY IDOCK:   -2.82 KCAL/MOL
REMARK 922        TOTAL FREE ENERGY PREDICTED BY IDOCK:   -3.76 KCAL/MOL
REMARK 923 INTER-LIGAND FREE ENERGY PREDICTED BY IDOCK:   -3.40 KCAL/MOL
REMARK 924 INTRA-LIGAND FREE ENERGY PREDICTED BY IDOCK:   -0.36 KCAL/MOL
REMARK 927      BINDING AFFINITY PREDICTED BY RF-SCORE:    0.00 PKD
ROOT
HETATM    1  C   UNL     1      -7.192   8.093  68.369  1.00  0.00    -0.093 C  
HETATM    2  C   UNL     1      -8.042   8.787  67.316  1.00  0.00    -0.101 C  
ENDROOT
BRANCH   2   3
HETATM    3  O   UNL     1      -9.322   9.070  67.896  1.00  0.00    -0.140 OA 
BRANCH   3   4
HETATM    4  C   UNL     1      -9.348  10.142  68.732  1.00  0.00    -0.168 C  
HETATM    5  O   UNL     1      -8.918  11.254  68.471  1.00  0.00    -0.161 OA 
BRANCH   4   6
HETATM    6  C   UNL     1     -10.132   9.788  69.944  1.00  0.00    -0.288 A  
HETATM    7  C   UNL     1      -9.483   9.171  71.031  1.00  0.00    -0.344 A  
HETATM    8  C   UNL     1     -10.214   8.703  72.123  1.00  0.00    -0.394 A  
HETATM    9  C   UNL     1     -11.599   8.846  72.140  1.00  0.00    -0.400 A  
HETATM   10  C   UNL     1     -12.253   9.469  71.075  1.00  0.00    -0.385 A  
HETATM   11  C   UNL     1     -11.523   9.937  69.982  1.00  0.00    -0.217 A  
HETATM   12  O   UNL     1     -12.184  10.558  68.960  1.00  0.00    -0.716 OA 
HETATM   13  H   UNL     1     -13.128  10.659  68.986  1.00  0.00     0.000 HD 
ENDBRANCH   4   6
ENDBRANCH   3   4
ENDBRANCH   2   3
TORSDOF 3
ENDMDL
MODEL      162
REMARK 921   NORMALIZED FREE ENERGY PREDICTED BY IDOCK:   -2.81 KCAL/MOL
REMARK 922        TOTAL FREE ENERGY PREDICTED BY IDOCK:   -3.76 KCAL/MOL
REMARK 923 INTER-LIGAND FREE ENERGY PREDICTED BY IDOCK:   -3.30 KCAL/MOL
REMARK 924 INTRA-LIGAND FREE ENERGY PREDICTED BY IDOCK:   -0.46 KCAL/MOL
REMARK 927      BINDING AFFINITY PREDICTED BY RF-SCORE:    0.00 PKD
ROOT
HETATM    1  C   UNL     1     -10.556   5.356  66.673  1.00  0.00    -0.359 C  
HETATM    2  C   UNL     1      -9.358   6.252  66.949  1.00  0.00    -0.136 C  
ENDROOT
BRANCH   2   3
HETATM    3  O   UNL     1      -9.289   6.475  68.363  1.00  0.00    -0.124 OA 
BRANCH   3   4
HETATM    4  C   UNL     1      -9.402   7.775  68.744  1.00  0.00    -0.146 C  
HETATM    5  O   UNL     1      -9.252   8.742  68.016  1.00  0.00    -0.139 OA 
BRANCH   4   6
HETATM    6  C   UNL     1      -9.901   7.824  70.143  1.00  0.00    -0.184 A  
HETATM    7  C   UNL     1      -9.113   8.436  71.137  1.00  0.00    -0.217 A  
HETATM    8  C   UNL     1      -9.489   8.377  72.479  1.00  0.00    -0.360 A  
HETATM    9  C   UNL     1     -10.654   7.705  72.842  1.00  0.00    -0.411 A  
HETATM   10  C   UNL     1     -11.452   7.107  71.865  1.00  0.00    -0.305 A  
HETATM   11  C   UNL     1     -11.076   7.166  70.522  1.00  0.00    -0.271 A  
HETATM   12  O   UNL     1     -11.882   6.587  69.583  1.00  0.00    -0.645 OA 
HETATM   13  H   UNL     1     -12.680   6.140  69.840  1.00  0.00     0.000 HD 
ENDBRANCH   4   6
ENDBRANCH   3   4
ENDBRANCH   2   3
TORSDOF 3
ENDMDL
MODEL      163
REMARK 921   NORMALIZED FREE ENERGY PREDICTED BY IDOCK:   -2.80 KCAL/MOL
REMARK 922        TOTAL FREE ENERGY PREDICTED BY IDOCK:   -3.74 KCAL/MOL
REMARK 923 INTER-LIGAND FREE ENERGY PREDICTED BY IDOCK:   -3.37 KCAL/MOL
REMARK 924 INTRA-LIGAND FREE ENERGY PREDICTED BY IDOCK:   -0.38 KCAL/MOL
REMARK 927      BINDING AFFINITY PREDICTED BY RF-SCORE:    0.00 PKD
ROOT
HETATM    1  C   UNL     1     -11.330  14.833  66.728  1.00  0.00    -0.347 C  
HETATM    2  C   UNL     1     -11.611  14.561  68.198  1.00  0.00    -0.331 C  
ENDROOT
BRANCH   2   3
HETATM    3  O   UNL     1     -12.124  13.228  68.311  1.00  0.00    -0.333 OA 
BRANCH   3   4
HETATM    4  C   UNL     1     -11.782  12.578  69.456  1.00  0.00    -0.309 C  
HETATM    5  O   UNL     1     -12.212  12.831  70.569  1.00  0.00    -0.368 OA 
BRANCH   4   6
HETATM    6  C   UNL     1     -10.934  11.407  69.110  1.00  0.00    -0.289 A  
HETATM    7  C   UNL     1      -9.805  11.591  68.290  1.00  0.00    -0.203 A  
HETATM    8  C   UNL     1      -9.070  10.495  67.835  1.00  0.00    -0.136 A  
HETATM    9  C   UNL     1      -9.457   9.206  68.195  1.00  0.00    -0.155 A  
HETATM   10  C   UNL     1     -10.567   9.011  69.020  1.00  0.00    -0.209 A  
HETATM   11  C   UNL     1     -11.302  10.107  69.475  1.00  0.00    -0.206 A  
HETATM   12  O   UNL     1     -12.374   9.892  70.294  1.00  0.00    -0.479 OA 
HETATM   13  H   UNL     1     -12.623   9.009  70.542  1.00  0.00     0.000 HD 
ENDBRANCH   4   6
ENDBRANCH   3   4
ENDBRANCH   2   3
TORSDOF 3
ENDMDL
MODEL      164
REMARK 921   NORMALIZED FREE ENERGY PREDICTED BY IDOCK:   -2.80 KCAL/MOL
REMARK 922        TOTAL FREE ENERGY PREDICTED BY IDOCK:   -3.74 KCAL/MOL
REMARK 923 INTER-LIGAND FREE ENERGY PREDICTED BY IDOCK:   -3.28 KCAL/MOL
REMARK 924 INTRA-LIGAND FREE ENERGY PREDICTED BY IDOCK:   -0.46 KCAL/MOL
REMARK 927      BINDING AFFINITY PREDICTED BY RF-SCORE:    0.00 PKD
ROOT
HETATM    1  C   UNL     1      -7.384  15.187  69.623  1.00  0.00    -0.191 C  
HETATM    2  C   UNL     1      -7.033  16.084  68.446  1.00  0.00    -0.121 C  
ENDROOT
BRANCH   2   3
HETATM    3  O   UNL     1      -6.816  17.409  68.949  1.00  0.00    -0.219 OA 
BRANCH   3   4
HETATM    4  C   UNL     1      -6.812  18.387  68.004  1.00  0.00    -0.217 C  
HETATM    5  O   UNL     1      -5.860  18.691  67.303  1.00  0.00    -0.154 OA 
BRANCH   4   6
HETATM    6  C   UNL     1      -8.194  18.911  67.846  1.00  0.00    -0.305 A  
HETATM    7  C   UNL     1      -8.830  19.523  68.944  1.00  0.00    -0.297 A  
HETATM    8  C   UNL     1     -10.171  19.899  68.869  1.00  0.00    -0.399 A  
HETATM    9  C   UNL     1     -10.890  19.666  67.699  1.00  0.00    -0.413 A  
HETATM   10  C   UNL     1     -10.268  19.073  66.599  1.00  0.00    -0.475 A  
HETATM   11  C   UNL     1      -8.925  18.696  66.673  1.00  0.00    -0.306 A  
HETATM   12  O   UNL     1      -8.334  18.132  65.578  1.00  0.00    -0.187 OA 
HETATM   13  H   UNL     1      -8.831  17.987  64.782  1.00  0.00     0.000 HD 
ENDBRANCH   4   6
ENDBRANCH   3   4
ENDBRANCH   2   3
TORSDOF 3
ENDMDL
MODEL      165
REMARK 921   NORMALIZED FREE ENERGY PREDICTED BY IDOCK:   -2.80 KCAL/MOL
REMARK 922        TOTAL FREE ENERGY PREDICTED BY IDOCK:   -3.74 KCAL/MOL
REMARK 923 INTER-LIGAND FREE ENERGY PREDICTED BY IDOCK:   -3.34 KCAL/MOL
REMARK 924 INTRA-LIGAND FREE ENERGY PREDICTED BY IDOCK:   -0.40 KCAL/MOL
REMARK 927      BINDING AFFINITY PREDICTED BY RF-SCORE:    0.00 PKD
ROOT
HETATM    1  C   UNL     1     -10.486   5.106  66.414  1.00  0.00    -0.356 C  
HETATM    2  C   UNL     1      -9.880   5.589  67.723  1.00  0.00    -0.138 C  
ENDROOT
BRANCH   2   3
HETATM    3  O   UNL     1     -10.937   5.707  68.684  1.00  0.00    -0.199 OA 
BRANCH   3   4
HETATM    4  C   UNL     1     -10.622   5.281  69.937  1.00  0.00    -0.221 C  
HETATM    5  O   UNL     1      -9.973   4.284  70.204  1.00  0.00    -0.220 OA 
BRANCH   4   6
HETATM    6  C   UNL     1     -11.052   6.313  70.917  1.00  0.00    -0.366 A  
HETATM    7  C   UNL     1     -12.379   6.782  70.890  1.00  0.00    -0.336 A  
HETATM    8  C   UNL     1     -12.775   7.845  71.703  1.00  0.00    -0.352 A  
HETATM    9  C   UNL     1     -11.848   8.449  72.549  1.00  0.00    -0.427 A  
HETATM   10  C   UNL     1     -10.533   7.985  72.596  1.00  0.00    -0.408 A  
HETATM   11  C   UNL     1     -10.136   6.921  71.783  1.00  0.00    -0.185 A  
HETATM   12  O   UNL     1      -8.848   6.474  71.859  1.00  0.00    -0.134 OA 
HETATM   13  H   UNL     1      -8.227   6.888  72.446  1.00  0.00     0.000 HD 
ENDBRANCH   4   6
ENDBRANCH   3   4
ENDBRANCH   2   3
TORSDOF 3
ENDMDL
MODEL      166
REMARK 921   NORMALIZED FREE ENERGY PREDICTED BY IDOCK:   -2.80 KCAL/MOL
REMARK 922        TOTAL FREE ENERGY PREDICTED BY IDOCK:   -3.74 KCAL/MOL
REMARK 923 INTER-LIGAND FREE ENERGY PREDICTED BY IDOCK:   -3.25 KCAL/MOL
REMARK 924 INTRA-LIGAND FREE ENERGY PREDICTED BY IDOCK:   -0.49 KCAL/MOL
REMARK 927      BINDING AFFINITY PREDICTED BY RF-SCORE:    0.00 PKD
ROOT
HETATM    1  C   UNL     1     -11.338  15.307  70.022  1.00  0.00    -0.311 C  
HETATM    2  C   UNL     1     -12.239  14.408  69.189  1.00  0.00    -0.220 C  
ENDROOT
BRANCH   2   3
HETATM    3  O   UNL     1     -11.713  14.366  67.856  1.00  0.00    -0.325 OA 
BRANCH   3   4
HETATM    4  C   UNL     1     -11.659  13.126  67.299  1.00  0.00    -0.355 C  
HETATM    5  O   UNL     1     -12.402  12.709  66.427  1.00  0.00    -0.521 OA 
BRANCH   4   6
HETATM    6  C   UNL     1     -10.449  12.425  67.803  1.00  0.00    -0.231 A  
HETATM    7  C   UNL     1      -9.176  12.963  67.532  1.00  0.00    -0.192 A  
HETATM    8  C   UNL     1      -8.020  12.259  67.871  1.00  0.00    -0.152 A  
HETATM    9  C   UNL     1      -8.124  11.012  68.482  1.00  0.00    -0.140 A  
HETATM   10  C   UNL     1      -9.380  10.474  68.769  1.00  0.00    -0.181 A  
HETATM   11  C   UNL     1     -10.537  11.178  68.430  1.00  0.00    -0.193 A  
HETATM   12  O   UNL     1     -11.754  10.638  68.736  1.00  0.00    -0.431 OA 
HETATM   13  H   UNL     1     -11.814   9.791  69.161  1.00  0.00     0.000 HD 
ENDBRANCH   4   6
ENDBRANCH   3   4
ENDBRANCH   2   3
TORSDOF 3
ENDMDL
MODEL      167
REMARK 921   NORMALIZED FREE ENERGY PREDICTED BY IDOCK:   -2.79 KCAL/MOL
REMARK 922        TOTAL FREE ENERGY PREDICTED BY IDOCK:   -3.74 KCAL/MOL
REMARK 923 INTER-LIGAND FREE ENERGY PREDICTED BY IDOCK:   -3.42 KCAL/MOL
REMARK 924 INTRA-LIGAND FREE ENERGY PREDICTED BY IDOCK:   -0.32 KCAL/MOL
REMARK 927      BINDING AFFINITY PREDICTED BY RF-SCORE:    0.00 PKD
ROOT
HETATM    1  C   UNL     1      -8.297   8.015  74.154  1.00  0.00    -0.311 C  
HETATM    2  C   UNL     1      -8.993   6.720  73.764  1.00  0.00    -0.148 C  
ENDROOT
BRANCH   2   3
HETATM    3  O   UNL     1      -9.746   6.964  72.570  1.00  0.00    -0.153 OA 
BRANCH   3   4
HETATM    4  C   UNL     1     -10.602   5.966  72.218  1.00  0.00    -0.217 C  
HETATM    5  O   UNL     1     -11.405   5.427  72.962  1.00  0.00    -0.302 OA 
BRANCH   4   6
HETATM    6  C   UNL     1     -10.518   5.756  70.749  1.00  0.00    -0.324 A  
HETATM    7  C   UNL     1      -9.420   5.057  70.213  1.00  0.00    -0.237 A  
HETATM    8  C   UNL     1      -9.242   4.964  68.832  1.00  0.00    -0.164 A  
HETATM    9  C   UNL     1     -10.159   5.568  67.975  1.00  0.00    -0.221 A  
HETATM   10  C   UNL     1     -11.260   6.252  68.494  1.00  0.00    -0.305 A  
HETATM   11  C   UNL     1     -11.438   6.346  69.875  1.00  0.00    -0.415 A  
HETATM   12  O   UNL     1     -12.532   7.006  70.358  1.00  0.00    -0.622 OA 
HETATM   13  H   UNL     1     -13.156   7.406  69.764  1.00  0.00     0.000 HD 
ENDBRANCH   4   6
ENDBRANCH   3   4
ENDBRANCH   2   3
TORSDOF 3
ENDMDL
MODEL      168
REMARK 921   NORMALIZED FREE ENERGY PREDICTED BY IDOCK:   -2.79 KCAL/MOL
REMARK 922        TOTAL FREE ENERGY PREDICTED BY IDOCK:   -3.73 KCAL/MOL
REMARK 923 INTER-LIGAND FREE ENERGY PREDICTED BY IDOCK:   -3.56 KCAL/MOL
REMARK 924 INTRA-LIGAND FREE ENERGY PREDICTED BY IDOCK:   -0.17 KCAL/MOL
REMARK 927      BINDING AFFINITY PREDICTED BY RF-SCORE:    0.00 PKD
ROOT
HETATM    1  C   UNL     1      -7.615  11.289  67.851  1.00  0.00    -0.100 C  
HETATM    2  C   UNL     1      -8.569  11.205  69.033  1.00  0.00    -0.024 C  
ENDROOT
BRANCH   2   3
HETATM    3  O   UNL     1      -9.849  11.686  68.605  1.00  0.00    -0.203 OA 
BRANCH   3   4
HETATM    4  C   UNL     1      -9.871  12.989  68.214  1.00  0.00    -0.225 C  
HETATM    5  O   UNL     1      -9.348  13.915  68.810  1.00  0.00    -0.149 OA 
BRANCH   4   6
HETATM    6  C   UNL     1     -10.488  13.075  66.864  1.00  0.00    -0.258 A  
HETATM    7  C   UNL     1      -9.998  14.018  65.940  1.00  0.00    -0.325 A  
HETATM    8  C   UNL     1     -10.642  14.218  64.719  1.00  0.00    -0.434 A  
HETATM    9  C   UNL     1     -11.782  13.480  64.410  1.00  0.00    -0.443 A  
HETATM   10  C   UNL     1     -12.270  12.532  65.312  1.00  0.00    -0.493 A  
HETATM   11  C   UNL     1     -11.626  12.331  66.534  1.00  0.00    -0.377 A  
HETATM   12  O   UNL     1     -12.113  11.387  67.392  1.00  0.00    -0.533 OA 
HETATM   13  H   UNL     1     -12.885  10.882  67.167  1.00  0.00     0.000 HD 
ENDBRANCH   4   6
ENDBRANCH   3   4
ENDBRANCH   2   3
TORSDOF 3
ENDMDL
MODEL      169
REMARK 921   NORMALIZED FREE ENERGY PREDICTED BY IDOCK:   -2.77 KCAL/MOL
REMARK 922        TOTAL FREE ENERGY PREDICTED BY IDOCK:   -3.70 KCAL/MOL
REMARK 923 INTER-LIGAND FREE ENERGY PREDICTED BY IDOCK:   -3.32 KCAL/MOL
REMARK 924 INTRA-LIGAND FREE ENERGY PREDICTED BY IDOCK:   -0.39 KCAL/MOL
REMARK 927      BINDING AFFINITY PREDICTED BY RF-SCORE:    0.00 PKD
ROOT
HETATM    1  C   UNL     1      -6.203   5.903  71.763  1.00  0.00    -0.044 C  
HETATM    2  C   UNL     1      -7.570   5.996  72.424  1.00  0.00    -0.100 C  
ENDROOT
BRANCH   2   3
HETATM    3  O   UNL     1      -8.181   7.223  72.006  1.00  0.00    -0.101 OA 
BRANCH   3   4
HETATM    4  C   UNL     1      -8.865   7.884  72.979  1.00  0.00    -0.217 C  
HETATM    5  O   UNL     1      -8.487   8.041  74.128  1.00  0.00    -0.254 OA 
BRANCH   4   6
HETATM    6  C   UNL     1     -10.063   8.523  72.376  1.00  0.00    -0.365 A  
HETATM    7  C   UNL     1     -11.345   8.150  72.824  1.00  0.00    -0.406 A  
HETATM    8  C   UNL     1     -12.489   8.629  72.185  1.00  0.00    -0.453 A  
HETATM    9  C   UNL     1     -12.364   9.483  71.091  1.00  0.00    -0.410 A  
HETATM   10  C   UNL     1     -11.099   9.871  70.646  1.00  0.00    -0.409 A  
HETATM   11  C   UNL     1      -9.954   9.392  71.285  1.00  0.00    -0.204 A  
HETATM   12  O   UNL     1      -8.728   9.800  70.841  1.00  0.00    -0.354 OA 
HETATM   13  H   UNL     1      -8.654  10.390  70.100  1.00  0.00     0.000 HD 
ENDBRANCH   4   6
ENDBRANCH   3   4
ENDBRANCH   2   3
TORSDOF 3
ENDMDL
MODEL      170
REMARK 921   NORMALIZED FREE ENERGY PREDICTED BY IDOCK:   -2.76 KCAL/MOL
REMARK 922        TOTAL FREE ENERGY PREDICTED BY IDOCK:   -3.70 KCAL/MOL
REMARK 923 INTER-LIGAND FREE ENERGY PREDICTED BY IDOCK:   -3.24 KCAL/MOL
REMARK 924 INTRA-LIGAND FREE ENERGY PREDICTED BY IDOCK:   -0.46 KCAL/MOL
REMARK 927      BINDING AFFINITY PREDICTED BY RF-SCORE:    0.00 PKD
ROOT
HETATM    1  C   UNL     1     -11.614   9.327  71.684  1.00  0.00    -0.463 C  
HETATM    2  C   UNL     1     -11.967  10.543  70.841  1.00  0.00    -0.377 C  
ENDROOT
BRANCH   2   3
HETATM    3  O   UNL     1     -10.901  10.759  69.908  1.00  0.00    -0.261 OA 
BRANCH   3   4
HETATM    4  C   UNL     1     -11.227  10.547  68.604  1.00  0.00    -0.270 C  
HETATM    5  O   UNL     1     -12.139  11.092  68.005  1.00  0.00    -0.635 OA 
BRANCH   4   6
HETATM    6  C   UNL     1     -10.196   9.673  67.986  1.00  0.00    -0.235 A  
HETATM    7  C   UNL     1     -10.573   8.418  67.470  1.00  0.00    -0.285 A  
HETATM    8  C   UNL     1      -9.609   7.520  67.010  1.00  0.00    -0.221 A  
HETATM    9  C   UNL     1      -8.261   7.866  67.063  1.00  0.00    -0.117 A  
HETATM   10  C   UNL     1      -7.875   9.112  67.559  1.00  0.00    -0.100 A  
HETATM   11  C   UNL     1      -8.839  10.011  68.020  1.00  0.00    -0.125 A  
HETATM   12  O   UNL     1      -8.438  11.231  68.485  1.00  0.00    -0.146 OA 
HETATM   13  H   UNL     1      -7.516  11.461  68.508  1.00  0.00     0.000 HD 
ENDBRANCH   4   6
ENDBRANCH   3   4
ENDBRANCH   2   3
TORSDOF 3
ENDMDL
MODEL      171
REMARK 921   NORMALIZED FREE ENERGY PREDICTED BY IDOCK:   -2.75 KCAL/MOL
REMARK 922        TOTAL FREE ENERGY PREDICTED BY IDOCK:   -3.69 KCAL/MOL
REMARK 923 INTER-LIGAND FREE ENERGY PREDICTED BY IDOCK:   -3.32 KCAL/MOL
REMARK 924 INTRA-LIGAND FREE ENERGY PREDICTED BY IDOCK:   -0.37 KCAL/MOL
REMARK 927      BINDING AFFINITY PREDICTED BY RF-SCORE:    0.00 PKD
ROOT
HETATM    1  C   UNL     1     -12.444   9.995  71.404  1.00  0.00    -0.510 C  
HETATM    2  C   UNL     1     -11.330   9.076  70.925  1.00  0.00    -0.293 C  
ENDROOT
BRANCH   2   3
HETATM    3  O   UNL     1     -11.566   7.772  71.472  1.00  0.00    -0.258 OA 
BRANCH   3   4
HETATM    4  C   UNL     1     -10.609   7.330  72.332  1.00  0.00    -0.237 C  
HETATM    5  O   UNL     1      -9.955   8.032  73.085  1.00  0.00    -0.293 OA 
BRANCH   4   6
HETATM    6  C   UNL     1     -10.608   5.843  72.327  1.00  0.00    -0.260 A  
HETATM    7  C   UNL     1     -11.161   5.149  73.421  1.00  0.00    -0.385 A  
HETATM    8  C   UNL     1     -11.051   3.760  73.509  1.00  0.00    -0.328 A  
HETATM    9  C   UNL     1     -10.389   3.054  72.509  1.00  0.00    -0.184 A  
HETATM   10  C   UNL     1      -9.849   3.730  71.412  1.00  0.00    -0.226 A  
HETATM   11  C   UNL     1      -9.958   5.118  71.323  1.00  0.00    -0.192 A  
HETATM   12  O   UNL     1      -9.436   5.755  70.233  1.00  0.00    -0.155 OA 
HETATM   13  H   UNL     1      -8.995   5.262  69.551  1.00  0.00     0.000 HD 
ENDBRANCH   4   6
ENDBRANCH   3   4
ENDBRANCH   2   3
TORSDOF 3
ENDMDL
MODEL      172
REMARK 921   NORMALIZED FREE ENERGY PREDICTED BY IDOCK:   -2.75 KCAL/MOL
REMARK 922        TOTAL FREE ENERGY PREDICTED BY IDOCK:   -3.69 KCAL/MOL
REMARK 923 INTER-LIGAND FREE ENERGY PREDICTED BY IDOCK:   -3.30 KCAL/MOL
REMARK 924 INTRA-LIGAND FREE ENERGY PREDICTED BY IDOCK:   -0.39 KCAL/MOL
REMARK 927      BINDING AFFINITY PREDICTED BY RF-SCORE:    0.00 PKD
ROOT
HETATM    1  C   UNL     1      -7.109  15.053  68.354  1.00  0.00    -0.108 C  
HETATM    2  C   UNL     1      -7.560  16.447  68.764  1.00  0.00    -0.211 C  
ENDROOT
BRANCH   2   3
HETATM    3  O   UNL     1      -8.793  16.729  68.091  1.00  0.00    -0.211 OA 
BRANCH   3   4
HETATM    4  C   UNL     1      -8.664  17.093  66.787  1.00  0.00    -0.244 C  
HETATM    5  O   UNL     1      -9.151  16.505  65.836  1.00  0.00    -0.460 OA 
BRANCH   4   6
HETATM    6  C   UNL     1      -7.979  18.410  66.721  1.00  0.00    -0.261 A  
HETATM    7  C   UNL     1      -6.733  18.509  66.072  1.00  0.00    -0.293 A  
HETATM    8  C   UNL     1      -6.002  19.697  66.113  1.00  0.00    -0.179 A  
HETATM    9  C   UNL     1      -6.508  20.796  66.802  1.00  0.00    -0.338 A  
HETATM   10  C   UNL     1      -7.749  20.716  67.437  1.00  0.00    -0.355 A  
HETATM   11  C   UNL     1      -8.480  19.528  67.397  1.00  0.00    -0.300 A  
HETATM   12  O   UNL     1      -9.699  19.479  68.012  1.00  0.00    -0.336 OA 
HETATM   13  H   UNL     1     -10.039  20.238  68.471  1.00  0.00     0.000 HD 
ENDBRANCH   4   6
ENDBRANCH   3   4
ENDBRANCH   2   3
TORSDOF 3
ENDMDL
MODEL      173
REMARK 921   NORMALIZED FREE ENERGY PREDICTED BY IDOCK:   -2.69 KCAL/MOL
REMARK 922        TOTAL FREE ENERGY PREDICTED BY IDOCK:   -3.61 KCAL/MOL
REMARK 923 INTER-LIGAND FREE ENERGY PREDICTED BY IDOCK:   -3.17 KCAL/MOL
REMARK 924 INTRA-LIGAND FREE ENERGY PREDICTED BY IDOCK:   -0.44 KCAL/MOL
REMARK 927      BINDING AFFINITY PREDICTED BY RF-SCORE:    0.00 PKD
ROOT
HETATM    1  C   UNL     1      -5.783   8.286  71.242  1.00  0.00    -0.034 C  
HETATM    2  C   UNL     1      -6.522   8.628  72.527  1.00  0.00    -0.054 C  
ENDROOT
BRANCH   2   3
HETATM    3  O   UNL     1      -7.901   8.840  72.201  1.00  0.00    -0.325 OA 
BRANCH   3   4
HETATM    4  C   UNL     1      -8.780   8.081  72.909  1.00  0.00    -0.213 C  
HETATM    5  O   UNL     1      -8.898   8.080  74.123  1.00  0.00    -0.240 OA 
BRANCH   4   6
HETATM    6  C   UNL     1      -9.685   7.381  71.959  1.00  0.00    -0.182 A  
HETATM    7  C   UNL     1      -9.171   6.913  70.735  1.00  0.00    -0.158 A  
HETATM    8  C   UNL     1     -10.021   6.376  69.766  1.00  0.00    -0.196 A  
HETATM    9  C   UNL     1     -11.390   6.304  70.011  1.00  0.00    -0.486 A  
HETATM   10  C   UNL     1     -11.910   6.752  71.227  1.00  0.00    -0.396 A  
HETATM   11  C   UNL     1     -11.060   7.289  72.197  1.00  0.00    -0.246 A  
HETATM   12  O   UNL     1     -11.591   7.705  73.385  1.00  0.00    -0.641 OA 
HETATM   13  H   UNL     1     -12.525   7.642  73.545  1.00  0.00     0.000 HD 
ENDBRANCH   4   6
ENDBRANCH   3   4
ENDBRANCH   2   3
TORSDOF 3
ENDMDL
MODEL      174
REMARK 921   NORMALIZED FREE ENERGY PREDICTED BY IDOCK:   -2.69 KCAL/MOL
REMARK 922        TOTAL FREE ENERGY PREDICTED BY IDOCK:   -3.61 KCAL/MOL
REMARK 923 INTER-LIGAND FREE ENERGY PREDICTED BY IDOCK:   -3.15 KCAL/MOL
REMARK 924 INTRA-LIGAND FREE ENERGY PREDICTED BY IDOCK:   -0.46 KCAL/MOL
REMARK 927      BINDING AFFINITY PREDICTED BY RF-SCORE:    0.00 PKD
ROOT
HETATM    1  C   UNL     1      -9.259  15.403  68.975  1.00  0.00    -0.235 C  
HETATM    2  C   UNL     1      -8.547  15.187  67.649  1.00  0.00    -0.172 C  
ENDROOT
BRANCH   2   3
HETATM    3  O   UNL     1      -8.596  13.788  67.343  1.00  0.00    -0.181 OA 
BRANCH   3   4
HETATM    4  C   UNL     1      -9.691  13.392  66.640  1.00  0.00    -0.275 C  
HETATM    5  O   UNL     1     -10.388  14.116  65.948  1.00  0.00    -0.294 OA 
BRANCH   4   6
HETATM    6  C   UNL     1      -9.803  11.912  66.716  1.00  0.00    -0.214 A  
HETATM    7  C   UNL     1      -9.763  11.155  65.529  1.00  0.00    -0.271 A  
HETATM    8  C   UNL     1     -10.003   9.780  65.555  1.00  0.00    -0.329 A  
HETATM    9  C   UNL     1     -10.286   9.150  66.765  1.00  0.00    -0.331 A  
HETATM   10  C   UNL     1     -10.314   9.888  67.950  1.00  0.00    -0.256 A  
HETATM   11  C   UNL     1     -10.074  11.263  67.925  1.00  0.00    -0.178 A  
HETATM   12  O   UNL     1     -10.091  11.959  69.100  1.00  0.00    -0.412 OA 
HETATM   13  H   UNL     1     -10.275  11.518  69.921  1.00  0.00     0.000 HD 
ENDBRANCH   4   6
ENDBRANCH   3   4
ENDBRANCH   2   3
TORSDOF 3
ENDMDL
MODEL      175
REMARK 921   NORMALIZED FREE ENERGY PREDICTED BY IDOCK:   -2.68 KCAL/MOL
REMARK 922        TOTAL FREE ENERGY PREDICTED BY IDOCK:   -3.60 KCAL/MOL
REMARK 923 INTER-LIGAND FREE ENERGY PREDICTED BY IDOCK:   -3.27 KCAL/MOL
REMARK 924 INTRA-LIGAND FREE ENERGY PREDICTED BY IDOCK:   -0.33 KCAL/MOL
REMARK 927      BINDING AFFINITY PREDICTED BY RF-SCORE:    0.00 PKD
ROOT
HETATM    1  C   UNL     1      -9.809   4.438  66.741  1.00  0.00    -0.241 C  
HETATM    2  C   UNL     1     -10.652   5.601  66.241  1.00  0.00    -0.111 C  
ENDROOT
BRANCH   2   3
HETATM    3  O   UNL     1     -10.311   6.759  67.015  1.00  0.00    -0.212 OA 
BRANCH   3   4
HETATM    4  C   UNL     1      -9.461   7.627  66.403  1.00  0.00    -0.161 C  
HETATM    5  O   UNL     1      -8.504   7.314  65.714  1.00  0.00    -0.137 OA 
BRANCH   4   6
HETATM    6  C   UNL     1      -9.982   9.009  66.571  1.00  0.00    -0.355 A  
HETATM    7  C   UNL     1     -10.555   9.387  67.800  1.00  0.00    -0.317 A  
HETATM    8  C   UNL     1     -11.175  10.628  67.944  1.00  0.00    -0.376 A  
HETATM    9  C   UNL     1     -11.230  11.503  66.862  1.00  0.00    -0.363 A  
HETATM   10  C   UNL     1     -10.653  11.146  65.641  1.00  0.00    -0.286 A  
HETATM   11  C   UNL     1     -10.032   9.904  65.497  1.00  0.00    -0.292 A  
HETATM   12  O   UNL     1      -9.460   9.585  64.298  1.00  0.00    -0.423 OA 
HETATM   13  H   UNL     1      -9.494  10.193  63.569  1.00  0.00     0.000 HD 
ENDBRANCH   4   6
ENDBRANCH   3   4
ENDBRANCH   2   3
TORSDOF 3
ENDMDL
MODEL      176
REMARK 921   NORMALIZED FREE ENERGY PREDICTED BY IDOCK:   -2.68 KCAL/MOL
REMARK 922        TOTAL FREE ENERGY PREDICTED BY IDOCK:   -3.60 KCAL/MOL
REMARK 923 INTER-LIGAND FREE ENERGY PREDICTED BY IDOCK:   -4.09 KCAL/MOL
REMARK 924 INTRA-LIGAND FREE ENERGY PREDICTED BY IDOCK:    0.49 KCAL/MOL
REMARK 927      BINDING AFFINITY PREDICTED BY RF-SCORE:    0.00 PKD
ROOT
HETATM    1  C   UNL     1     -14.411   7.846  71.526  1.00  0.00    -0.563 C  
HETATM    2  C   UNL     1     -13.252   8.826  71.634  1.00  0.00    -0.357 C  
ENDROOT
BRANCH   2   3
HETATM    3  O   UNL     1     -12.049   8.070  71.816  1.00  0.00    -0.280 OA 
BRANCH   3   4
HETATM    4  C   UNL     1     -10.898   8.783  71.682  1.00  0.00    -0.329 C  
HETATM    5  O   UNL     1      -9.890   8.633  72.353  1.00  0.00    -0.297 OA 
BRANCH   4   6
HETATM    6  C   UNL     1     -11.008   9.653  70.482  1.00  0.00    -0.374 A  
HETATM    7  C   UNL     1     -11.704  10.873  70.576  1.00  0.00    -0.441 A  
HETATM    8  C   UNL     1     -11.943  11.645  69.438  1.00  0.00    -0.381 A  
HETATM    9  C   UNL     1     -11.490  11.204  68.197  1.00  0.00    -0.373 A  
HETATM   10  C   UNL     1     -10.787  10.003  68.093  1.00  0.00    -0.303 A  
HETATM   11  C   UNL     1     -10.547   9.231  69.231  1.00  0.00    -0.222 A  
HETATM   12  O   UNL     1      -9.842   8.067  69.105  1.00  0.00    -0.171 OA 
HETATM   13  H   UNL     1      -9.529   7.781  68.255  1.00  0.00     0.000 HD 
ENDBRANCH   4   6
ENDBRANCH   3   4
ENDBRANCH   2   3
TORSDOF 3
ENDMDL
MODEL      177
REMARK 921   NORMALIZED FREE ENERGY PREDICTED BY IDOCK:   -2.68 KCAL/MOL
REMARK 922        TOTAL FREE ENERGY PREDICTED BY IDOCK:   -3.60 KCAL/MOL
REMARK 923 INTER-LIGAND FREE ENERGY PREDICTED BY IDOCK:   -3.20 KCAL/MOL
REMARK 924 INTRA-LIGAND FREE ENERGY PREDICTED BY IDOCK:   -0.39 KCAL/MOL
REMARK 927      BINDING AFFINITY PREDICTED BY RF-SCORE:    0.00 PKD
ROOT
HETATM    1  C   UNL     1      -7.312   2.538  65.314  1.00  0.00    -0.063 C  
HETATM    2  C   UNL     1      -8.754   2.924  65.604  1.00  0.00    -0.127 C  
ENDROOT
BRANCH   2   3
HETATM    3  O   UNL     1      -8.746   3.937  66.618  1.00  0.00    -0.109 OA 
BRANCH   3   4
HETATM    4  C   UNL     1      -9.923   4.600  66.775  1.00  0.00    -0.225 C  
HETATM    5  O   UNL     1     -10.775   4.744  65.915  1.00  0.00    -0.318 OA 
BRANCH   4   6
HETATM    6  C   UNL     1     -10.077   4.975  68.205  1.00  0.00    -0.170 A  
HETATM    7  C   UNL     1      -9.572   4.117  69.202  1.00  0.00    -0.243 A  
HETATM    8  C   UNL     1      -9.821   4.372  70.551  1.00  0.00    -0.285 A  
HETATM    9  C   UNL     1     -10.576   5.483  70.917  1.00  0.00    -0.309 A  
HETATM   10  C   UNL     1     -11.070   6.349  69.940  1.00  0.00    -0.444 A  
HETATM   11  C   UNL     1     -10.822   6.095  68.590  1.00  0.00    -0.332 A  
HETATM   12  O   UNL     1     -11.302   6.966  67.653  1.00  0.00    -0.582 OA 
HETATM   13  H   UNL     1     -11.807   7.726  67.914  1.00  0.00     0.000 HD 
ENDBRANCH   4   6
ENDBRANCH   3   4
ENDBRANCH   2   3
TORSDOF 3
ENDMDL
MODEL      178
REMARK 921   NORMALIZED FREE ENERGY PREDICTED BY IDOCK:   -2.67 KCAL/MOL
REMARK 922        TOTAL FREE ENERGY PREDICTED BY IDOCK:   -3.59 KCAL/MOL
REMARK 923 INTER-LIGAND FREE ENERGY PREDICTED BY IDOCK:   -3.18 KCAL/MOL
REMARK 924 INTRA-LIGAND FREE ENERGY PREDICTED BY IDOCK:   -0.41 KCAL/MOL
REMARK 927      BINDING AFFINITY PREDICTED BY RF-SCORE:    0.00 PKD
ROOT
HETATM    1  C   UNL     1      -9.766  11.429  67.972  1.00  0.00    -0.190 C  
HETATM    2  C   UNL     1      -9.660  12.803  67.327  1.00  0.00    -0.208 C  
ENDROOT
BRANCH   2   3
HETATM    3  O   UNL     1     -10.023  13.782  68.308  1.00  0.00    -0.231 OA 
BRANCH   3   4
HETATM    4  C   UNL     1     -10.574  14.920  67.805  1.00  0.00    -0.262 C  
HETATM    5  O   UNL     1     -11.769  15.134  67.685  1.00  0.00    -0.329 OA 
BRANCH   4   6
HETATM    6  C   UNL     1      -9.497  15.919  67.583  1.00  0.00    -0.219 A  
HETATM    7  C   UNL     1      -8.666  16.289  68.658  1.00  0.00    -0.226 A  
HETATM    8  C   UNL     1      -7.738  17.321  68.517  1.00  0.00    -0.261 A  
HETATM    9  C   UNL     1      -7.632  17.995  67.303  1.00  0.00    -0.213 A  
HETATM   10  C   UNL     1      -8.441  17.629  66.225  1.00  0.00    -0.237 A  
HETATM   11  C   UNL     1      -9.369  16.595  66.365  1.00  0.00    -0.281 A  
HETATM   12  O   UNL     1     -10.137  16.245  65.291  1.00  0.00    -0.528 OA 
HETATM   13  H   UNL     1     -10.050  16.704  64.465  1.00  0.00     0.000 HD 
ENDBRANCH   4   6
ENDBRANCH   3   4
ENDBRANCH   2   3
TORSDOF 3
ENDMDL
MODEL      179
REMARK 921   NORMALIZED FREE ENERGY PREDICTED BY IDOCK:   -2.67 KCAL/MOL
REMARK 922        TOTAL FREE ENERGY PREDICTED BY IDOCK:   -3.59 KCAL/MOL
REMARK 923 INTER-LIGAND FREE ENERGY PREDICTED BY IDOCK:   -3.08 KCAL/MOL
REMARK 924 INTRA-LIGAND FREE ENERGY PREDICTED BY IDOCK:   -0.51 KCAL/MOL
REMARK 927      BINDING AFFINITY PREDICTED BY RF-SCORE:    0.00 PKD
ROOT
HETATM    1  C   UNL     1      -7.697   6.050  73.776  1.00  0.00    -0.095 C  
HETATM    2  C   UNL     1      -8.994   5.323  74.097  1.00  0.00    -0.118 C  
ENDROOT
BRANCH   2   3
HETATM    3  O   UNL     1      -9.540   4.827  72.868  1.00  0.00    -0.130 OA 
BRANCH   3   4
HETATM    4  C   UNL     1     -10.843   5.151  72.648  1.00  0.00    -0.247 C  
HETATM    5  O   UNL     1     -11.795   4.721  73.278  1.00  0.00    -0.261 OA 
BRANCH   4   6
HETATM    6  C   UNL     1     -10.905   6.234  71.632  1.00  0.00    -0.298 A  
HETATM    7  C   UNL     1     -10.358   6.013  70.354  1.00  0.00    -0.282 A  
HETATM    8  C   UNL     1     -10.277   7.053  69.426  1.00  0.00    -0.197 A  
HETATM    9  C   UNL     1     -10.740   8.321  69.767  1.00  0.00    -0.221 A  
HETATM   10  C   UNL     1     -11.297   8.549  71.027  1.00  0.00    -0.313 A  
HETATM   11  C   UNL     1     -11.379   7.510  71.955  1.00  0.00    -0.273 A  
HETATM   12  O   UNL     1     -11.943   7.754  73.175  1.00  0.00    -0.644 OA 
HETATM   13  H   UNL     1     -12.265   8.620  73.394  1.00  0.00     0.000 HD 
ENDBRANCH   4   6
ENDBRANCH   3   4
ENDBRANCH   2   3
TORSDOF 3
ENDMDL
MODEL      180
REMARK 921   NORMALIZED FREE ENERGY PREDICTED BY IDOCK:   -2.67 KCAL/MOL
REMARK 922        TOTAL FREE ENERGY PREDICTED BY IDOCK:   -3.59 KCAL/MOL
REMARK 923 INTER-LIGAND FREE ENERGY PREDICTED BY IDOCK:   -3.12 KCAL/MOL
REMARK 924 INTRA-LIGAND FREE ENERGY PREDICTED BY IDOCK:   -0.47 KCAL/MOL
REMARK 927      BINDING AFFINITY PREDICTED BY RF-SCORE:    0.00 PKD
ROOT
HETATM    1  C   UNL     1      -7.544   7.766  69.768  1.00  0.00    -0.091 C  
HETATM    2  C   UNL     1      -7.960   9.188  70.108  1.00  0.00    -0.121 C  
ENDROOT
BRANCH   2   3
HETATM    3  O   UNL     1      -8.656   9.158  71.361  1.00  0.00    -0.314 OA 
BRANCH   3   4
HETATM    4  C   UNL     1     -10.009   9.264  71.267  1.00  0.00    -0.271 C  
HETATM    5  O   UNL     1     -10.611  10.138  70.666  1.00  0.00    -0.272 OA 
BRANCH   4   6
HETATM    6  C   UNL     1     -10.629   8.055  71.871  1.00  0.00    -0.305 A  
HETATM    7  C   UNL     1      -9.857   7.230  72.712  1.00  0.00    -0.219 A  
HETATM    8  C   UNL     1     -10.367   6.019  73.182  1.00  0.00    -0.230 A  
HETATM    9  C   UNL     1     -11.651   5.621  72.816  1.00  0.00    -0.289 A  
HETATM   10  C   UNL     1     -12.431   6.437  71.995  1.00  0.00    -0.212 A  
HETATM   11  C   UNL     1     -11.922   7.649  71.524  1.00  0.00    -0.303 A  
HETATM   12  O   UNL     1     -12.711   8.437  70.735  1.00  0.00    -0.492 OA 
HETATM   13  H   UNL     1     -13.589   8.161  70.500  1.00  0.00     0.000 HD 
ENDBRANCH   4   6
ENDBRANCH   3   4
ENDBRANCH   2   3
TORSDOF 3
ENDMDL
MODEL      181
REMARK 921   NORMALIZED FREE ENERGY PREDICTED BY IDOCK:   -2.66 KCAL/MOL
REMARK 922        TOTAL FREE ENERGY PREDICTED BY IDOCK:   -3.58 KCAL/MOL
REMARK 923 INTER-LIGAND FREE ENERGY PREDICTED BY IDOCK:   -3.16 KCAL/MOL
REMARK 924 INTRA-LIGAND FREE ENERGY PREDICTED BY IDOCK:   -0.42 KCAL/MOL
REMARK 927      BINDING AFFINITY PREDICTED BY RF-SCORE:    0.00 PKD
ROOT
HETATM    1  C   UNL     1     -10.603  16.449  65.493  1.00  0.00    -0.346 C  
HETATM    2  C   UNL     1      -9.857  15.134  65.660  1.00  0.00    -0.343 C  
ENDROOT
BRANCH   2   3
HETATM    3  O   UNL     1     -10.649  14.278  66.493  1.00  0.00    -0.281 OA 
BRANCH   3   4
HETATM    4  C   UNL     1     -10.080  13.951  67.685  1.00  0.00    -0.241 C  
HETATM    5  O   UNL     1      -9.893  14.720  68.614  1.00  0.00    -0.213 OA 
BRANCH   4   6
HETATM    6  C   UNL     1      -9.879  12.480  67.735  1.00  0.00    -0.204 A  
HETATM    7  C   UNL     1      -8.586  11.967  67.954  1.00  0.00    -0.162 A  
HETATM    8  C   UNL     1      -8.342  10.595  67.870  1.00  0.00    -0.120 A  
HETATM    9  C   UNL     1      -9.385   9.725  67.564  1.00  0.00    -0.152 A  
HETATM   10  C   UNL     1     -10.675  10.220  67.359  1.00  0.00    -0.339 A  
HETATM   11  C   UNL     1     -10.920  11.591  67.444  1.00  0.00    -0.265 A  
HETATM   12  O   UNL     1     -12.193  12.049  67.255  1.00  0.00    -0.496 OA 
HETATM   13  H   UNL     1     -12.899  11.446  67.057  1.00  0.00     0.000 HD 
ENDBRANCH   4   6
ENDBRANCH   3   4
ENDBRANCH   2   3
TORSDOF 3
ENDMDL
MODEL      182
REMARK 921   NORMALIZED FREE ENERGY PREDICTED BY IDOCK:   -2.66 KCAL/MOL
REMARK 922        TOTAL FREE ENERGY PREDICTED BY IDOCK:   -3.57 KCAL/MOL
REMARK 923 INTER-LIGAND FREE ENERGY PREDICTED BY IDOCK:   -3.08 KCAL/MOL
REMARK 924 INTRA-LIGAND FREE ENERGY PREDICTED BY IDOCK:   -0.49 KCAL/MOL
REMARK 927      BINDING AFFINITY PREDICTED BY RF-SCORE:    0.00 PKD
ROOT
HETATM    1  C   UNL     1     -10.674  14.889  69.066  1.00  0.00    -0.247 C  
HETATM    2  C   UNL     1      -9.158  14.948  69.171  1.00  0.00    -0.140 C  
ENDROOT
BRANCH   2   3
HETATM    3  O   UNL     1      -8.664  15.687  68.047  1.00  0.00    -0.165 OA 
BRANCH   3   4
HETATM    4  C   UNL     1      -7.833  16.718  68.359  1.00  0.00    -0.214 C  
HETATM    5  O   UNL     1      -6.654  16.612  68.653  1.00  0.00    -0.146 OA 
BRANCH   4   6
HETATM    6  C   UNL     1      -8.546  18.000  68.120  1.00  0.00    -0.277 A  
HETATM    7  C   UNL     1      -8.737  18.893  69.192  1.00  0.00    -0.049 A  
HETATM    8  C   UNL     1      -9.520  20.037  69.032  1.00  0.00    -0.060 A  
HETATM    9  C   UNL     1     -10.120  20.299  67.803  1.00  0.00    -0.505 A  
HETATM   10  C   UNL     1      -9.926  19.428  66.728  1.00  0.00    -0.476 A  
HETATM   11  C   UNL     1      -9.143  18.283  66.887  1.00  0.00    -0.282 A  
HETATM   12  O   UNL     1      -8.955  17.456  65.817  1.00  0.00    -0.521 OA 
HETATM   13  H   UNL     1      -9.361  17.649  64.980  1.00  0.00     0.000 HD 
ENDBRANCH   4   6
ENDBRANCH   3   4
ENDBRANCH   2   3
TORSDOF 3
ENDMDL
MODEL      183
REMARK 921   NORMALIZED FREE ENERGY PREDICTED BY IDOCK:   -2.65 KCAL/MOL
REMARK 922        TOTAL FREE ENERGY PREDICTED BY IDOCK:   -3.57 KCAL/MOL
REMARK 923 INTER-LIGAND FREE ENERGY PREDICTED BY IDOCK:   -3.42 KCAL/MOL
REMARK 924 INTRA-LIGAND FREE ENERGY PREDICTED BY IDOCK:   -0.15 KCAL/MOL
REMARK 927      BINDING AFFINITY PREDICTED BY RF-SCORE:    0.00 PKD
ROOT
HETATM    1  C   UNL     1     -10.201  20.165  68.006  1.00  0.00    -0.493 C  
HETATM    2  C   UNL     1     -10.191  18.650  67.867  1.00  0.00    -0.392 C  
ENDROOT
BRANCH   2   3
HETATM    3  O   UNL     1      -8.867  18.248  67.493  1.00  0.00    -0.251 OA 
BRANCH   3   4
HETATM    4  C   UNL     1      -8.332  17.257  68.255  1.00  0.00    -0.242 C  
HETATM    5  O   UNL     1      -7.307  17.344  68.910  1.00  0.00    -0.249 OA 
BRANCH   4   6
HETATM    6  C   UNL     1      -9.282  16.115  68.295  1.00  0.00    -0.197 A  
HETATM    7  C   UNL     1      -9.973  15.832  69.489  1.00  0.00    -0.283 A  
HETATM    8  C   UNL     1     -10.764  14.688  69.598  1.00  0.00    -0.168 A  
HETATM    9  C   UNL     1     -10.871  13.815  68.518  1.00  0.00    -0.280 A  
HETATM   10  C   UNL     1     -10.202  14.091  67.324  1.00  0.00    -0.260 A  
HETATM   11  C   UNL     1      -9.410  15.236  67.214  1.00  0.00    -0.205 A  
HETATM   12  O   UNL     1      -8.779  15.493  66.030  1.00  0.00    -0.405 OA 
HETATM   13  H   UNL     1      -8.867  14.896  65.296  1.00  0.00     0.000 HD 
ENDBRANCH   4   6
ENDBRANCH   3   4
ENDBRANCH   2   3
TORSDOF 3
ENDMDL
MODEL      184
REMARK 921   NORMALIZED FREE ENERGY PREDICTED BY IDOCK:   -2.65 KCAL/MOL
REMARK 922        TOTAL FREE ENERGY PREDICTED BY IDOCK:   -3.57 KCAL/MOL
REMARK 923 INTER-LIGAND FREE ENERGY PREDICTED BY IDOCK:   -3.20 KCAL/MOL
REMARK 924 INTRA-LIGAND FREE ENERGY PREDICTED BY IDOCK:   -0.36 KCAL/MOL
REMARK 927      BINDING AFFINITY PREDICTED BY RF-SCORE:    0.00 PKD
ROOT
HETATM    1  C   UNL     1      -5.850  14.770  68.804  1.00  0.00    -0.085 C  
HETATM    2  C   UNL     1      -7.079  14.900  67.918  1.00  0.00    -0.155 C  
ENDROOT
BRANCH   2   3
HETATM    3  O   UNL     1      -7.483  16.275  67.919  1.00  0.00    -0.125 OA 
BRANCH   3   4
HETATM    4  C   UNL     1      -8.402  16.603  66.971  1.00  0.00    -0.187 C  
HETATM    5  O   UNL     1      -8.155  17.117  65.893  1.00  0.00    -0.516 OA 
BRANCH   4   6
HETATM    6  C   UNL     1      -9.730  16.083  67.389  1.00  0.00    -0.232 A  
HETATM    7  C   UNL     1     -10.316  16.560  68.578  1.00  0.00    -0.289 A  
HETATM    8  C   UNL     1     -11.493  15.993  69.067  1.00  0.00    -0.360 A  
HETATM    9  C   UNL     1     -12.095  14.945  68.376  1.00  0.00    -0.167 A  
HETATM   10  C   UNL     1     -11.532  14.472  67.190  1.00  0.00    -0.383 A  
HETATM   11  C   UNL     1     -10.355  15.038  66.699  1.00  0.00    -0.278 A  
HETATM   12  O   UNL     1      -9.832  14.569  65.527  1.00  0.00    -0.427 OA 
HETATM   13  H   UNL     1     -10.256  13.860  65.058  1.00  0.00     0.000 HD 
ENDBRANCH   4   6
ENDBRANCH   3   4
ENDBRANCH   2   3
TORSDOF 3
ENDMDL
MODEL      185
REMARK 921   NORMALIZED FREE ENERGY PREDICTED BY IDOCK:   -2.64 KCAL/MOL
REMARK 922        TOTAL FREE ENERGY PREDICTED BY IDOCK:   -3.55 KCAL/MOL
REMARK 923 INTER-LIGAND FREE ENERGY PREDICTED BY IDOCK:   -3.26 KCAL/MOL
REMARK 924 INTRA-LIGAND FREE ENERGY PREDICTED BY IDOCK:   -0.29 KCAL/MOL
REMARK 927      BINDING AFFINITY PREDICTED BY RF-SCORE:    0.00 PKD
ROOT
HETATM    1  C   UNL     1     -12.688  12.344  71.056  1.00  0.00    -0.315 C  
HETATM    2  C   UNL     1     -11.703  11.939  69.970  1.00  0.00    -0.286 C  
ENDROOT
BRANCH   2   3
HETATM    3  O   UNL     1     -11.599  10.510  69.977  1.00  0.00    -0.265 OA 
BRANCH   3   4
HETATM    4  C   UNL     1     -10.463  10.015  69.417  1.00  0.00    -0.232 C  
HETATM    5  O   UNL     1      -9.387  10.589  69.373  1.00  0.00    -0.190 OA 
BRANCH   4   6
HETATM    6  C   UNL     1     -10.698   8.602  69.019  1.00  0.00    -0.122 A  
HETATM    7  C   UNL     1     -10.906   7.630  70.016  1.00  0.00    -0.250 A  
HETATM    8  C   UNL     1     -10.993   6.277  69.682  1.00  0.00    -0.440 A  
HETATM    9  C   UNL     1     -10.870   5.885  68.351  1.00  0.00    -0.322 A  
HETATM   10  C   UNL     1     -10.678   6.841  67.352  1.00  0.00    -0.405 A  
HETATM   11  C   UNL     1     -10.592   8.194  67.685  1.00  0.00    -0.188 A  
HETATM   12  O   UNL     1     -10.419   9.111  66.688  1.00  0.00    -0.243 OA 
HETATM   13  H   UNL     1     -10.347   8.834  65.783  1.00  0.00     0.000 HD 
ENDBRANCH   4   6
ENDBRANCH   3   4
ENDBRANCH   2   3
TORSDOF 3
ENDMDL
MODEL      186
REMARK 921   NORMALIZED FREE ENERGY PREDICTED BY IDOCK:   -2.63 KCAL/MOL
REMARK 922        TOTAL FREE ENERGY PREDICTED BY IDOCK:   -3.54 KCAL/MOL
REMARK 923 INTER-LIGAND FREE ENERGY PREDICTED BY IDOCK:   -3.22 KCAL/MOL
REMARK 924 INTRA-LIGAND FREE ENERGY PREDICTED BY IDOCK:   -0.33 KCAL/MOL
REMARK 927      BINDING AFFINITY PREDICTED BY RF-SCORE:    0.00 PKD
ROOT
HETATM    1  C   UNL     1     -11.034   6.168  67.880  1.00  0.00    -0.399 C  
HETATM    2  C   UNL     1     -10.743   6.235  69.371  1.00  0.00    -0.303 C  
ENDROOT
BRANCH   2   3
HETATM    3  O   UNL     1     -11.995   6.308  70.064  1.00  0.00    -0.256 OA 
BRANCH   3   4
HETATM    4  C   UNL     1     -12.146   7.397  70.865  1.00  0.00    -0.257 C  
HETATM    5  O   UNL     1     -13.001   8.257  70.737  1.00  0.00     0.113 OA 
BRANCH   4   6
HETATM    6  C   UNL     1     -11.210   7.283  72.014  1.00  0.00    -0.285 A  
HETATM    7  C   UNL     1     -10.166   8.217  72.150  1.00  0.00    -0.355 A  
HETATM    8  C   UNL     1      -9.192   8.056  73.137  1.00  0.00    -0.347 A  
HETATM    9  C   UNL     1      -9.251   6.960  73.994  1.00  0.00    -0.243 A  
HETATM   10  C   UNL     1     -10.290   6.034  73.879  1.00  0.00    -0.293 A  
HETATM   11  C   UNL     1     -11.264   6.195  72.892  1.00  0.00    -0.215 A  
HETATM   12  O   UNL     1     -12.279   5.284  72.810  1.00  0.00    -0.377 OA 
HETATM   13  H   UNL     1     -12.316   4.546  73.406  1.00  0.00     0.000 HD 
ENDBRANCH   4   6
ENDBRANCH   3   4
ENDBRANCH   2   3
TORSDOF 3
ENDMDL
MODEL      187
REMARK 921   NORMALIZED FREE ENERGY PREDICTED BY IDOCK:   -2.62 KCAL/MOL
REMARK 922        TOTAL FREE ENERGY PREDICTED BY IDOCK:   -3.53 KCAL/MOL
REMARK 923 INTER-LIGAND FREE ENERGY PREDICTED BY IDOCK:   -3.13 KCAL/MOL
REMARK 924 INTRA-LIGAND FREE ENERGY PREDICTED BY IDOCK:   -0.40 KCAL/MOL
REMARK 927      BINDING AFFINITY PREDICTED BY RF-SCORE:    0.00 PKD
ROOT
HETATM    1  C   UNL     1     -12.088  10.805  70.094  1.00  0.00    -0.427 C  
HETATM    2  C   UNL     1     -10.727  10.411  69.540  1.00  0.00    -0.251 C  
ENDROOT
BRANCH   2   3
HETATM    3  O   UNL     1     -10.900   9.235  68.738  1.00  0.00    -0.187 OA 
BRANCH   3   4
HETATM    4  C   UNL     1     -10.511   9.364  67.441  1.00  0.00    -0.278 C  
HETATM    5  O   UNL     1     -10.330  10.420  66.858  1.00  0.00    -0.221 OA 
BRANCH   4   6
HETATM    6  C   UNL     1     -10.181   8.019  66.902  1.00  0.00    -0.385 A  
HETATM    7  C   UNL     1     -11.029   6.932  67.191  1.00  0.00    -0.427 A  
HETATM    8  C   UNL     1     -10.675   5.635  66.817  1.00  0.00    -0.358 A  
HETATM    9  C   UNL     1      -9.472   5.412  66.152  1.00  0.00    -0.171 A  
HETATM   10  C   UNL     1      -8.629   6.482  65.847  1.00  0.00    -0.153 A  
HETATM   11  C   UNL     1      -8.982   7.780  66.221  1.00  0.00    -0.174 A  
HETATM   12  O   UNL     1      -8.149   8.813  65.897  1.00  0.00    -0.103 OA 
HETATM   13  H   UNL     1      -7.335   8.650  65.435  1.00  0.00     0.000 HD 
ENDBRANCH   4   6
ENDBRANCH   3   4
ENDBRANCH   2   3
TORSDOF 3
ENDMDL
MODEL      188
REMARK 921   NORMALIZED FREE ENERGY PREDICTED BY IDOCK:   -2.61 KCAL/MOL
REMARK 922        TOTAL FREE ENERGY PREDICTED BY IDOCK:   -3.52 KCAL/MOL
REMARK 923 INTER-LIGAND FREE ENERGY PREDICTED BY IDOCK:   -3.11 KCAL/MOL
REMARK 924 INTRA-LIGAND FREE ENERGY PREDICTED BY IDOCK:   -0.41 KCAL/MOL
REMARK 927      BINDING AFFINITY PREDICTED BY RF-SCORE:    0.00 PKD
ROOT
HETATM    1  C   UNL     1     -11.666  15.880  64.268  1.00  0.00    -0.132 C  
HETATM    2  C   UNL     1     -11.667  14.402  64.625  1.00  0.00    -0.430 C  
ENDROOT
BRANCH   2   3
HETATM    3  O   UNL     1     -11.317  14.281  66.010  1.00  0.00    -0.322 OA 
BRANCH   3   4
HETATM    4  C   UNL     1     -10.193  13.555  66.256  1.00  0.00    -0.299 C  
HETATM    5  O   UNL     1      -9.950  12.450  65.802  1.00  0.00    -0.252 OA 
BRANCH   4   6
HETATM    6  C   UNL     1      -9.239  14.394  67.028  1.00  0.00    -0.246 A  
HETATM    7  C   UNL     1      -8.691  15.545  66.430  1.00  0.00    -0.333 A  
HETATM    8  C   UNL     1      -7.692  16.275  67.076  1.00  0.00    -0.250 A  
HETATM    9  C   UNL     1      -7.229  15.860  68.322  1.00  0.00    -0.118 A  
HETATM   10  C   UNL     1      -7.773  14.728  68.931  1.00  0.00    -0.146 A  
HETATM   11  C   UNL     1      -8.774  13.998  68.287  1.00  0.00    -0.182 A  
HETATM   12  O   UNL     1      -9.302  12.904  68.910  1.00  0.00    -0.398 OA 
HETATM   13  H   UNL     1      -8.986  12.635  69.765  1.00  0.00     0.000 HD 
ENDBRANCH   4   6
ENDBRANCH   3   4
ENDBRANCH   2   3
TORSDOF 3
ENDMDL
MODEL      189
REMARK 921   NORMALIZED FREE ENERGY PREDICTED BY IDOCK:   -2.61 KCAL/MOL
REMARK 922        TOTAL FREE ENERGY PREDICTED BY IDOCK:   -3.52 KCAL/MOL
REMARK 923 INTER-LIGAND FREE ENERGY PREDICTED BY IDOCK:   -3.75 KCAL/MOL
REMARK 924 INTRA-LIGAND FREE ENERGY PREDICTED BY IDOCK:    0.24 KCAL/MOL
REMARK 927      BINDING AFFINITY PREDICTED BY RF-SCORE:    0.00 PKD
ROOT
HETATM    1  C   UNL     1      -6.775  17.114  65.980  1.00  0.00    -0.005 C  
HETATM    2  C   UNL     1      -7.383  16.575  67.266  1.00  0.00    -0.166 C  
ENDROOT
BRANCH   2   3
HETATM    3  O   UNL     1      -8.636  15.960  66.939  1.00  0.00    -0.198 OA 
BRANCH   3   4
HETATM    4  C   UNL     1      -9.478  16.730  66.199  1.00  0.00    -0.264 C  
HETATM    5  O   UNL     1     -10.042  16.380  65.176  1.00  0.00    -0.529 OA 
BRANCH   4   6
HETATM    6  C   UNL     1      -9.729  18.003  66.925  1.00  0.00    -0.314 A  
HETATM    7  C   UNL     1      -9.527  19.228  66.262  1.00  0.00    -0.387 A  
HETATM    8  C   UNL     1      -9.620  20.436  66.955  1.00  0.00    -0.571 A  
HETATM    9  C   UNL     1      -9.915  20.430  68.316  1.00  0.00    -0.273 A  
HETATM   10  C   UNL     1     -10.132  19.223  68.983  1.00  0.00    -0.384 A  
HETATM   11  C   UNL     1     -10.039  18.014  68.290  1.00  0.00    -0.385 A  
HETATM   12  O   UNL     1     -10.271  16.847  68.960  1.00  0.00    -0.277 OA 
HETATM   13  H   UNL     1     -10.481  16.855  69.886  1.00  0.00     0.000 HD 
ENDBRANCH   4   6
ENDBRANCH   3   4
ENDBRANCH   2   3
TORSDOF 3
ENDMDL
MODEL      190
REMARK 921   NORMALIZED FREE ENERGY PREDICTED BY IDOCK:   -2.60 KCAL/MOL
REMARK 922        TOTAL FREE ENERGY PREDICTED BY IDOCK:   -3.51 KCAL/MOL
REMARK 923 INTER-LIGAND FREE ENERGY PREDICTED BY IDOCK:   -3.13 KCAL/MOL
REMARK 924 INTRA-LIGAND FREE ENERGY PREDICTED BY IDOCK:   -0.38 KCAL/MOL
REMARK 927      BINDING AFFINITY PREDICTED BY RF-SCORE:    0.00 PKD
ROOT
HETATM    1  C   UNL     1     -10.969  12.409  63.798  1.00  0.00    -0.501 C  
HETATM    2  C   UNL     1     -10.546  11.681  65.064  1.00  0.00    -0.289 C  
ENDROOT
BRANCH   2   3
HETATM    3  O   UNL     1     -10.575  12.620  66.146  1.00  0.00    -0.252 OA 
BRANCH   3   4
HETATM    4  C   UNL     1     -11.264  12.208  67.245  1.00  0.00    -0.306 C  
HETATM    5  O   UNL     1     -12.390  12.564  67.549  1.00  0.00    -0.316 OA 
BRANCH   4   6
HETATM    6  C   UNL     1     -10.492  11.134  67.922  1.00  0.00    -0.220 A  
HETATM    7  C   UNL     1     -11.049   9.845  68.028  1.00  0.00    -0.220 A  
HETATM    8  C   UNL     1     -10.411   8.854  68.776  1.00  0.00    -0.223 A  
HETATM    9  C   UNL     1      -9.213   9.141  69.425  1.00  0.00    -0.156 A  
HETATM   10  C   UNL     1      -8.643  10.411  69.316  1.00  0.00    -0.159 A  
HETATM   11  C   UNL     1      -9.280  11.403  68.568  1.00  0.00    -0.174 A  
HETATM   12  O   UNL     1      -8.694  12.632  68.463  1.00  0.00    -0.311 OA 
HETATM   13  H   UNL     1      -7.871  12.815  68.901  1.00  0.00     0.000 HD 
ENDBRANCH   4   6
ENDBRANCH   3   4
ENDBRANCH   2   3
TORSDOF 3
ENDMDL
MODEL      191
REMARK 921   NORMALIZED FREE ENERGY PREDICTED BY IDOCK:   -2.60 KCAL/MOL
REMARK 922        TOTAL FREE ENERGY PREDICTED BY IDOCK:   -3.51 KCAL/MOL
REMARK 923 INTER-LIGAND FREE ENERGY PREDICTED BY IDOCK:   -3.18 KCAL/MOL
REMARK 924 INTRA-LIGAND FREE ENERGY PREDICTED BY IDOCK:   -0.33 KCAL/MOL
REMARK 927      BINDING AFFINITY PREDICTED BY RF-SCORE:    0.00 PKD
ROOT
HETATM    1  C   UNL     1     -10.140  17.603  68.002  1.00  0.00    -0.343 C  
HETATM    2  C   UNL     1     -10.816  16.745  69.061  1.00  0.00    -0.291 C  
ENDROOT
BRANCH   2   3
HETATM    3  O   UNL     1     -11.534  15.700  68.392  1.00  0.00    -0.351 OA 
BRANCH   3   4
HETATM    4  C   UNL     1     -12.050  14.744  69.210  1.00  0.00    -0.261 C  
HETATM    5  O   UNL     1     -13.021  14.881  69.935  1.00  0.00    -0.089 OA 
BRANCH   4   6
HETATM    6  C   UNL     1     -11.344  13.460  68.955  1.00  0.00    -0.335 A  
HETATM    7  C   UNL     1     -10.387  13.392  67.925  1.00  0.00    -0.238 A  
HETATM    8  C   UNL     1      -9.810  12.171  67.571  1.00  0.00    -0.193 A  
HETATM    9  C   UNL     1     -10.184  11.009  68.242  1.00  0.00    -0.192 A  
HETATM   10  C   UNL     1     -11.122  11.067  69.275  1.00  0.00    -0.312 A  
HETATM   11  C   UNL     1     -11.699  12.287  69.629  1.00  0.00    -0.316 A  
HETATM   12  O   UNL     1     -12.602  12.320  70.654  1.00  0.00    -0.257 OA 
HETATM   13  H   UNL     1     -12.842  11.523  71.112  1.00  0.00     0.000 HD 
ENDBRANCH   4   6
ENDBRANCH   3   4
ENDBRANCH   2   3
TORSDOF 3
ENDMDL
MODEL      192
REMARK 921   NORMALIZED FREE ENERGY PREDICTED BY IDOCK:   -2.60 KCAL/MOL
REMARK 922        TOTAL FREE ENERGY PREDICTED BY IDOCK:   -3.51 KCAL/MOL
REMARK 923 INTER-LIGAND FREE ENERGY PREDICTED BY IDOCK:   -3.15 KCAL/MOL
REMARK 924 INTRA-LIGAND FREE ENERGY PREDICTED BY IDOCK:   -0.36 KCAL/MOL
REMARK 927      BINDING AFFINITY PREDICTED BY RF-SCORE:    0.00 PKD
ROOT
HETATM    1  C   UNL     1     -10.993   6.113  68.029  1.00  0.00    -0.399 C  
HETATM    2  C   UNL     1     -10.602   6.058  69.498  1.00  0.00    -0.296 C  
ENDROOT
BRANCH   2   3
HETATM    3  O   UNL     1     -11.774   6.325  70.278  1.00  0.00    -0.384 OA 
BRANCH   3   4
HETATM    4  C   UNL     1     -11.575   7.133  71.354  1.00  0.00    -0.283 C  
HETATM    5  O   UNL     1     -12.046   8.249  71.498  1.00  0.00    -0.282 OA 
BRANCH   4   6
HETATM    6  C   UNL     1     -10.832   6.375  72.395  1.00  0.00    -0.267 A  
HETATM    7  C   UNL     1     -11.434   5.250  72.991  1.00  0.00    -0.340 A  
HETATM    8  C   UNL     1     -10.821   4.601  74.064  1.00  0.00    -0.328 A  
HETATM    9  C   UNL     1      -9.605   5.071  74.552  1.00  0.00    -0.158 A  
HETATM   10  C   UNL     1      -8.991   6.177  73.961  1.00  0.00    -0.132 A  
HETATM   11  C   UNL     1      -9.603   6.826  72.887  1.00  0.00    -0.149 A  
HETATM   12  O   UNL     1      -8.975   7.896  72.315  1.00  0.00    -0.130 OA 
HETATM   13  H   UNL     1      -8.140   8.202  72.649  1.00  0.00     0.000 HD 
ENDBRANCH   4   6
ENDBRANCH   3   4
ENDBRANCH   2   3
TORSDOF 3
ENDMDL
MODEL      193
REMARK 921   NORMALIZED FREE ENERGY PREDICTED BY IDOCK:   -2.59 KCAL/MOL
REMARK 922        TOTAL FREE ENERGY PREDICTED BY IDOCK:   -3.50 KCAL/MOL
REMARK 923 INTER-LIGAND FREE ENERGY PREDICTED BY IDOCK:   -3.00 KCAL/MOL
REMARK 924 INTRA-LIGAND FREE ENERGY PREDICTED BY IDOCK:   -0.50 KCAL/MOL
REMARK 927      BINDING AFFINITY PREDICTED BY RF-SCORE:    0.00 PKD
ROOT
HETATM    1  C   UNL     1      -7.547  11.976  67.430  1.00  0.00    -0.151 C  
HETATM    2  C   UNL     1      -8.959  11.519  67.098  1.00  0.00    -0.166 C  
ENDROOT
BRANCH   2   3
HETATM    3  O   UNL     1      -9.743  11.597  68.295  1.00  0.00    -0.186 OA 
BRANCH   3   4
HETATM    4  C   UNL     1     -10.770  10.708  68.367  1.00  0.00    -0.222 C  
HETATM    5  O   UNL     1     -11.872  10.857  67.866  1.00  0.00    -0.590 OA 
BRANCH   4   6
HETATM    6  C   UNL     1     -10.281   9.459  69.008  1.00  0.00    -0.216 A  
HETATM    7  C   UNL     1      -9.702   9.521  70.290  1.00  0.00    -0.314 A  
HETATM    8  C   UNL     1      -9.111   8.393  70.859  1.00  0.00    -0.190 A  
HETATM    9  C   UNL     1      -9.091   7.193  70.153  1.00  0.00    -0.152 A  
HETATM   10  C   UNL     1      -9.674   7.114  68.887  1.00  0.00    -0.146 A  
HETATM   11  C   UNL     1     -10.266   8.243  68.317  1.00  0.00    -0.208 A  
HETATM   12  O   UNL     1     -10.844   8.136  67.084  1.00  0.00    -0.464 OA 
HETATM   13  H   UNL     1     -10.833   7.310  66.615  1.00  0.00     0.000 HD 
ENDBRANCH   4   6
ENDBRANCH   3   4
ENDBRANCH   2   3
TORSDOF 3
ENDMDL
MODEL      194
REMARK 921   NORMALIZED FREE ENERGY PREDICTED BY IDOCK:   -2.59 KCAL/MOL
REMARK 922        TOTAL FREE ENERGY PREDICTED BY IDOCK:   -3.49 KCAL/MOL
REMARK 923 INTER-LIGAND FREE ENERGY PREDICTED BY IDOCK:   -3.27 KCAL/MOL
REMARK 924 INTRA-LIGAND FREE ENERGY PREDICTED BY IDOCK:   -0.22 KCAL/MOL
REMARK 927      BINDING AFFINITY PREDICTED BY RF-SCORE:    0.00 PKD
ROOT
HETATM    1  C   UNL     1     -10.561  16.596  68.450  1.00  0.00    -0.343 C  
HETATM    2  C   UNL     1      -9.813  17.034  67.200  1.00  0.00    -0.269 C  
ENDROOT
BRANCH   2   3
HETATM    3  O   UNL     1      -9.457  15.859  66.462  1.00  0.00    -0.236 OA 
BRANCH   3   4
HETATM    4  C   UNL     1     -10.491  15.018  66.189  1.00  0.00    -0.305 C  
HETATM    5  O   UNL     1     -11.533  15.332  65.639  1.00  0.00    -0.260 OA 
BRANCH   4   6
HETATM    6  C   UNL     1     -10.078  13.628  66.515  1.00  0.00    -0.286 A  
HETATM    7  C   UNL     1      -9.796  13.287  67.852  1.00  0.00    -0.234 A  
HETATM    8  C   UNL     1      -9.275  12.032  68.171  1.00  0.00    -0.195 A  
HETATM    9  C   UNL     1      -9.031  11.107  67.158  1.00  0.00    -0.145 A  
HETATM   10  C   UNL     1      -9.320  11.428  65.830  1.00  0.00    -0.247 A  
HETATM   11  C   UNL     1      -9.841  12.683  65.511  1.00  0.00    -0.163 A  
HETATM   12  O   UNL     1     -10.131  12.967  64.206  1.00  0.00    -0.587 OA 
HETATM   13  H   UNL     1      -9.970  12.326  63.525  1.00  0.00     0.000 HD 
ENDBRANCH   4   6
ENDBRANCH   3   4
ENDBRANCH   2   3
TORSDOF 3
ENDMDL
MODEL      195
REMARK 921   NORMALIZED FREE ENERGY PREDICTED BY IDOCK:   -2.58 KCAL/MOL
REMARK 922        TOTAL FREE ENERGY PREDICTED BY IDOCK:   -3.49 KCAL/MOL
REMARK 923 INTER-LIGAND FREE ENERGY PREDICTED BY IDOCK:   -3.07 KCAL/MOL
REMARK 924 INTRA-LIGAND FREE ENERGY PREDICTED BY IDOCK:   -0.42 KCAL/MOL
REMARK 927      BINDING AFFINITY PREDICTED BY RF-SCORE:    0.00 PKD
ROOT
HETATM    1  C   UNL     1      -9.974   6.607  74.119  1.00  0.00    -0.361 C  
HETATM    2  C   UNL     1     -10.935   7.462  73.307  1.00  0.00    -0.318 C  
ENDROOT
BRANCH   2   3
HETATM    3  O   UNL     1     -10.463   7.496  71.955  1.00  0.00    -0.199 OA 
BRANCH   3   4
HETATM    4  C   UNL     1     -11.424   7.327  71.007  1.00  0.00    -0.287 C  
HETATM    5  O   UNL     1     -12.595   7.651  71.121  1.00  0.00    -0.301 OA 
BRANCH   4   6
HETATM    6  C   UNL     1     -10.787   6.841  69.756  1.00  0.00    -0.316 A  
HETATM    7  C   UNL     1     -10.774   7.671  68.619  1.00  0.00    -0.095 A  
HETATM    8  C   UNL     1     -10.307   7.193  67.394  1.00  0.00    -0.324 A  
HETATM    9  C   UNL     1      -9.851   5.881  67.293  1.00  0.00    -0.155 A  
HETATM   10  C   UNL     1      -9.846   5.051  68.416  1.00  0.00    -0.209 A  
HETATM   11  C   UNL     1     -10.312   5.529  69.642  1.00  0.00    -0.289 A  
HETATM   12  O   UNL     1     -10.282   4.704  70.730  1.00  0.00    -0.215 OA 
HETATM   13  H   UNL     1      -9.960   3.814  70.652  1.00  0.00     0.000 HD 
ENDBRANCH   4   6
ENDBRANCH   3   4
ENDBRANCH   2   3
TORSDOF 3
ENDMDL
MODEL      196
REMARK 921   NORMALIZED FREE ENERGY PREDICTED BY IDOCK:   -2.58 KCAL/MOL
REMARK 922        TOTAL FREE ENERGY PREDICTED BY IDOCK:   -3.48 KCAL/MOL
REMARK 923 INTER-LIGAND FREE ENERGY PREDICTED BY IDOCK:   -3.03 KCAL/MOL
REMARK 924 INTRA-LIGAND FREE ENERGY PREDICTED BY IDOCK:   -0.44 KCAL/MOL
REMARK 927      BINDING AFFINITY PREDICTED BY RF-SCORE:    0.00 PKD
ROOT
HETATM    1  C   UNL     1      -7.924   9.878  70.016  1.00  0.00    -0.194 C  
HETATM    2  C   UNL     1      -8.589   8.619  70.552  1.00  0.00    -0.156 C  
ENDROOT
BRANCH   2   3
HETATM    3  O   UNL     1      -9.101   8.911  71.859  1.00  0.00    -0.331 OA 
BRANCH   3   4
HETATM    4  C   UNL     1      -8.559   8.173  72.865  1.00  0.00    -0.205 C  
HETATM    5  O   UNL     1      -7.742   8.576  73.677  1.00  0.00    -0.345 OA 
BRANCH   4   6
HETATM    6  C   UNL     1      -9.243   6.855  72.918  1.00  0.00    -0.154 A  
HETATM    7  C   UNL     1      -8.495   5.680  72.717  1.00  0.00    -0.120 A  
HETATM    8  C   UNL     1      -9.129   4.440  72.624  1.00  0.00    -0.134 A  
HETATM    9  C   UNL     1     -10.516   4.364  72.729  1.00  0.00    -0.253 A  
HETATM   10  C   UNL     1     -11.268   5.520  72.943  1.00  0.00    -0.358 A  
HETATM   11  C   UNL     1     -10.634   6.761  73.037  1.00  0.00    -0.267 A  
HETATM   12  O   UNL     1     -11.390   7.876  73.262  1.00  0.00    -0.517 OA 
HETATM   13  H   UNL     1     -12.334   7.811  73.343  1.00  0.00     0.000 HD 
ENDBRANCH   4   6
ENDBRANCH   3   4
ENDBRANCH   2   3
TORSDOF 3
ENDMDL
MODEL      197
REMARK 921   NORMALIZED FREE ENERGY PREDICTED BY IDOCK:   -2.55 KCAL/MOL
REMARK 922        TOTAL FREE ENERGY PREDICTED BY IDOCK:   -3.45 KCAL/MOL
REMARK 923 INTER-LIGAND FREE ENERGY PREDICTED BY IDOCK:   -3.37 KCAL/MOL
REMARK 924 INTRA-LIGAND FREE ENERGY PREDICTED BY IDOCK:   -0.09 KCAL/MOL
REMARK 927      BINDING AFFINITY PREDICTED BY RF-SCORE:    0.00 PKD
ROOT
HETATM    1  C   UNL     1      -9.786   4.413  70.097  1.00  0.00    -0.288 C  
HETATM    2  C   UNL     1      -9.197   5.729  70.581  1.00  0.00    -0.152 C  
ENDROOT
BRANCH   2   3
HETATM    3  O   UNL     1      -8.959   5.616  71.990  1.00  0.00    -0.137 OA 
BRANCH   3   4
HETATM    4  C   UNL     1      -8.980   6.793  72.672  1.00  0.00    -0.129 C  
HETATM    5  O   UNL     1      -8.141   7.159  73.478  1.00  0.00    -0.104 OA 
BRANCH   4   6
HETATM    6  C   UNL     1     -10.095   7.628  72.154  1.00  0.00    -0.246 A  
HETATM    7  C   UNL     1      -9.807   8.871  71.558  1.00  0.00    -0.384 A  
HETATM    8  C   UNL     1     -10.837   9.738  71.189  1.00  0.00    -0.333 A  
HETATM    9  C   UNL     1     -12.162   9.372  71.412  1.00  0.00    -0.438 A  
HETATM   10  C   UNL     1     -12.461   8.136  71.990  1.00  0.00    -0.375 A  
HETATM   11  C   UNL     1     -11.431   7.269  72.359  1.00  0.00    -0.287 A  
HETATM   12  O   UNL     1     -11.750   6.059  72.908  1.00  0.00    -0.496 OA 
HETATM   13  H   UNL     1     -12.657   5.815  73.047  1.00  0.00     0.000 HD 
ENDBRANCH   4   6
ENDBRANCH   3   4
ENDBRANCH   2   3
TORSDOF 3
ENDMDL
MODEL      198
REMARK 921   NORMALIZED FREE ENERGY PREDICTED BY IDOCK:   -2.55 KCAL/MOL
REMARK 922        TOTAL FREE ENERGY PREDICTED BY IDOCK:   -3.45 KCAL/MOL
REMARK 923 INTER-LIGAND FREE ENERGY PREDICTED BY IDOCK:   -3.36 KCAL/MOL
REMARK 924 INTRA-LIGAND FREE ENERGY PREDICTED BY IDOCK:   -0.09 KCAL/MOL
REMARK 927      BINDING AFFINITY PREDICTED BY RF-SCORE:    0.00 PKD
ROOT
HETATM    1  C   UNL     1      -7.208  15.068  69.807  1.00  0.00    -0.149 C  
HETATM    2  C   UNL     1      -8.302  14.964  68.755  1.00  0.00    -0.170 C  
ENDROOT
BRANCH   2   3
HETATM    3  O   UNL     1      -8.668  16.294  68.364  1.00  0.00    -0.190 OA 
BRANCH   3   4
HETATM    4  C   UNL     1      -9.996  16.573  68.456  1.00  0.00    -0.251 C  
HETATM    5  O   UNL     1     -10.474  17.593  68.926  1.00  0.00    -0.351 OA 
BRANCH   4   6
HETATM    6  C   UNL     1     -10.761  15.517  67.743  1.00  0.00    -0.297 A  
HETATM    7  C   UNL     1     -11.616  14.671  68.474  1.00  0.00    -0.346 A  
HETATM    8  C   UNL     1     -12.240  13.585  67.858  1.00  0.00    -0.168 A  
HETATM    9  C   UNL     1     -12.014  13.334  66.507  1.00  0.00    -0.448 A  
HETATM   10  C   UNL     1     -11.179  14.174  65.767  1.00  0.00    -0.312 A  
HETATM   11  C   UNL     1     -10.555  15.260  66.383  1.00  0.00    -0.308 A  
HETATM   12  O   UNL     1      -9.756  16.077  65.635  1.00  0.00    -0.374 OA 
HETATM   13  H   UNL     1      -9.616  15.902  64.711  1.00  0.00     0.000 HD 
ENDBRANCH   4   6
ENDBRANCH   3   4
ENDBRANCH   2   3
TORSDOF 3
ENDMDL
MODEL      199
REMARK 921   NORMALIZED FREE ENERGY PREDICTED BY IDOCK:   -2.55 KCAL/MOL
REMARK 922        TOTAL FREE ENERGY PREDICTED BY IDOCK:   -3.45 KCAL/MOL
REMARK 923 INTER-LIGAND FREE ENERGY PREDICTED BY IDOCK:   -3.29 KCAL/MOL
REMARK 924 INTRA-LIGAND FREE ENERGY PREDICTED BY IDOCK:   -0.16 KCAL/MOL
REMARK 927      BINDING AFFINITY PREDICTED BY RF-SCORE:    0.00 PKD
ROOT
HETATM    1  C   UNL     1     -10.251   7.786  71.107  1.00  0.00    -0.214 C  
HETATM    2  C   UNL     1     -10.921   6.827  70.135  1.00  0.00    -0.292 C  
ENDROOT
BRANCH   2   3
HETATM    3  O   UNL     1     -11.144   7.527  68.905  1.00  0.00    -0.007 OA 
BRANCH   3   4
HETATM    4  C   UNL     1     -10.024   8.038  68.325  1.00  0.00    -0.185 C  
HETATM    5  O   UNL     1      -8.914   7.535  68.366  1.00  0.00    -0.129 OA 
BRANCH   4   6
HETATM    6  C   UNL     1     -10.404   9.213  67.498  1.00  0.00    -0.324 A  
HETATM    7  C   UNL     1      -9.902   9.327  66.188  1.00  0.00    -0.363 A  
HETATM    8  C   UNL     1     -10.128  10.482  65.437  1.00  0.00    -0.358 A  
HETATM    9  C   UNL     1     -10.856  11.533  65.989  1.00  0.00    -0.330 A  
HETATM   10  C   UNL     1     -11.371  11.427  67.283  1.00  0.00    -0.347 A  
HETATM   11  C   UNL     1     -11.146  10.272  68.034  1.00  0.00    -0.274 A  
HETATM   12  O   UNL     1     -11.674  10.186  69.290  1.00  0.00    -0.468 OA 
HETATM   13  H   UNL     1     -12.177  10.905  69.654  1.00  0.00     0.000 HD 
ENDBRANCH   4   6
ENDBRANCH   3   4
ENDBRANCH   2   3
TORSDOF 3
ENDMDL
MODEL      200
REMARK 921   NORMALIZED FREE ENERGY PREDICTED BY IDOCK:   -2.53 KCAL/MOL
REMARK 922        TOTAL FREE ENERGY PREDICTED BY IDOCK:   -3.43 KCAL/MOL
REMARK 923 INTER-LIGAND FREE ENERGY PREDICTED BY IDOCK:   -3.02 KCAL/MOL
REMARK 924 INTRA-LIGAND FREE ENERGY PREDICTED BY IDOCK:   -0.41 KCAL/MOL
REMARK 927      BINDING AFFINITY PREDICTED BY RF-SCORE:    0.00 PKD
ROOT
HETATM    1  C   UNL     1      -7.674  11.077  68.275  1.00  0.00    -0.113 C  
HETATM    2  C   UNL     1      -8.967  10.891  69.055  1.00  0.00    -0.094 C  
ENDROOT
BRANCH   2   3
HETATM    3  O   UNL     1     -10.049  11.348  68.234  1.00  0.00    -0.182 OA 
BRANCH   3   4
HETATM    4  C   UNL     1     -10.969  12.119  68.874  1.00  0.00    -0.224 C  
HETATM    5  O   UNL     1     -11.541  11.825  69.911  1.00  0.00    -0.299 OA 
BRANCH   4   6
HETATM    6  C   UNL     1     -11.039  13.443  68.201  1.00  0.00    -0.284 A  
HETATM    7  C   UNL     1     -10.318  13.651  67.010  1.00  0.00    -0.260 A  
HETATM    8  C   UNL     1     -10.254  14.918  66.430  1.00  0.00    -0.292 A  
HETATM    9  C   UNL     1     -10.907  15.989  67.035  1.00  0.00    -0.227 A  
HETATM   10  C   UNL     1     -11.636  15.793  68.209  1.00  0.00    -0.302 A  
HETATM   11  C   UNL     1     -11.702  14.525  68.790  1.00  0.00    -0.327 A  
HETATM   12  O   UNL     1     -12.435  14.356  69.929  1.00  0.00    -0.414 OA 
HETATM   13  H   UNL     1     -12.885  15.091  70.329  1.00  0.00     0.000 HD 
ENDBRANCH   4   6
ENDBRANCH   3   4
ENDBRANCH   2   3
TORSDOF 3
ENDMDL
MODEL      201
REMARK 921   NORMALIZED FREE ENERGY PREDICTED BY IDOCK:   -2.53 KCAL/MOL
REMARK 922        TOTAL FREE ENERGY PREDICTED BY IDOCK:   -3.43 KCAL/MOL
REMARK 923 INTER-LIGAND FREE ENERGY PREDICTED BY IDOCK:   -2.95 KCAL/MOL
REMARK 924 INTRA-LIGAND FREE ENERGY PREDICTED BY IDOCK:   -0.48 KCAL/MOL
REMARK 927      BINDING AFFINITY PREDICTED BY RF-SCORE:    0.00 PKD
ROOT
HETATM    1  C   UNL     1      -7.447  12.169  67.950  1.00  0.00    -0.117 C  
HETATM    2  C   UNL     1      -8.737  12.201  67.145  1.00  0.00    -0.190 C  
ENDROOT
BRANCH   2   3
HETATM    3  O   UNL     1      -9.827  11.967  68.046  1.00  0.00    -0.187 OA 
BRANCH   3   4
HETATM    4  C   UNL     1     -10.708  11.011  67.645  1.00  0.00    -0.238 C  
HETATM    5  O   UNL     1     -11.784  11.221  67.109  1.00  0.00    -0.533 OA 
BRANCH   4   6
HETATM    6  C   UNL     1     -10.078   9.676  67.812  1.00  0.00    -0.232 A  
HETATM    7  C   UNL     1     -10.128   8.751  66.752  1.00  0.00    -0.359 A  
HETATM    8  C   UNL     1      -9.669   7.445  66.925  1.00  0.00    -0.265 A  
HETATM    9  C   UNL     1      -9.157   7.050  68.159  1.00  0.00    -0.128 A  
HETATM   10  C   UNL     1      -9.089   7.962  69.214  1.00  0.00    -0.148 A  
HETATM   11  C   UNL     1      -9.548   9.269  69.041  1.00  0.00    -0.159 A  
HETATM   12  O   UNL     1      -9.456  10.147  70.084  1.00  0.00    -0.389 OA 
HETATM   13  H   UNL     1      -9.096   9.870  70.918  1.00  0.00     0.000 HD 
ENDBRANCH   4   6
ENDBRANCH   3   4
ENDBRANCH   2   3
TORSDOF 3
ENDMDL
MODEL      202
REMARK 921   NORMALIZED FREE ENERGY PREDICTED BY IDOCK:   -2.51 KCAL/MOL
REMARK 922        TOTAL FREE ENERGY PREDICTED BY IDOCK:   -3.40 KCAL/MOL
REMARK 923 INTER-LIGAND FREE ENERGY PREDICTED BY IDOCK:   -2.91 KCAL/MOL
REMARK 924 INTRA-LIGAND FREE ENERGY PREDICTED BY IDOCK:   -0.49 KCAL/MOL
REMARK 927      BINDING AFFINITY PREDICTED BY RF-SCORE:    0.00 PKD
ROOT
HETATM    1  C   UNL     1      -8.398  10.957  68.783  1.00  0.00    -0.151 C  
HETATM    2  C   UNL     1      -8.344   9.760  67.846  1.00  0.00    -0.114 C  
ENDROOT
BRANCH   2   3
HETATM    3  O   UNL     1      -9.298   8.794  68.305  1.00  0.00    -0.137 OA 
BRANCH   3   4
HETATM    4  C   UNL     1      -8.834   7.934  69.251  1.00  0.00    -0.142 C  
HETATM    5  O   UNL     1      -7.698   7.496  69.313  1.00  0.00    -0.107 OA 
BRANCH   4   6
HETATM    6  C   UNL     1      -9.884   7.747  70.287  1.00  0.00    -0.184 A  
HETATM    7  C   UNL     1     -11.050   7.027  69.966  1.00  0.00    -0.316 A  
HETATM    8  C   UNL     1     -12.111   6.952  70.870  1.00  0.00    -0.424 A  
HETATM    9  C   UNL     1     -12.016   7.596  72.101  1.00  0.00    -0.344 A  
HETATM   10  C   UNL     1     -10.859   8.301  72.437  1.00  0.00    -0.421 A  
HETATM   11  C   UNL     1      -9.798   8.377  71.533  1.00  0.00    -0.208 A  
HETATM   12  O   UNL     1      -8.670   9.059  71.892  1.00  0.00    -0.363 OA 
HETATM   13  H   UNL     1      -8.612   9.486  72.738  1.00  0.00     0.000 HD 
ENDBRANCH   4   6
ENDBRANCH   3   4
ENDBRANCH   2   3
TORSDOF 3
ENDMDL
MODEL      203
REMARK 921   NORMALIZED FREE ENERGY PREDICTED BY IDOCK:   -2.49 KCAL/MOL
REMARK 922        TOTAL FREE ENERGY PREDICTED BY IDOCK:   -3.38 KCAL/MOL
REMARK 923 INTER-LIGAND FREE ENERGY PREDICTED BY IDOCK:   -3.01 KCAL/MOL
REMARK 924 INTRA-LIGAND FREE ENERGY PREDICTED BY IDOCK:   -0.36 KCAL/MOL
REMARK 927      BINDING AFFINITY PREDICTED BY RF-SCORE:    0.00 PKD
ROOT
HETATM    1  C   UNL     1      -8.818   2.119  70.778  1.00  0.00    -0.126 C  
HETATM    2  C   UNL     1      -8.732   3.461  71.488  1.00  0.00    -0.081 C  
ENDROOT
BRANCH   2   3
HETATM    3  O   UNL     1     -10.004   4.109  71.367  1.00  0.00    -0.185 OA 
BRANCH   3   4
HETATM    4  C   UNL     1     -10.374   4.853  72.444  1.00  0.00    -0.204 C  
HETATM    5  O   UNL     1     -10.314   4.491  73.608  1.00  0.00    -0.156 OA 
BRANCH   4   6
HETATM    6  C   UNL     1     -10.702   6.229  71.989  1.00  0.00    -0.268 A  
HETATM    7  C   UNL     1     -10.927   6.468  70.620  1.00  0.00    -0.340 A  
HETATM    8  C   UNL     1     -11.101   7.769  70.145  1.00  0.00    -0.216 A  
HETATM    9  C   UNL     1     -11.050   8.841  71.032  1.00  0.00    -0.328 A  
HETATM   10  C   UNL     1     -10.841   8.616  72.394  1.00  0.00    -0.312 A  
HETATM   11  C   UNL     1     -10.668   7.316  72.870  1.00  0.00    -0.322 A  
HETATM   12  O   UNL     1     -10.481   7.120  74.209  1.00  0.00    -0.477 OA 
HETATM   13  H   UNL     1     -10.458   7.858  74.807  1.00  0.00     0.000 HD 
ENDBRANCH   4   6
ENDBRANCH   3   4
ENDBRANCH   2   3
TORSDOF 3
ENDMDL
MODEL      204
REMARK 921   NORMALIZED FREE ENERGY PREDICTED BY IDOCK:   -2.49 KCAL/MOL
REMARK 922        TOTAL FREE ENERGY PREDICTED BY IDOCK:   -3.38 KCAL/MOL
REMARK 923 INTER-LIGAND FREE ENERGY PREDICTED BY IDOCK:   -3.01 KCAL/MOL
REMARK 924 INTRA-LIGAND FREE ENERGY PREDICTED BY IDOCK:   -0.37 KCAL/MOL
REMARK 927      BINDING AFFINITY PREDICTED BY RF-SCORE:    0.00 PKD
ROOT
HETATM    1  C   UNL     1      -8.064  18.445  66.686  1.00  0.00    -0.282 C  
HETATM    2  C   UNL     1      -7.954  17.285  67.665  1.00  0.00    -0.187 C  
ENDROOT
BRANCH   2   3
HETATM    3  O   UNL     1      -8.707  16.187  67.135  1.00  0.00    -0.179 OA 
BRANCH   3   4
HETATM    4  C   UNL     1      -8.076  14.982  67.185  1.00  0.00    -0.214 C  
HETATM    5  O   UNL     1      -6.879  14.817  67.350  1.00  0.00    -0.203 OA 
BRANCH   4   6
HETATM    6  C   UNL     1      -9.098  13.903  67.173  1.00  0.00    -0.245 A  
HETATM    7  C   UNL     1      -9.061  12.905  68.165  1.00  0.00    -0.207 A  
HETATM    8  C   UNL     1      -9.918  11.806  68.101  1.00  0.00    -0.196 A  
HETATM    9  C   UNL     1     -10.820  11.694  67.046  1.00  0.00    -0.311 A  
HETATM   10  C   UNL     1     -10.877  12.683  66.063  1.00  0.00    -0.306 A  
HETATM   11  C   UNL     1     -10.019  13.783  66.126  1.00  0.00    -0.308 A  
HETATM   12  O   UNL     1     -10.105  14.746  65.162  1.00  0.00    -0.372 OA 
HETATM   13  H   UNL     1     -10.731  14.665  64.451  1.00  0.00     0.000 HD 
ENDBRANCH   4   6
ENDBRANCH   3   4
ENDBRANCH   2   3
TORSDOF 3
ENDMDL
MODEL      205
REMARK 921   NORMALIZED FREE ENERGY PREDICTED BY IDOCK:   -2.48 KCAL/MOL
REMARK 922        TOTAL FREE ENERGY PREDICTED BY IDOCK:   -3.36 KCAL/MOL
REMARK 923 INTER-LIGAND FREE ENERGY PREDICTED BY IDOCK:   -2.93 KCAL/MOL
REMARK 924 INTRA-LIGAND FREE ENERGY PREDICTED BY IDOCK:   -0.43 KCAL/MOL
REMARK 927      BINDING AFFINITY PREDICTED BY RF-SCORE:    0.00 PKD
ROOT
HETATM    1  C   UNL     1      -6.957   9.673  66.755  1.00  0.00    -0.085 C  
HETATM    2  C   UNL     1      -7.465  11.104  66.687  1.00  0.00    -0.146 C  
ENDROOT
BRANCH   2   3
HETATM    3  O   UNL     1      -8.162  11.385  67.907  1.00  0.00    -0.122 OA 
BRANCH   3   4
HETATM    4  C   UNL     1      -8.522  12.686  68.076  1.00  0.00    -0.177 C  
HETATM    5  O   UNL     1      -7.854  13.539  68.637  1.00  0.00    -0.134 OA 
BRANCH   4   6
HETATM    6  C   UNL     1      -9.779  12.938  67.323  1.00  0.00    -0.220 A  
HETATM    7  C   UNL     1     -10.874  12.071  67.496  1.00  0.00    -0.284 A  
HETATM    8  C   UNL     1     -12.015  12.199  66.704  1.00  0.00    -0.186 A  
HETATM    9  C   UNL     1     -12.073  13.194  65.731  1.00  0.00    -0.502 A  
HETATM   10  C   UNL     1     -10.999  14.070  65.558  1.00  0.00    -0.309 A  
HETATM   11  C   UNL     1      -9.857  13.942  66.351  1.00  0.00    -0.295 A  
HETATM   12  O   UNL     1      -8.827  14.821  66.174  1.00  0.00    -0.472 OA 
HETATM   13  H   UNL     1      -8.880  15.502  65.515  1.00  0.00     0.000 HD 
ENDBRANCH   4   6
ENDBRANCH   3   4
ENDBRANCH   2   3
TORSDOF 3
ENDMDL
MODEL      206
REMARK 921   NORMALIZED FREE ENERGY PREDICTED BY IDOCK:   -2.47 KCAL/MOL
REMARK 922        TOTAL FREE ENERGY PREDICTED BY IDOCK:   -3.35 KCAL/MOL
REMARK 923 INTER-LIGAND FREE ENERGY PREDICTED BY IDOCK:   -3.09 KCAL/MOL
REMARK 924 INTRA-LIGAND FREE ENERGY PREDICTED BY IDOCK:   -0.27 KCAL/MOL
REMARK 927      BINDING AFFINITY PREDICTED BY RF-SCORE:    0.00 PKD
ROOT
HETATM    1  C   UNL     1     -11.490   5.809  72.410  1.00  0.00    -0.343 C  
HETATM    2  C   UNL     1     -11.957   6.723  71.287  1.00  0.00    -0.365 C  
ENDROOT
BRANCH   2   3
HETATM    3  O   UNL     1     -11.340   6.281  70.071  1.00  0.00    -0.380 OA 
BRANCH   3   4
HETATM    4  C   UNL     1     -10.074   6.736  69.872  1.00  0.00    -0.180 C  
HETATM    5  O   UNL     1      -9.057   6.205  70.287  1.00  0.00    -0.150 OA 
BRANCH   4   6
HETATM    6  C   UNL     1     -10.119   7.885  68.931  1.00  0.00    -0.203 A  
HETATM    7  C   UNL     1     -10.418   7.656  67.574  1.00  0.00    -0.336 A  
HETATM    8  C   UNL     1     -10.333   8.692  66.642  1.00  0.00    -0.303 A  
HETATM    9  C   UNL     1      -9.947   9.964  67.056  1.00  0.00    -0.254 A  
HETATM   10  C   UNL     1      -9.660  10.208  68.401  1.00  0.00    -0.150 A  
HETATM   11  C   UNL     1      -9.746   9.172  69.334  1.00  0.00    -0.170 A  
HETATM   12  O   UNL     1      -9.477   9.439  70.646  1.00  0.00    -0.251 OA 
HETATM   13  H   UNL     1      -9.224  10.313  70.919  1.00  0.00     0.000 HD 
ENDBRANCH   4   6
ENDBRANCH   3   4
ENDBRANCH   2   3
TORSDOF 3
ENDMDL
MODEL      207
REMARK 921   NORMALIZED FREE ENERGY PREDICTED BY IDOCK:   -2.46 KCAL/MOL
REMARK 922        TOTAL FREE ENERGY PREDICTED BY IDOCK:   -3.35 KCAL/MOL
REMARK 923 INTER-LIGAND FREE ENERGY PREDICTED BY IDOCK:   -2.90 KCAL/MOL
REMARK 924 INTRA-LIGAND FREE ENERGY PREDICTED BY IDOCK:   -0.44 KCAL/MOL
REMARK 927      BINDING AFFINITY PREDICTED BY RF-SCORE:    0.00 PKD
ROOT
HETATM    1  C   UNL     1     -12.189  11.764  70.359  1.00  0.00    -0.416 C  
HETATM    2  C   UNL     1     -12.012  12.267  68.934  1.00  0.00    -0.248 C  
ENDROOT
BRANCH   2   3
HETATM    3  O   UNL     1     -11.885  11.127  68.075  1.00  0.00    -0.582 OA 
BRANCH   3   4
HETATM    4  C   UNL     1     -10.671  10.993  67.476  1.00  0.00    -0.244 C  
HETATM    5  O   UNL     1     -10.352  11.481  66.405  1.00  0.00    -0.223 OA 
BRANCH   4   6
HETATM    6  C   UNL     1      -9.747  10.300  68.413  1.00  0.00    -0.165 A  
HETATM    7  C   UNL     1     -10.166   9.114  69.045  1.00  0.00    -0.219 A  
HETATM    8  C   UNL     1      -9.379   8.517  70.030  1.00  0.00    -0.164 A  
HETATM    9  C   UNL     1      -8.168   9.100  70.394  1.00  0.00    -0.188 A  
HETATM   10  C   UNL     1      -7.734  10.268  69.765  1.00  0.00    -0.159 A  
HETATM   11  C   UNL     1      -8.521  10.866  68.779  1.00  0.00    -0.150 A  
HETATM   12  O   UNL     1      -8.068  12.000  68.167  1.00  0.00    -0.143 OA 
HETATM   13  H   UNL     1      -7.235  12.383  68.415  1.00  0.00     0.000 HD 
ENDBRANCH   4   6
ENDBRANCH   3   4
ENDBRANCH   2   3
TORSDOF 3
ENDMDL
MODEL      208
REMARK 921   NORMALIZED FREE ENERGY PREDICTED BY IDOCK:   -2.46 KCAL/MOL
REMARK 922        TOTAL FREE ENERGY PREDICTED BY IDOCK:   -3.34 KCAL/MOL
REMARK 923 INTER-LIGAND FREE ENERGY PREDICTED BY IDOCK:   -2.99 KCAL/MOL
REMARK 924 INTRA-LIGAND FREE ENERGY PREDICTED BY IDOCK:   -0.35 KCAL/MOL
REMARK 927      BINDING AFFINITY PREDICTED BY RF-SCORE:    0.00 PKD
ROOT
HETATM    1  C   UNL     1      -6.173  14.241  68.922  1.00  0.00    -0.089 C  
HETATM    2  C   UNL     1      -6.579  15.167  67.785  1.00  0.00    -0.165 C  
ENDROOT
BRANCH   2   3
HETATM    3  O   UNL     1      -7.667  15.980  68.243  1.00  0.00    -0.136 OA 
BRANCH   3   4
HETATM    4  C   UNL     1      -7.321  17.238  68.628  1.00  0.00    -0.238 C  
HETATM    5  O   UNL     1      -6.493  17.515  69.480  1.00  0.00    -0.251 OA 
BRANCH   4   6
HETATM    6  C   UNL     1      -7.990  18.216  67.731  1.00  0.00    -0.238 A  
HETATM    7  C   UNL     1      -7.206  19.121  66.989  1.00  0.00    -0.216 A  
HETATM    8  C   UNL     1      -7.807  20.139  66.247  1.00  0.00    -0.281 A  
HETATM    9  C   UNL     1      -9.194  20.263  66.240  1.00  0.00    -0.316 A  
HETATM   10  C   UNL     1      -9.983  19.364  66.960  1.00  0.00    -0.466 A  
HETATM   11  C   UNL     1      -9.383  18.345  67.703  1.00  0.00    -0.267 A  
HETATM   12  O   UNL     1     -10.176  17.468  68.386  1.00  0.00    -0.327 OA 
HETATM   13  H   UNL     1     -11.122  17.556  68.367  1.00  0.00     0.000 HD 
ENDBRANCH   4   6
ENDBRANCH   3   4
ENDBRANCH   2   3
TORSDOF 3
ENDMDL
MODEL      209
REMARK 921   NORMALIZED FREE ENERGY PREDICTED BY IDOCK:   -2.45 KCAL/MOL
REMARK 922        TOTAL FREE ENERGY PREDICTED BY IDOCK:   -3.34 KCAL/MOL
REMARK 923 INTER-LIGAND FREE ENERGY PREDICTED BY IDOCK:   -2.94 KCAL/MOL
REMARK 924 INTRA-LIGAND FREE ENERGY PREDICTED BY IDOCK:   -0.40 KCAL/MOL
REMARK 927      BINDING AFFINITY PREDICTED BY RF-SCORE:    0.00 PKD
ROOT
HETATM    1  C   UNL     1      -8.891   9.430  63.077  1.00  0.00    -0.209 C  
HETATM    2  C   UNL     1      -8.533  10.569  64.020  1.00  0.00    -0.118 C  
ENDROOT
BRANCH   2   3
HETATM    3  O   UNL     1      -9.610  10.729  64.951  1.00  0.00    -0.216 OA 
BRANCH   3   4
HETATM    4  C   UNL     1      -9.233  11.087  66.208  1.00  0.00    -0.182 C  
HETATM    5  O   UNL     1      -8.233  10.696  66.785  1.00  0.00    -0.123 OA 
BRANCH   4   6
HETATM    6  C   UNL     1     -10.144  12.154  66.697  1.00  0.00    -0.218 A  
HETATM    7  C   UNL     1     -11.067  11.860  67.720  1.00  0.00    -0.295 A  
HETATM    8  C   UNL     1     -12.026  12.798  68.104  1.00  0.00    -0.295 A  
HETATM    9  C   UNL     1     -12.073  14.038  67.470  1.00  0.00    -0.361 A  
HETATM   10  C   UNL     1     -11.155  14.347  66.464  1.00  0.00    -0.331 A  
HETATM   11  C   UNL     1     -10.195  13.409  66.080  1.00  0.00    -0.300 A  
HETATM   12  O   UNL     1      -9.298  13.741  65.105  1.00  0.00    -0.289 OA 
HETATM   13  H   UNL     1      -9.333  14.592  64.686  1.00  0.00     0.000 HD 
ENDBRANCH   4   6
ENDBRANCH   3   4
ENDBRANCH   2   3
TORSDOF 3
ENDMDL
MODEL      210
REMARK 921   NORMALIZED FREE ENERGY PREDICTED BY IDOCK:   -2.45 KCAL/MOL
REMARK 922        TOTAL FREE ENERGY PREDICTED BY IDOCK:   -3.34 KCAL/MOL
REMARK 923 INTER-LIGAND FREE ENERGY PREDICTED BY IDOCK:   -3.14 KCAL/MOL
REMARK 924 INTRA-LIGAND FREE ENERGY PREDICTED BY IDOCK:   -0.19 KCAL/MOL
REMARK 927      BINDING AFFINITY PREDICTED BY RF-SCORE:    0.00 PKD
ROOT
HETATM    1  C   UNL     1      -8.222   8.634  70.540  1.00  0.00    -0.127 C  
HETATM    2  C   UNL     1      -8.571   9.960  69.883  1.00  0.00    -0.194 C  
ENDROOT
BRANCH   2   3
HETATM    3  O   UNL     1      -8.753   9.725  68.481  1.00  0.00    -0.118 OA 
BRANCH   3   4
HETATM    4  C   UNL     1     -10.038   9.490  68.101  1.00  0.00    -0.182 C  
HETATM    5  O   UNL     1     -10.712   8.530  68.437  1.00  0.00    -0.151 OA 
BRANCH   4   6
HETATM    6  C   UNL     1     -10.541  10.670  67.349  1.00  0.00    -0.304 A  
HETATM    7  C   UNL     1     -11.296  11.648  68.024  1.00  0.00    -0.366 A  
HETATM    8  C   UNL     1     -11.897  12.693  67.321  1.00  0.00    -0.395 A  
HETATM    9  C   UNL     1     -11.751  12.769  65.938  1.00  0.00    -0.464 A  
HETATM   10  C   UNL     1     -10.993  11.813  65.259  1.00  0.00    -0.350 A  
HETATM   11  C   UNL     1     -10.392  10.768  65.962  1.00  0.00    -0.238 A  
HETATM   12  O   UNL     1      -9.642   9.854  65.277  1.00  0.00    -0.256 OA 
HETATM   13  H   UNL     1      -9.541   9.921  64.335  1.00  0.00     0.000 HD 
ENDBRANCH   4   6
ENDBRANCH   3   4
ENDBRANCH   2   3
TORSDOF 3
ENDMDL
MODEL      211
REMARK 921   NORMALIZED FREE ENERGY PREDICTED BY IDOCK:   -2.44 KCAL/MOL
REMARK 922        TOTAL FREE ENERGY PREDICTED BY IDOCK:   -3.32 KCAL/MOL
REMARK 923 INTER-LIGAND FREE ENERGY PREDICTED BY IDOCK:   -2.92 KCAL/MOL
REMARK 924 INTRA-LIGAND FREE ENERGY PREDICTED BY IDOCK:   -0.39 KCAL/MOL
REMARK 927      BINDING AFFINITY PREDICTED BY RF-SCORE:    0.00 PKD
ROOT
HETATM    1  C   UNL     1     -10.959   6.019  72.056  1.00  0.00    -0.313 C  
HETATM    2  C   UNL     1     -11.601   6.936  71.025  1.00  0.00    -0.328 C  
ENDROOT
BRANCH   2   3
HETATM    3  O   UNL     1     -10.556   7.495  70.219  1.00  0.00    -0.219 OA 
BRANCH   3   4
HETATM    4  C   UNL     1     -10.329   8.823  70.414  1.00  0.00    -0.199 C  
HETATM    5  O   UNL     1     -10.404   9.404  71.484  1.00  0.00    -0.327 OA 
BRANCH   4   6
HETATM    6  C   UNL     1      -9.816   9.413  69.150  1.00  0.00    -0.174 A  
HETATM    7  C   UNL     1     -10.526   9.204  67.952  1.00  0.00    -0.293 A  
HETATM    8  C   UNL     1      -9.999   9.628  66.731  1.00  0.00    -0.289 A  
HETATM    9  C   UNL     1      -8.760  10.262  66.695  1.00  0.00    -0.134 A  
HETATM   10  C   UNL     1      -8.053  10.488  67.878  1.00  0.00    -0.107 A  
HETATM   11  C   UNL     1      -8.579  10.065  69.100  1.00  0.00    -0.158 A  
HETATM   12  O   UNL     1      -7.876  10.312  70.245  1.00  0.00    -0.383 OA 
HETATM   13  H   UNL     1      -7.036  10.754  70.210  1.00  0.00     0.000 HD 
ENDBRANCH   4   6
ENDBRANCH   3   4
ENDBRANCH   2   3
TORSDOF 3
ENDMDL
MODEL      212
REMARK 921   NORMALIZED FREE ENERGY PREDICTED BY IDOCK:   -2.44 KCAL/MOL
REMARK 922        TOTAL FREE ENERGY PREDICTED BY IDOCK:   -3.32 KCAL/MOL
REMARK 923 INTER-LIGAND FREE ENERGY PREDICTED BY IDOCK:   -2.93 KCAL/MOL
REMARK 924 INTRA-LIGAND FREE ENERGY PREDICTED BY IDOCK:   -0.39 KCAL/MOL
REMARK 927      BINDING AFFINITY PREDICTED BY RF-SCORE:    0.00 PKD
ROOT
HETATM    1  C   UNL     1      -8.379   7.661  73.094  1.00  0.00    -0.184 C  
HETATM    2  C   UNL     1      -8.738   8.577  71.934  1.00  0.00    -0.203 C  
ENDROOT
BRANCH   2   3
HETATM    3  O   UNL     1     -10.115   8.356  71.604  1.00  0.00    -0.199 OA 
BRANCH   3   4
HETATM    4  C   UNL     1     -10.571   9.068  70.539  1.00  0.00    -0.227 C  
HETATM    5  O   UNL     1     -10.663  10.283  70.488  1.00  0.00    -0.283 OA 
BRANCH   4   6
HETATM    6  C   UNL     1     -10.780   8.143  69.395  1.00  0.00    -0.164 A  
HETATM    7  C   UNL     1     -10.995   6.774  69.644  1.00  0.00    -0.336 A  
HETATM    8  C   UNL     1     -11.057   5.861  68.591  1.00  0.00    -0.191 A  
HETATM    9  C   UNL     1     -10.902   6.305  67.280  1.00  0.00    -0.457 A  
HETATM   10  C   UNL     1     -10.701   7.662  67.019  1.00  0.00    -0.340 A  
HETATM   11  C   UNL     1     -10.640   8.576  68.072  1.00  0.00    -0.137 A  
HETATM   12  O   UNL     1     -10.460   9.901  67.790  1.00  0.00    -0.208 OA 
HETATM   13  H   UNL     1     -10.365  10.195  66.891  1.00  0.00     0.000 HD 
ENDBRANCH   4   6
ENDBRANCH   3   4
ENDBRANCH   2   3
TORSDOF 3
ENDMDL
MODEL      213
REMARK 921   NORMALIZED FREE ENERGY PREDICTED BY IDOCK:   -2.41 KCAL/MOL
REMARK 922        TOTAL FREE ENERGY PREDICTED BY IDOCK:   -3.29 KCAL/MOL
REMARK 923 INTER-LIGAND FREE ENERGY PREDICTED BY IDOCK:   -2.87 KCAL/MOL
REMARK 924 INTRA-LIGAND FREE ENERGY PREDICTED BY IDOCK:   -0.42 KCAL/MOL
REMARK 927      BINDING AFFINITY PREDICTED BY RF-SCORE:    0.00 PKD
ROOT
HETATM    1  C   UNL     1      -5.892  13.400  69.441  1.00  0.00    -0.093 C  
HETATM    2  C   UNL     1      -6.814  13.325  68.234  1.00  0.00    -0.105 C  
ENDROOT
BRANCH   2   3
HETATM    3  O   UNL     1      -7.734  14.421  68.311  1.00  0.00    -0.112 OA 
BRANCH   3   4
HETATM    4  C   UNL     1      -8.619  14.500  67.280  1.00  0.00    -0.215 C  
HETATM    5  O   UNL     1      -8.450  15.127  66.248  1.00  0.00    -0.125 OA 
BRANCH   4   6
HETATM    6  C   UNL     1      -9.747  13.568  67.543  1.00  0.00    -0.228 A  
HETATM    7  C   UNL     1     -10.554  13.763  68.680  1.00  0.00    -0.263 A  
HETATM    8  C   UNL     1     -11.530  12.828  69.027  1.00  0.00    -0.360 A  
HETATM    9  C   UNL     1     -11.708  11.690  68.244  1.00  0.00    -0.374 A  
HETATM   10  C   UNL     1     -10.923  11.492  67.106  1.00  0.00    -0.338 A  
HETATM   11  C   UNL     1      -9.947  12.427  66.757  1.00  0.00    -0.225 A  
HETATM   12  O   UNL     1      -9.203  12.219  65.631  1.00  0.00    -0.433 OA 
HETATM   13  H   UNL     1      -9.339  11.445  65.098  1.00  0.00     0.000 HD 
ENDBRANCH   4   6
ENDBRANCH   3   4
ENDBRANCH   2   3
TORSDOF 3
ENDMDL
MODEL      214
REMARK 921   NORMALIZED FREE ENERGY PREDICTED BY IDOCK:   -2.41 KCAL/MOL
REMARK 922        TOTAL FREE ENERGY PREDICTED BY IDOCK:   -3.28 KCAL/MOL
REMARK 923 INTER-LIGAND FREE ENERGY PREDICTED BY IDOCK:   -3.25 KCAL/MOL
REMARK 924 INTRA-LIGAND FREE ENERGY PREDICTED BY IDOCK:   -0.03 KCAL/MOL
REMARK 927      BINDING AFFINITY PREDICTED BY RF-SCORE:    0.00 PKD
ROOT
HETATM    1  C   UNL     1      -9.892  14.504  66.402  1.00  0.00    -0.306 C  
HETATM    2  C   UNL     1      -9.929  15.959  65.961  1.00  0.00    -0.334 C  
ENDROOT
BRANCH   2   3
HETATM    3  O   UNL     1      -8.604  16.491  66.076  1.00  0.00    -0.398 OA 
BRANCH   3   4
HETATM    4  C   UNL     1      -8.231  16.834  67.338  1.00  0.00    -0.177 C  
HETATM    5  O   UNL     1      -8.077  16.057  68.266  1.00  0.00    -0.144 OA 
BRANCH   4   6
HETATM    6  C   UNL     1      -7.880  18.278  67.361  1.00  0.00    -0.229 A  
HETATM    7  C   UNL     1      -8.167  19.076  66.238  1.00  0.00    -0.294 A  
HETATM    8  C   UNL     1      -7.727  20.399  66.175  1.00  0.00    -0.146 A  
HETATM    9  C   UNL     1      -6.996  20.936  67.232  1.00  0.00    -0.436 A  
HETATM   10  C   UNL     1      -6.717  20.159  68.358  1.00  0.00    -0.337 A  
HETATM   11  C   UNL     1      -7.157  18.835  68.422  1.00  0.00    -0.265 A  
HETATM   12  O   UNL     1      -6.885  18.101  69.541  1.00  0.00    -0.180 OA 
HETATM   13  H   UNL     1      -6.394  18.479  70.260  1.00  0.00     0.000 HD 
ENDBRANCH   4   6
ENDBRANCH   3   4
ENDBRANCH   2   3
TORSDOF 3
ENDMDL
MODEL      215
REMARK 921   NORMALIZED FREE ENERGY PREDICTED BY IDOCK:   -2.40 KCAL/MOL
REMARK 922        TOTAL FREE ENERGY PREDICTED BY IDOCK:   -3.28 KCAL/MOL
REMARK 923 INTER-LIGAND FREE ENERGY PREDICTED BY IDOCK:   -2.86 KCAL/MOL
REMARK 924 INTRA-LIGAND FREE ENERGY PREDICTED BY IDOCK:   -0.41 KCAL/MOL
REMARK 927      BINDING AFFINITY PREDICTED BY RF-SCORE:    0.00 PKD
ROOT
HETATM    1  C   UNL     1      -8.821   2.470  70.407  1.00  0.00    -0.145 C  
HETATM    2  C   UNL     1      -8.880   3.881  70.973  1.00  0.00    -0.084 C  
ENDROOT
BRANCH   2   3
HETATM    3  O   UNL     1     -10.103   4.484  70.532  1.00  0.00    -0.222 OA 
BRANCH   3   4
HETATM    4  C   UNL     1     -10.635   5.395  71.391  1.00  0.00    -0.212 C  
HETATM    5  O   UNL     1     -11.233   5.132  72.420  1.00  0.00    -0.198 OA 
BRANCH   4   6
HETATM    6  C   UNL     1     -10.226   6.758  70.960  1.00  0.00    -0.217 A  
HETATM    7  C   UNL     1      -9.486   7.568  71.842  1.00  0.00    -0.173 A  
HETATM    8  C   UNL     1      -9.207   8.897  71.521  1.00  0.00    -0.322 A  
HETATM    9  C   UNL     1      -9.664   9.429  70.318  1.00  0.00    -0.292 A  
HETATM   10  C   UNL     1     -10.387   8.632  69.428  1.00  0.00    -0.221 A  
HETATM   11  C   UNL     1     -10.667   7.302  69.748  1.00  0.00    -0.239 A  
HETATM   12  O   UNL     1     -11.361   6.537  68.854  1.00  0.00    -0.537 OA 
HETATM   13  H   UNL     1     -11.660   6.907  68.032  1.00  0.00     0.000 HD 
ENDBRANCH   4   6
ENDBRANCH   3   4
ENDBRANCH   2   3
TORSDOF 3
ENDMDL
MODEL      216
REMARK 921   NORMALIZED FREE ENERGY PREDICTED BY IDOCK:   -2.40 KCAL/MOL
REMARK 922        TOTAL FREE ENERGY PREDICTED BY IDOCK:   -3.27 KCAL/MOL
REMARK 923 INTER-LIGAND FREE ENERGY PREDICTED BY IDOCK:   -2.77 KCAL/MOL
REMARK 924 INTRA-LIGAND FREE ENERGY PREDICTED BY IDOCK:   -0.51 KCAL/MOL
REMARK 927      BINDING AFFINITY PREDICTED BY RF-SCORE:    0.00 PKD
ROOT
HETATM    1  C   UNL     1      -7.505   5.081  71.659  1.00  0.00    -0.091 C  
HETATM    2  C   UNL     1      -8.831   4.601  72.229  1.00  0.00    -0.122 C  
ENDROOT
BRANCH   2   3
HETATM    3  O   UNL     1      -9.828   4.737  71.209  1.00  0.00    -0.167 OA 
BRANCH   3   4
HETATM    4  C   UNL     1     -10.587   5.863  71.296  1.00  0.00    -0.252 C  
HETATM    5  O   UNL     1     -11.097   6.295  72.316  1.00  0.00    -0.244 OA 
BRANCH   4   6
HETATM    6  C   UNL     1     -10.554   6.568  69.987  1.00  0.00    -0.280 A  
HETATM    7  C   UNL     1     -10.994   5.897  68.830  1.00  0.00    -0.337 A  
HETATM    8  C   UNL     1     -10.847   6.480  67.571  1.00  0.00    -0.433 A  
HETATM    9  C   UNL     1     -10.259   7.737  67.456  1.00  0.00    -0.301 A  
HETATM   10  C   UNL     1      -9.831   8.419  68.597  1.00  0.00    -0.180 A  
HETATM   11  C   UNL     1      -9.978   7.836  69.857  1.00  0.00    -0.191 A  
HETATM   12  O   UNL     1      -9.566   8.530  70.959  1.00  0.00    -0.168 OA 
HETATM   13  H   UNL     1      -9.175   9.391  70.870  1.00  0.00     0.000 HD 
ENDBRANCH   4   6
ENDBRANCH   3   4
ENDBRANCH   2   3
TORSDOF 3
ENDMDL
MODEL      217
REMARK 921   NORMALIZED FREE ENERGY PREDICTED BY IDOCK:   -2.38 KCAL/MOL
REMARK 922        TOTAL FREE ENERGY PREDICTED BY IDOCK:   -3.25 KCAL/MOL
REMARK 923 INTER-LIGAND FREE ENERGY PREDICTED BY IDOCK:   -2.97 KCAL/MOL
REMARK 924 INTRA-LIGAND FREE ENERGY PREDICTED BY IDOCK:   -0.28 KCAL/MOL
REMARK 927      BINDING AFFINITY PREDICTED BY RF-SCORE:    0.00 PKD
ROOT
HETATM    1  C   UNL     1      -9.791   5.569  72.150  1.00  0.00    -0.198 C  
HETATM    2  C   UNL     1     -11.114   6.311  72.041  1.00  0.00    -0.268 C  
ENDROOT
BRANCH   2   3
HETATM    3  O   UNL     1     -10.869   7.557  71.376  1.00  0.00    -0.228 OA 
BRANCH   3   4
HETATM    4  C   UNL     1     -10.957   7.511  70.020  1.00  0.00    -0.240 C  
HETATM    5  O   UNL     1     -11.124   6.502  69.355  1.00  0.00    -0.300 OA 
BRANCH   4   6
HETATM    6  C   UNL     1     -10.984   8.900  69.491  1.00  0.00    -0.097 A  
HETATM    7  C   UNL     1     -11.757   9.875  70.152  1.00  0.00    -0.239 A  
HETATM    8  C   UNL     1     -11.913  11.149  69.604  1.00  0.00    -0.429 A  
HETATM    9  C   UNL     1     -11.300  11.460  68.393  1.00  0.00    -0.346 A  
HETATM   10  C   UNL     1     -10.520  10.507  67.735  1.00  0.00    -0.263 A  
HETATM   11  C   UNL     1     -10.364   9.232  68.282  1.00  0.00    -0.217 A  
HETATM   12  O   UNL     1      -9.582   8.322  67.629  1.00  0.00    -0.145 OA 
HETATM   13  H   UNL     1      -9.161   8.548  66.808  1.00  0.00     0.000 HD 
ENDBRANCH   4   6
ENDBRANCH   3   4
ENDBRANCH   2   3
TORSDOF 3
ENDMDL
MODEL      218
REMARK 921   NORMALIZED FREE ENERGY PREDICTED BY IDOCK:   -2.36 KCAL/MOL
REMARK 922        TOTAL FREE ENERGY PREDICTED BY IDOCK:   -3.23 KCAL/MOL
REMARK 923 INTER-LIGAND FREE ENERGY PREDICTED BY IDOCK:   -3.01 KCAL/MOL
REMARK 924 INTRA-LIGAND FREE ENERGY PREDICTED BY IDOCK:   -0.22 KCAL/MOL
REMARK 927      BINDING AFFINITY PREDICTED BY RF-SCORE:    0.00 PKD
ROOT
HETATM    1  C   UNL     1     -12.126   9.614  71.615  1.00  0.00    -0.481 C  
HETATM    2  C   UNL     1     -10.688   9.326  71.212  1.00  0.00    -0.352 C  
ENDROOT
BRANCH   2   3
HETATM    3  O   UNL     1     -10.709   8.645  69.952  1.00  0.00    -0.227 OA 
BRANCH   3   4
HETATM    4  C   UNL     1      -9.551   8.715  69.242  1.00  0.00    -0.166 C  
HETATM    5  O   UNL     1      -8.605   7.953  69.355  1.00  0.00    -0.135 OA 
BRANCH   4   6
HETATM    6  C   UNL     1      -9.690   9.761  68.196  1.00  0.00    -0.163 A  
HETATM    7  C   UNL     1      -9.344  11.092  68.499  1.00  0.00    -0.188 A  
HETATM    8  C   UNL     1      -9.593  12.117  67.585  1.00  0.00    -0.190 A  
HETATM    9  C   UNL     1     -10.189  11.822  66.362  1.00  0.00    -0.248 A  
HETATM   10  C   UNL     1     -10.524  10.505  66.043  1.00  0.00    -0.226 A  
HETATM   11  C   UNL     1     -10.276   9.479  66.957  1.00  0.00    -0.255 A  
HETATM   12  O   UNL     1     -10.597   8.196  66.615  1.00  0.00    -0.384 OA 
HETATM   13  H   UNL     1     -10.994   8.005  65.774  1.00  0.00     0.000 HD 
ENDBRANCH   4   6
ENDBRANCH   3   4
ENDBRANCH   2   3
TORSDOF 3
ENDMDL
MODEL      219
REMARK 921   NORMALIZED FREE ENERGY PREDICTED BY IDOCK:   -2.33 KCAL/MOL
REMARK 922        TOTAL FREE ENERGY PREDICTED BY IDOCK:   -3.19 KCAL/MOL
REMARK 923 INTER-LIGAND FREE ENERGY PREDICTED BY IDOCK:   -3.04 KCAL/MOL
REMARK 924 INTRA-LIGAND FREE ENERGY PREDICTED BY IDOCK:   -0.15 KCAL/MOL
REMARK 927      BINDING AFFINITY PREDICTED BY RF-SCORE:    0.00 PKD
ROOT
HETATM    1  C   UNL     1     -10.497  19.869  67.042  1.00  0.00    -0.570 C  
HETATM    2  C   UNL     1     -10.725  18.422  67.451  1.00  0.00    -0.361 C  
ENDROOT
BRANCH   2   3
HETATM    3  O   UNL     1      -9.577  17.662  67.050  1.00  0.00    -0.261 OA 
BRANCH   3   4
HETATM    4  C   UNL     1      -8.735  17.318  68.061  1.00  0.00    -0.231 C  
HETATM    5  O   UNL     1      -8.354  18.062  68.949  1.00  0.00    -0.241 OA 
BRANCH   4   6
HETATM    6  C   UNL     1      -8.490  15.853  68.005  1.00  0.00    -0.162 A  
HETATM    7  C   UNL     1      -7.168  15.376  67.926  1.00  0.00    -0.160 A  
HETATM    8  C   UNL     1      -6.912  14.018  67.734  1.00  0.00    -0.188 A  
HETATM    9  C   UNL     1      -7.973  13.124  67.618  1.00  0.00    -0.174 A  
HETATM   10  C   UNL     1      -9.289  13.582  67.709  1.00  0.00    -0.213 A  
HETATM   11  C   UNL     1      -9.546  14.941  67.901  1.00  0.00    -0.205 A  
HETATM   12  O   UNL     1     -10.842  15.362  68.004  1.00  0.00    -0.273 OA 
HETATM   13  H   UNL     1     -11.558  14.742  67.933  1.00  0.00     0.000 HD 
ENDBRANCH   4   6
ENDBRANCH   3   4
ENDBRANCH   2   3
TORSDOF 3
ENDMDL
MODEL      220
REMARK 921   NORMALIZED FREE ENERGY PREDICTED BY IDOCK:   -2.32 KCAL/MOL
REMARK 922        TOTAL FREE ENERGY PREDICTED BY IDOCK:   -3.17 KCAL/MOL
REMARK 923 INTER-LIGAND FREE ENERGY PREDICTED BY IDOCK:   -2.69 KCAL/MOL
REMARK 924 INTRA-LIGAND FREE ENERGY PREDICTED BY IDOCK:   -0.48 KCAL/MOL
REMARK 927      BINDING AFFINITY PREDICTED BY RF-SCORE:    0.00 PKD
ROOT
HETATM    1  C   UNL     1      -7.736   8.906  65.600  1.00  0.00    -0.087 C  
HETATM    2  C   UNL     1      -9.115   9.476  65.892  1.00  0.00    -0.184 C  
ENDROOT
BRANCH   2   3
HETATM    3  O   UNL     1      -9.862   8.483  66.607  1.00  0.00    -0.226 OA 
BRANCH   3   4
HETATM    4  C   UNL     1     -10.141   8.798  67.901  1.00  0.00    -0.207 C  
HETATM    5  O   UNL     1     -10.572   9.870  68.292  1.00  0.00    -0.205 OA 
BRANCH   4   6
HETATM    6  C   UNL     1      -9.997   7.576  68.735  1.00  0.00    -0.175 A  
HETATM    7  C   UNL     1      -8.993   6.640  68.421  1.00  0.00    -0.123 A  
HETATM    8  C   UNL     1      -8.921   5.422  69.097  1.00  0.00    -0.120 A  
HETATM    9  C   UNL     1      -9.850   5.126  70.091  1.00  0.00    -0.300 A  
HETATM   10  C   UNL     1     -10.842   6.052  70.421  1.00  0.00    -0.386 A  
HETATM   11  C   UNL     1     -10.915   7.271  69.745  1.00  0.00    -0.216 A  
HETATM   12  O   UNL     1     -11.885   8.166  70.098  1.00  0.00    -0.461 OA 
HETATM   13  H   UNL     1     -12.508   7.959  70.784  1.00  0.00     0.000 HD 
ENDBRANCH   4   6
ENDBRANCH   3   4
ENDBRANCH   2   3
TORSDOF 3
ENDMDL
MODEL      221
REMARK 921   NORMALIZED FREE ENERGY PREDICTED BY IDOCK:   -2.30 KCAL/MOL
REMARK 922        TOTAL FREE ENERGY PREDICTED BY IDOCK:   -3.15 KCAL/MOL
REMARK 923 INTER-LIGAND FREE ENERGY PREDICTED BY IDOCK:   -2.76 KCAL/MOL
REMARK 924 INTRA-LIGAND FREE ENERGY PREDICTED BY IDOCK:   -0.39 KCAL/MOL
REMARK 927      BINDING AFFINITY PREDICTED BY RF-SCORE:    0.00 PKD
ROOT
HETATM    1  C   UNL     1      -7.010   7.723  63.408  1.00  0.00    -0.072 C  
HETATM    2  C   UNL     1      -7.232   8.934  64.300  1.00  0.00    -0.091 C  
ENDROOT
BRANCH   2   3
HETATM    3  O   UNL     1      -8.475   8.753  64.991  1.00  0.00    -0.161 OA 
BRANCH   3   4
HETATM    4  C   UNL     1      -9.364   9.774  64.849  1.00  0.00    -0.265 C  
HETATM    5  O   UNL     1      -9.725  10.255  63.788  1.00  0.00    -0.302 OA 
BRANCH   4   6
HETATM    6  C   UNL     1      -9.947  10.092  66.178  1.00  0.00    -0.310 A  
HETATM    7  C   UNL     1      -9.862  11.408  66.672  1.00  0.00    -0.233 A  
HETATM    8  C   UNL     1     -10.275  11.708  67.971  1.00  0.00    -0.202 A  
HETATM    9  C   UNL     1     -10.776  10.697  68.788  1.00  0.00    -0.249 A  
HETATM   10  C   UNL     1     -10.878   9.391  68.305  1.00  0.00    -0.163 A  
HETATM   11  C   UNL     1     -10.465   9.090  67.006  1.00  0.00    -0.246 A  
HETATM   12  O   UNL     1     -10.590   7.808  66.551  1.00  0.00    -0.470 OA 
HETATM   13  H   UNL     1     -10.942   7.128  67.113  1.00  0.00     0.000 HD 
ENDBRANCH   4   6
ENDBRANCH   3   4
ENDBRANCH   2   3
TORSDOF 3
ENDMDL
MODEL      222
REMARK 921   NORMALIZED FREE ENERGY PREDICTED BY IDOCK:   -2.30 KCAL/MOL
REMARK 922        TOTAL FREE ENERGY PREDICTED BY IDOCK:   -3.15 KCAL/MOL
REMARK 923 INTER-LIGAND FREE ENERGY PREDICTED BY IDOCK:   -2.90 KCAL/MOL
REMARK 924 INTRA-LIGAND FREE ENERGY PREDICTED BY IDOCK:   -0.26 KCAL/MOL
REMARK 927      BINDING AFFINITY PREDICTED BY RF-SCORE:    0.00 PKD
ROOT
HETATM    1  C   UNL     1      -8.647   7.687  69.191  1.00  0.00    -0.139 C  
HETATM    2  C   UNL     1      -9.358   8.716  70.057  1.00  0.00    -0.162 C  
ENDROOT
BRANCH   2   3
HETATM    3  O   UNL     1     -10.038   9.631  69.188  1.00  0.00    -0.173 OA 
BRANCH   3   4
HETATM    4  C   UNL     1      -9.229  10.500  68.524  1.00  0.00    -0.168 C  
HETATM    5  O   UNL     1      -8.077  10.764  68.824  1.00  0.00    -0.126 OA 
BRANCH   4   6
HETATM    6  C   UNL     1      -9.916  10.945  67.284  1.00  0.00    -0.216 A  
HETATM    7  C   UNL     1      -9.239  10.863  66.052  1.00  0.00    -0.210 A  
HETATM    8  C   UNL     1      -9.804  11.399  64.894  1.00  0.00    -0.301 A  
HETATM    9  C   UNL     1     -11.048  12.022  64.955  1.00  0.00    -0.368 A  
HETATM   10  C   UNL     1     -11.736  12.097  66.168  1.00  0.00    -0.384 A  
HETATM   11  C   UNL     1     -11.172  11.561  67.327  1.00  0.00    -0.301 A  
HETATM   12  O   UNL     1     -11.872  11.632  68.498  1.00  0.00    -0.348 OA 
HETATM   13  H   UNL     1     -12.724  12.050  68.527  1.00  0.00     0.000 HD 
ENDBRANCH   4   6
ENDBRANCH   3   4
ENDBRANCH   2   3
TORSDOF 3
ENDMDL
MODEL      223
REMARK 921   NORMALIZED FREE ENERGY PREDICTED BY IDOCK:   -2.27 KCAL/MOL
REMARK 922        TOTAL FREE ENERGY PREDICTED BY IDOCK:   -3.12 KCAL/MOL
REMARK 923 INTER-LIGAND FREE ENERGY PREDICTED BY IDOCK:   -2.74 KCAL/MOL
REMARK 924 INTRA-LIGAND FREE ENERGY PREDICTED BY IDOCK:   -0.38 KCAL/MOL
REMARK 927      BINDING AFFINITY PREDICTED BY RF-SCORE:    0.00 PKD
ROOT
HETATM    1  C   UNL     1      -9.352   7.373  73.982  1.00  0.00    -0.282 C  
HETATM    2  C   UNL     1     -10.375   7.461  72.861  1.00  0.00    -0.279 C  
ENDROOT
BRANCH   2   3
HETATM    3  O   UNL     1     -10.195   8.717  72.194  1.00  0.00    -0.325 OA 
BRANCH   3   4
HETATM    4  C   UNL     1     -11.119   8.995  71.235  1.00  0.00    -0.312 C  
HETATM    5  O   UNL     1     -12.328   8.915  71.373  1.00  0.00    -0.300 OA 
BRANCH   4   6
HETATM    6  C   UNL     1     -10.427   9.571  70.053  1.00  0.00    -0.283 A  
HETATM    7  C   UNL     1     -10.607  10.932  69.742  1.00  0.00    -0.126 A  
HETATM    8  C   UNL     1     -10.083  11.468  68.564  1.00  0.00    -0.211 A  
HETATM    9  C   UNL     1      -9.377  10.649  67.687  1.00  0.00    -0.156 A  
HETATM   10  C   UNL     1      -9.179   9.301  67.991  1.00  0.00    -0.138 A  
HETATM   11  C   UNL     1      -9.702   8.764  69.168  1.00  0.00    -0.175 A  
HETATM   12  O   UNL     1      -9.482   7.446  69.451  1.00  0.00    -0.155 OA 
HETATM   13  H   UNL     1      -8.990   6.899  68.851  1.00  0.00     0.000 HD 
ENDBRANCH   4   6
ENDBRANCH   3   4
ENDBRANCH   2   3
TORSDOF 3
ENDMDL
MODEL      224
REMARK 921   NORMALIZED FREE ENERGY PREDICTED BY IDOCK:   -2.26 KCAL/MOL
REMARK 922        TOTAL FREE ENERGY PREDICTED BY IDOCK:   -3.11 KCAL/MOL
REMARK 923 INTER-LIGAND FREE ENERGY PREDICTED BY IDOCK:   -2.73 KCAL/MOL
REMARK 924 INTRA-LIGAND FREE ENERGY PREDICTED BY IDOCK:   -0.38 KCAL/MOL
REMARK 927      BINDING AFFINITY PREDICTED BY RF-SCORE:    0.00 PKD
ROOT
HETATM    1  C   UNL     1      -7.110   6.861  68.390  1.00  0.00    -0.086 C  
HETATM    2  C   UNL     1      -6.978   7.928  69.465  1.00  0.00    -0.054 C  
ENDROOT
BRANCH   2   3
HETATM    3  O   UNL     1      -8.231   8.022  70.153  1.00  0.00    -0.116 OA 
BRANCH   3   4
HETATM    4  C   UNL     1      -9.161   8.810  69.547  1.00  0.00    -0.146 C  
HETATM    5  O   UNL     1      -8.956   9.537  68.590  1.00  0.00    -0.130 OA 
BRANCH   4   6
HETATM    6  C   UNL     1     -10.495   8.514  70.131  1.00  0.00    -0.226 A  
HETATM    7  C   UNL     1     -11.189   9.530  70.816  1.00  0.00    -0.383 A  
HETATM    8  C   UNL     1     -12.377   9.248  71.492  1.00  0.00    -0.439 A  
HETATM    9  C   UNL     1     -12.882   7.950  71.490  1.00  0.00    -0.340 A  
HETATM   10  C   UNL     1     -12.211   6.937  70.802  1.00  0.00    -0.364 A  
HETATM   11  C   UNL     1     -11.022   7.218  70.126  1.00  0.00    -0.260 A  
HETATM   12  O   UNL     1     -10.393   6.214  69.447  1.00  0.00    -0.189 OA 
HETATM   13  H   UNL     1     -10.751   5.334  69.444  1.00  0.00     0.000 HD 
ENDBRANCH   4   6
ENDBRANCH   3   4
ENDBRANCH   2   3
TORSDOF 3
ENDMDL
MODEL      225
REMARK 921   NORMALIZED FREE ENERGY PREDICTED BY IDOCK:   -2.26 KCAL/MOL
REMARK 922        TOTAL FREE ENERGY PREDICTED BY IDOCK:   -3.10 KCAL/MOL
REMARK 923 INTER-LIGAND FREE ENERGY PREDICTED BY IDOCK:   -2.64 KCAL/MOL
REMARK 924 INTRA-LIGAND FREE ENERGY PREDICTED BY IDOCK:   -0.46 KCAL/MOL
REMARK 927      BINDING AFFINITY PREDICTED BY RF-SCORE:    0.00 PKD
ROOT
HETATM    1  C   UNL     1      -7.912  11.021  68.557  1.00  0.00    -0.137 C  
HETATM    2  C   UNL     1      -7.991  10.048  67.391  1.00  0.00    -0.106 C  
ENDROOT
BRANCH   2   3
HETATM    3  O   UNL     1      -9.011   9.086  67.685  1.00  0.00    -0.124 OA 
BRANCH   3   4
HETATM    4  C   UNL     1      -8.561   7.912  68.206  1.00  0.00    -0.124 C  
HETATM    5  O   UNL     1      -7.480   7.400  67.965  1.00  0.00    -0.100 OA 
BRANCH   4   6
HETATM    6  C   UNL     1      -9.521   7.444  69.238  1.00  0.00    -0.154 A  
HETATM    7  C   UNL     1      -9.109   7.369  70.582  1.00  0.00    -0.156 A  
HETATM    8  C   UNL     1      -9.940   6.804  71.551  1.00  0.00    -0.189 A  
HETATM    9  C   UNL     1     -11.190   6.309  71.186  1.00  0.00    -0.365 A  
HETATM   10  C   UNL     1     -11.616   6.390  69.859  1.00  0.00    -0.422 A  
HETATM   11  C   UNL     1     -10.785   6.955  68.889  1.00  0.00    -0.222 A  
HETATM   12  O   UNL     1     -11.232   7.038  67.601  1.00  0.00    -0.543 OA 
HETATM   13  H   UNL     1     -12.089   6.706  67.365  1.00  0.00     0.000 HD 
ENDBRANCH   4   6
ENDBRANCH   3   4
ENDBRANCH   2   3
TORSDOF 3
ENDMDL
MODEL      226
REMARK 921   NORMALIZED FREE ENERGY PREDICTED BY IDOCK:   -2.25 KCAL/MOL
REMARK 922        TOTAL FREE ENERGY PREDICTED BY IDOCK:   -3.10 KCAL/MOL
REMARK 923 INTER-LIGAND FREE ENERGY PREDICTED BY IDOCK:   -2.64 KCAL/MOL
REMARK 924 INTRA-LIGAND FREE ENERGY PREDICTED BY IDOCK:   -0.45 KCAL/MOL
REMARK 927      BINDING AFFINITY PREDICTED BY RF-SCORE:    0.00 PKD
ROOT
HETATM    1  C   UNL     1      -6.495   9.804  70.428  1.00  0.00    -0.101 C  
HETATM    2  C   UNL     1      -7.995   9.556  70.493  1.00  0.00    -0.159 C  
ENDROOT
BRANCH   2   3
HETATM    3  O   UNL     1      -8.248   8.650  71.574  1.00  0.00    -0.145 OA 
BRANCH   3   4
HETATM    4  C   UNL     1      -9.544   8.257  71.702  1.00  0.00    -0.198 C  
HETATM    5  O   UNL     1     -10.447   8.935  72.162  1.00  0.00    -0.336 OA 
BRANCH   4   6
HETATM    6  C   UNL     1      -9.713   6.938  71.039  1.00  0.00    -0.178 A  
HETATM    7  C   UNL     1      -8.824   5.891  71.347  1.00  0.00    -0.137 A  
HETATM    8  C   UNL     1      -8.871   4.687  70.642  1.00  0.00    -0.141 A  
HETATM    9  C   UNL     1      -9.806   4.519  69.624  1.00  0.00    -0.288 A  
HETATM   10  C   UNL     1     -10.703   5.544  69.318  1.00  0.00    -0.288 A  
HETATM   11  C   UNL     1     -10.657   6.748  70.023  1.00  0.00    -0.220 A  
HETATM   12  O   UNL     1     -11.556   7.730  69.717  1.00  0.00    -0.450 OA 
HETATM   13  H   UNL     1     -12.196   7.601  69.027  1.00  0.00     0.000 HD 
ENDBRANCH   4   6
ENDBRANCH   3   4
ENDBRANCH   2   3
TORSDOF 3
ENDMDL
MODEL      227
REMARK 921   NORMALIZED FREE ENERGY PREDICTED BY IDOCK:   -2.25 KCAL/MOL
REMARK 922        TOTAL FREE ENERGY PREDICTED BY IDOCK:   -3.10 KCAL/MOL
REMARK 923 INTER-LIGAND FREE ENERGY PREDICTED BY IDOCK:   -2.63 KCAL/MOL
REMARK 924 INTRA-LIGAND FREE ENERGY PREDICTED BY IDOCK:   -0.47 KCAL/MOL
REMARK 927      BINDING AFFINITY PREDICTED BY RF-SCORE:    0.00 PKD
ROOT
HETATM    1  C   UNL     1     -10.600   4.603  66.065  1.00  0.00    -0.244 C  
HETATM    2  C   UNL     1      -9.462   4.217  66.997  1.00  0.00    -0.192 C  
ENDROOT
BRANCH   2   3
HETATM    3  O   UNL     1      -9.169   5.345  67.831  1.00  0.00    -0.108 OA 
BRANCH   3   4
HETATM    4  C   UNL     1      -9.673   5.273  69.092  1.00  0.00    -0.168 C  
HETATM    5  O   UNL     1      -9.995   4.247  69.668  1.00  0.00    -0.214 OA 
BRANCH   4   6
HETATM    6  C   UNL     1      -9.611   6.622  69.713  1.00  0.00    -0.155 A  
HETATM    7  C   UNL     1      -8.974   6.780  70.959  1.00  0.00    -0.145 A  
HETATM    8  C   UNL     1      -9.019   8.002  71.630  1.00  0.00    -0.192 A  
HETATM    9  C   UNL     1      -9.702   9.077  71.065  1.00  0.00    -0.348 A  
HETATM   10  C   UNL     1     -10.326   8.937  69.824  1.00  0.00    -0.213 A  
HETATM   11  C   UNL     1     -10.281   7.714  69.151  1.00  0.00    -0.203 A  
HETATM   12  O   UNL     1     -10.885   7.607  67.931  1.00  0.00    -0.444 OA 
HETATM   13  H   UNL     1     -11.339   8.349  67.550  1.00  0.00     0.000 HD 
ENDBRANCH   4   6
ENDBRANCH   3   4
ENDBRANCH   2   3
TORSDOF 3
ENDMDL
MODEL      228
REMARK 921   NORMALIZED FREE ENERGY PREDICTED BY IDOCK:   -2.23 KCAL/MOL
REMARK 922        TOTAL FREE ENERGY PREDICTED BY IDOCK:   -3.08 KCAL/MOL
REMARK 923 INTER-LIGAND FREE ENERGY PREDICTED BY IDOCK:   -2.79 KCAL/MOL
REMARK 924 INTRA-LIGAND FREE ENERGY PREDICTED BY IDOCK:   -0.29 KCAL/MOL
REMARK 927      BINDING AFFINITY PREDICTED BY RF-SCORE:    0.00 PKD
ROOT
HETATM    1  C   UNL     1     -10.479   5.932  69.656  1.00  0.00    -0.346 C  
HETATM    2  C   UNL     1      -9.547   7.029  69.166  1.00  0.00    -0.149 C  
ENDROOT
BRANCH   2   3
HETATM    3  O   UNL     1     -10.257   8.272  69.225  1.00  0.00    -0.196 OA 
BRANCH   3   4
HETATM    4  C   UNL     1      -9.727   9.196  70.072  1.00  0.00    -0.195 C  
HETATM    5  O   UNL     1      -8.848   8.984  70.891  1.00  0.00    -0.203 OA 
BRANCH   4   6
HETATM    6  C   UNL     1     -10.271  10.535  69.724  1.00  0.00    -0.168 A  
HETATM    7  C   UNL     1     -11.531  10.920  70.222  1.00  0.00    -0.391 A  
HETATM    8  C   UNL     1     -12.127  12.110  69.803  1.00  0.00    -0.306 A  
HETATM    9  C   UNL     1     -11.472  12.925  68.884  1.00  0.00    -0.350 A  
HETATM   10  C   UNL     1     -10.216  12.562  68.394  1.00  0.00    -0.230 A  
HETATM   11  C   UNL     1      -9.619  11.372  68.812  1.00  0.00    -0.129 A  
HETATM   12  O   UNL     1      -8.382  11.047  68.331  1.00  0.00    -0.125 OA 
HETATM   13  H   UNL     1      -7.940  11.615  67.712  1.00  0.00     0.000 HD 
ENDBRANCH   4   6
ENDBRANCH   3   4
ENDBRANCH   2   3
TORSDOF 3
ENDMDL
MODEL      229
REMARK 921   NORMALIZED FREE ENERGY PREDICTED BY IDOCK:   -2.23 KCAL/MOL
REMARK 922        TOTAL FREE ENERGY PREDICTED BY IDOCK:   -3.07 KCAL/MOL
REMARK 923 INTER-LIGAND FREE ENERGY PREDICTED BY IDOCK:   -2.69 KCAL/MOL
REMARK 924 INTRA-LIGAND FREE ENERGY PREDICTED BY IDOCK:   -0.38 KCAL/MOL
REMARK 927      BINDING AFFINITY PREDICTED BY RF-SCORE:    0.00 PKD
ROOT
HETATM    1  C   UNL     1      -7.586   5.526  66.064  1.00  0.00    -0.087 C  
HETATM    2  C   UNL     1      -8.594   6.664  66.031  1.00  0.00    -0.148 C  
ENDROOT
BRANCH   2   3
HETATM    3  O   UNL     1      -8.778   7.132  67.373  1.00  0.00    -0.120 OA 
BRANCH   3   4
HETATM    4  C   UNL     1     -10.041   6.995  67.859  1.00  0.00    -0.169 C  
HETATM    5  O   UNL     1     -10.632   5.938  68.008  1.00  0.00    -0.220 OA 
BRANCH   4   6
HETATM    6  C   UNL     1     -10.519   8.319  68.336  1.00  0.00    -0.206 A  
HETATM    7  C   UNL     1     -10.736   9.351  67.403  1.00  0.00    -0.280 A  
HETATM    8  C   UNL     1     -11.052  10.642  67.831  1.00  0.00    -0.371 A  
HETATM    9  C   UNL     1     -11.152  10.913  69.193  1.00  0.00    -0.301 A  
HETATM   10  C   UNL     1     -10.953   9.895  70.128  1.00  0.00    -0.356 A  
HETATM   11  C   UNL     1     -10.637   8.604  69.700  1.00  0.00    -0.218 A  
HETATM   12  O   UNL     1     -10.463   7.621  70.633  1.00  0.00    -0.212 OA 
HETATM   13  H   UNL     1     -10.544   7.815  71.560  1.00  0.00     0.000 HD 
ENDBRANCH   4   6
ENDBRANCH   3   4
ENDBRANCH   2   3
TORSDOF 3
ENDMDL
MODEL      230
REMARK 921   NORMALIZED FREE ENERGY PREDICTED BY IDOCK:   -2.21 KCAL/MOL
REMARK 922        TOTAL FREE ENERGY PREDICTED BY IDOCK:   -3.05 KCAL/MOL
REMARK 923 INTER-LIGAND FREE ENERGY PREDICTED BY IDOCK:   -2.64 KCAL/MOL
REMARK 924 INTRA-LIGAND FREE ENERGY PREDICTED BY IDOCK:   -0.42 KCAL/MOL
REMARK 927      BINDING AFFINITY PREDICTED BY RF-SCORE:    0.00 PKD
ROOT
HETATM    1  C   UNL     1      -7.747  10.091  69.855  1.00  0.00    -0.183 C  
HETATM    2  C   UNL     1      -8.443   8.836  70.359  1.00  0.00    -0.153 C  
ENDROOT
BRANCH   2   3
HETATM    3  O   UNL     1      -9.000   9.125  71.648  1.00  0.00    -0.336 OA 
BRANCH   3   4
HETATM    4  C   UNL     1      -8.567   8.317  72.653  1.00  0.00    -0.198 C  
HETATM    5  O   UNL     1      -7.765   8.631  73.517  1.00  0.00    -0.389 OA 
BRANCH   4   6
HETATM    6  C   UNL     1      -9.351   7.055  72.628  1.00  0.00    -0.159 A  
HETATM    7  C   UNL     1     -10.746   7.104  72.818  1.00  0.00    -0.325 A  
HETATM    8  C   UNL     1     -11.489   5.929  72.936  1.00  0.00    -0.223 A  
HETATM    9  C   UNL     1     -10.846   4.695  72.868  1.00  0.00    -0.295 A  
HETATM   10  C   UNL     1      -9.466   4.633  72.665  1.00  0.00    -0.163 A  
HETATM   11  C   UNL     1      -8.722   5.808  72.546  1.00  0.00    -0.124 A  
HETATM   12  O   UNL     1      -7.376   5.721  72.333  1.00  0.00    -0.091 OA 
HETATM   13  H   UNL     1      -6.949   4.874  72.278  1.00  0.00     0.000 HD 
ENDBRANCH   4   6
ENDBRANCH   3   4
ENDBRANCH   2   3
TORSDOF 3
ENDMDL
MODEL      231
REMARK 921   NORMALIZED FREE ENERGY PREDICTED BY IDOCK:   -2.21 KCAL/MOL
REMARK 922        TOTAL FREE ENERGY PREDICTED BY IDOCK:   -3.05 KCAL/MOL
REMARK 923 INTER-LIGAND FREE ENERGY PREDICTED BY IDOCK:   -2.94 KCAL/MOL
REMARK 924 INTRA-LIGAND FREE ENERGY PREDICTED BY IDOCK:   -0.11 KCAL/MOL
REMARK 927      BINDING AFFINITY PREDICTED BY RF-SCORE:    0.00 PKD
ROOT
HETATM    1  C   UNL     1     -14.151   8.304  71.702  1.00  0.00    -0.489 C  
HETATM    2  C   UNL     1     -13.525   9.412  70.870  1.00  0.00     0.000 C  
ENDROOT
BRANCH   2   3
HETATM    3  O   UNL     1     -12.125   9.457  71.173  1.00  0.00    -0.300 OA 
BRANCH   3   4
HETATM    4  C   UNL     1     -11.351  10.048  70.223  1.00  0.00    -0.308 C  
HETATM    5  O   UNL     1     -10.985  11.212  70.231  1.00  0.00    -0.077 OA 
BRANCH   4   6
HETATM    6  C   UNL     1     -10.887   9.010  69.265  1.00  0.00    -0.131 A  
HETATM    7  C   UNL     1     -10.739   9.342  67.905  1.00  0.00    -0.248 A  
HETATM    8  C   UNL     1     -10.440   8.358  66.962  1.00  0.00    -0.375 A  
HETATM    9  C   UNL     1     -10.287   7.035  67.368  1.00  0.00    -0.313 A  
HETATM   10  C   UNL     1     -10.418   6.695  68.716  1.00  0.00    -0.241 A  
HETATM   11  C   UNL     1     -10.717   7.679  69.660  1.00  0.00    -0.228 A  
HETATM   12  O   UNL     1     -10.824   7.324  70.975  1.00  0.00    -0.234 OA 
HETATM   13  H   UNL     1     -10.708   6.420  71.243  1.00  0.00     0.000 HD 
ENDBRANCH   4   6
ENDBRANCH   3   4
ENDBRANCH   2   3
TORSDOF 3
ENDMDL
MODEL      232
REMARK 921   NORMALIZED FREE ENERGY PREDICTED BY IDOCK:   -2.20 KCAL/MOL
REMARK 922        TOTAL FREE ENERGY PREDICTED BY IDOCK:   -3.03 KCAL/MOL
REMARK 923 INTER-LIGAND FREE ENERGY PREDICTED BY IDOCK:   -3.15 KCAL/MOL
REMARK 924 INTRA-LIGAND FREE ENERGY PREDICTED BY IDOCK:    0.11 KCAL/MOL
REMARK 927      BINDING AFFINITY PREDICTED BY RF-SCORE:    0.00 PKD
ROOT
HETATM    1  C   UNL     1      -6.509  15.616  67.618  1.00  0.00    -0.191 C  
HETATM    2  C   UNL     1      -7.901  15.440  68.205  1.00  0.00    -0.124 C  
ENDROOT
BRANCH   2   3
HETATM    3  O   UNL     1      -8.638  16.646  67.966  1.00  0.00    -0.186 OA 
BRANCH   3   4
HETATM    4  C   UNL     1      -8.252  17.345  66.864  1.00  0.00    -0.231 C  
HETATM    5  O   UNL     1      -8.652  17.152  65.728  1.00  0.00    -0.525 OA 
BRANCH   4   6
HETATM    6  C   UNL     1      -7.398  18.483  67.291  1.00  0.00    -0.222 A  
HETATM    7  C   UNL     1      -7.579  19.040  68.572  1.00  0.00    -0.364 A  
HETATM    8  C   UNL     1      -6.890  20.193  68.950  1.00  0.00    -0.269 A  
HETATM    9  C   UNL     1      -6.015  20.801  68.052  1.00  0.00    -0.352 A  
HETATM   10  C   UNL     1      -5.816  20.251  66.784  1.00  0.00    -0.201 A  
HETATM   11  C   UNL     1      -6.505  19.097  66.406  1.00  0.00    -0.188 A  
HETATM   12  O   UNL     1      -6.281  18.569  65.166  1.00  0.00    -0.293 OA 
HETATM   13  H   UNL     1      -5.675  18.986  64.566  1.00  0.00     0.000 HD 
ENDBRANCH   4   6
ENDBRANCH   3   4
ENDBRANCH   2   3
TORSDOF 3
ENDMDL
MODEL      233
REMARK 921   NORMALIZED FREE ENERGY PREDICTED BY IDOCK:   -2.20 KCAL/MOL
REMARK 922        TOTAL FREE ENERGY PREDICTED BY IDOCK:   -3.03 KCAL/MOL
REMARK 923 INTER-LIGAND FREE ENERGY PREDICTED BY IDOCK:   -2.59 KCAL/MOL
REMARK 924 INTRA-LIGAND FREE ENERGY PREDICTED BY IDOCK:   -0.44 KCAL/MOL
REMARK 927      BINDING AFFINITY PREDICTED BY RF-SCORE:    0.00 PKD
ROOT
HETATM    1  C   UNL     1      -9.748   4.761  67.458  1.00  0.00    -0.209 C  
HETATM    2  C   UNL     1     -10.439   5.751  66.533  1.00  0.00    -0.220 C  
ENDROOT
BRANCH   2   3
HETATM    3  O   UNL     1     -11.158   6.688  67.344  1.00  0.00    -0.346 OA 
BRANCH   3   4
HETATM    4  C   UNL     1     -10.579   7.914  67.455  1.00  0.00    -0.242 C  
HETATM    5  O   UNL     1     -10.588   8.782  66.598  1.00  0.00    -0.226 OA 
BRANCH   4   6
HETATM    6  C   UNL     1     -10.080   8.087  68.845  1.00  0.00    -0.209 A  
HETATM    7  C   UNL     1     -10.999   8.100  69.911  1.00  0.00    -0.168 A  
HETATM    8  C   UNL     1     -10.578   8.397  71.208  1.00  0.00    -0.279 A  
HETATM    9  C   UNL     1      -9.237   8.684  71.451  1.00  0.00    -0.303 A  
HETATM   10  C   UNL     1      -8.314   8.660  70.405  1.00  0.00    -0.133 A  
HETATM   11  C   UNL     1      -8.734   8.363  69.107  1.00  0.00    -0.142 A  
HETATM   12  O   UNL     1      -7.809   8.330  68.103  1.00  0.00    -0.114 OA 
HETATM   13  H   UNL     1      -6.895   8.518  68.281  1.00  0.00     0.000 HD 
ENDBRANCH   4   6
ENDBRANCH   3   4
ENDBRANCH   2   3
TORSDOF 3
ENDMDL
MODEL      234
REMARK 921   NORMALIZED FREE ENERGY PREDICTED BY IDOCK:   -2.19 KCAL/MOL
REMARK 922        TOTAL FREE ENERGY PREDICTED BY IDOCK:   -3.03 KCAL/MOL
REMARK 923 INTER-LIGAND FREE ENERGY PREDICTED BY IDOCK:   -2.52 KCAL/MOL
REMARK 924 INTRA-LIGAND FREE ENERGY PREDICTED BY IDOCK:   -0.51 KCAL/MOL
REMARK 927      BINDING AFFINITY PREDICTED BY RF-SCORE:    0.00 PKD
ROOT
HETATM    1  C   UNL     1      -9.841   8.989  68.762  1.00  0.00    -0.180 C  
HETATM    2  C   UNL     1      -8.464   9.597  68.977  1.00  0.00    -0.131 C  
ENDROOT
BRANCH   2   3
HETATM    3  O   UNL     1      -7.992  10.083  67.714  1.00  0.00    -0.104 OA 
BRANCH   3   4
HETATM    4  C   UNL     1      -7.971  11.438  67.593  1.00  0.00    -0.123 C  
HETATM    5  O   UNL     1      -7.099  12.174  68.023  1.00  0.00    -0.081 OA 
BRANCH   4   6
HETATM    6  C   UNL     1      -9.092  11.860  66.712  1.00  0.00    -0.197 A  
HETATM    7  C   UNL     1     -10.203  12.516  67.275  1.00  0.00    -0.222 A  
HETATM    8  C   UNL     1     -11.328  12.800  66.500  1.00  0.00    -0.369 A  
HETATM    9  C   UNL     1     -11.354  12.430  65.157  1.00  0.00    -0.367 A  
HETATM   10  C   UNL     1     -10.253  11.792  64.584  1.00  0.00    -0.326 A  
HETATM   11  C   UNL     1      -9.127  11.507  65.359  1.00  0.00    -0.052 A  
HETATM   12  O   UNL     1      -8.056  10.896  64.771  1.00  0.00    -0.365 OA 
HETATM   13  H   UNL     1      -8.080  10.657  63.852  1.00  0.00     0.000 HD 
ENDBRANCH   4   6
ENDBRANCH   3   4
ENDBRANCH   2   3
TORSDOF 3
ENDMDL
MODEL      235
REMARK 921   NORMALIZED FREE ENERGY PREDICTED BY IDOCK:   -2.16 KCAL/MOL
REMARK 922        TOTAL FREE ENERGY PREDICTED BY IDOCK:   -2.99 KCAL/MOL
REMARK 923 INTER-LIGAND FREE ENERGY PREDICTED BY IDOCK:   -2.59 KCAL/MOL
REMARK 924 INTRA-LIGAND FREE ENERGY PREDICTED BY IDOCK:   -0.40 KCAL/MOL
REMARK 927      BINDING AFFINITY PREDICTED BY RF-SCORE:    0.00 PKD
ROOT
HETATM    1  C   UNL     1      -6.657   8.400  67.892  1.00  0.00    -0.061 C  
HETATM    2  C   UNL     1      -8.174   8.477  67.957  1.00  0.00    -0.120 C  
ENDROOT
BRANCH   2   3
HETATM    3  O   UNL     1      -8.636   7.417  68.804  1.00  0.00    -0.129 OA 
BRANCH   3   4
HETATM    4  C   UNL     1      -9.945   7.500  69.164  1.00  0.00    -0.179 C  
HETATM    5  O   UNL     1     -10.895   7.440  68.401  1.00  0.00    -0.135 OA 
BRANCH   4   6
HETATM    6  C   UNL     1     -10.036   7.507  70.648  1.00  0.00    -0.183 A  
HETATM    7  C   UNL     1      -9.214   6.641  71.394  1.00  0.00    -0.151 A  
HETATM    8  C   UNL     1      -9.372   6.525  72.776  1.00  0.00    -0.146 A  
HETATM    9  C   UNL     1     -10.353   7.271  73.424  1.00  0.00    -0.410 A  
HETATM   10  C   UNL     1     -11.165   8.144  72.697  1.00  0.00    -0.447 A  
HETATM   11  C   UNL     1     -11.007   8.261  71.315  1.00  0.00    -0.243 A  
HETATM   12  O   UNL     1     -11.803   9.134  70.629  1.00  0.00    -0.390 OA 
HETATM   13  H   UNL     1     -12.462   9.645  71.082  1.00  0.00     0.000 HD 
ENDBRANCH   4   6
ENDBRANCH   3   4
ENDBRANCH   2   3
TORSDOF 3
ENDMDL
MODEL      236
REMARK 921   NORMALIZED FREE ENERGY PREDICTED BY IDOCK:   -2.15 KCAL/MOL
REMARK 922        TOTAL FREE ENERGY PREDICTED BY IDOCK:   -2.98 KCAL/MOL
REMARK 923 INTER-LIGAND FREE ENERGY PREDICTED BY IDOCK:   -3.06 KCAL/MOL
REMARK 924 INTRA-LIGAND FREE ENERGY PREDICTED BY IDOCK:    0.08 KCAL/MOL
REMARK 927      BINDING AFFINITY PREDICTED BY RF-SCORE:    0.00 PKD
ROOT
HETATM    1  C   UNL     1      -6.895  13.664  67.590  1.00  0.00    -0.185 C  
HETATM    2  C   UNL     1      -7.946  14.496  68.308  1.00  0.00    -0.137 C  
ENDROOT
BRANCH   2   3
HETATM    3  O   UNL     1      -8.959  13.606  68.794  1.00  0.00    -0.075 OA 
BRANCH   3   4
HETATM    4  C   UNL     1     -10.237  14.033  68.603  1.00  0.00    -0.233 C  
HETATM    5  O   UNL     1     -11.103  14.079  69.460  1.00  0.00    -0.230 OA 
BRANCH   4   6
HETATM    6  C   UNL     1     -10.358  14.588  67.229  1.00  0.00    -0.260 A  
HETATM    7  C   UNL     1     -10.315  15.983  67.042  1.00  0.00    -0.292 A  
HETATM    8  C   UNL     1     -10.564  16.540  65.787  1.00  0.00    -0.307 A  
HETATM    9  C   UNL     1     -10.858  15.709  64.709  1.00  0.00    -0.377 A  
HETATM   10  C   UNL     1     -10.890  14.324  64.878  1.00  0.00    -0.429 A  
HETATM   11  C   UNL     1     -10.641  13.766  66.133  1.00  0.00    -0.291 A  
HETATM   12  O   UNL     1     -10.662  12.407  66.270  1.00  0.00    -0.246 OA 
HETATM   13  H   UNL     1     -10.854  11.849  65.526  1.00  0.00     0.000 HD 
ENDBRANCH   4   6
ENDBRANCH   3   4
ENDBRANCH   2   3
TORSDOF 3
ENDMDL
MODEL      237
REMARK 921   NORMALIZED FREE ENERGY PREDICTED BY IDOCK:   -2.14 KCAL/MOL
REMARK 922        TOTAL FREE ENERGY PREDICTED BY IDOCK:   -2.97 KCAL/MOL
REMARK 923 INTER-LIGAND FREE ENERGY PREDICTED BY IDOCK:   -2.68 KCAL/MOL
REMARK 924 INTRA-LIGAND FREE ENERGY PREDICTED BY IDOCK:   -0.29 KCAL/MOL
REMARK 927      BINDING AFFINITY PREDICTED BY RF-SCORE:    0.00 PKD
ROOT
HETATM    1  C   UNL     1      -5.701   8.175  68.330  1.00  0.00    -0.034 C  
HETATM    2  C   UNL     1      -6.994   7.676  68.956  1.00  0.00    -0.069 C  
ENDROOT
BRANCH   2   3
HETATM    3  O   UNL     1      -8.070   8.476  68.448  1.00  0.00    -0.119 OA 
BRANCH   3   4
HETATM    4  C   UNL     1      -9.314   7.974  68.674  1.00  0.00    -0.146 C  
HETATM    5  O   UNL     1      -9.655   6.818  68.488  1.00  0.00    -0.131 OA 
BRANCH   4   6
HETATM    6  C   UNL     1     -10.139   9.016  69.339  1.00  0.00    -0.198 A  
HETATM    7  C   UNL     1     -10.331   8.959  70.733  1.00  0.00    -0.283 A  
HETATM    8  C   UNL     1     -11.210   9.839  71.366  1.00  0.00    -0.368 A  
HETATM    9  C   UNL     1     -11.906  10.782  70.613  1.00  0.00    -0.460 A  
HETATM   10  C   UNL     1     -11.714  10.857  69.232  1.00  0.00    -0.395 A  
HETATM   11  C   UNL     1     -10.835   9.977  68.598  1.00  0.00    -0.229 A  
HETATM   12  O   UNL     1     -10.652  10.082  67.249  1.00  0.00    -0.244 OA 
HETATM   13  H   UNL     1     -11.124  10.735  66.746  1.00  0.00     0.000 HD 
ENDBRANCH   4   6
ENDBRANCH   3   4
ENDBRANCH   2   3
TORSDOF 3
ENDMDL
MODEL      238
REMARK 921   NORMALIZED FREE ENERGY PREDICTED BY IDOCK:   -2.13 KCAL/MOL
REMARK 922        TOTAL FREE ENERGY PREDICTED BY IDOCK:   -2.95 KCAL/MOL
REMARK 923 INTER-LIGAND FREE ENERGY PREDICTED BY IDOCK:   -2.56 KCAL/MOL
REMARK 924 INTRA-LIGAND FREE ENERGY PREDICTED BY IDOCK:   -0.40 KCAL/MOL
REMARK 927      BINDING AFFINITY PREDICTED BY RF-SCORE:    0.00 PKD
ROOT
HETATM    1  C   UNL     1     -11.120  16.322  64.777  1.00  0.00    -0.293 C  
HETATM    2  C   UNL     1     -10.453  15.087  65.363  1.00  0.00    -0.384 C  
ENDROOT
BRANCH   2   3
HETATM    3  O   UNL     1     -10.264  15.309  66.766  1.00  0.00    -0.262 OA 
BRANCH   3   4
HETATM    4  C   UNL     1     -10.204  14.180  67.523  1.00  0.00    -0.241 C  
HETATM    5  O   UNL     1     -11.105  13.369  67.656  1.00  0.00    -0.253 OA 
BRANCH   4   6
HETATM    6  C   UNL     1      -8.815  14.010  68.024  1.00  0.00    -0.181 A  
HETATM    7  C   UNL     1      -8.104  12.838  67.705  1.00  0.00    -0.175 A  
HETATM    8  C   UNL     1      -6.854  12.588  68.272  1.00  0.00    -0.082 A  
HETATM    9  C   UNL     1      -6.304  13.504  69.164  1.00  0.00    -0.101 A  
HETATM   10  C   UNL     1      -6.992  14.678  69.479  1.00  0.00    -0.165 A  
HETATM   11  C   UNL     1      -8.243  14.929  68.911  1.00  0.00    -0.171 A  
HETATM   12  O   UNL     1      -8.889  16.091  69.222  1.00  0.00    -0.248 OA 
HETATM   13  H   UNL     1      -8.501  16.715  69.824  1.00  0.00     0.000 HD 
ENDBRANCH   4   6
ENDBRANCH   3   4
ENDBRANCH   2   3
TORSDOF 3
ENDMDL
MODEL      239
REMARK 921   NORMALIZED FREE ENERGY PREDICTED BY IDOCK:   -2.13 KCAL/MOL
REMARK 922        TOTAL FREE ENERGY PREDICTED BY IDOCK:   -2.95 KCAL/MOL
REMARK 923 INTER-LIGAND FREE ENERGY PREDICTED BY IDOCK:   -2.53 KCAL/MOL
REMARK 924 INTRA-LIGAND FREE ENERGY PREDICTED BY IDOCK:   -0.42 KCAL/MOL
REMARK 927      BINDING AFFINITY PREDICTED BY RF-SCORE:    0.00 PKD
ROOT
HETATM    1  C   UNL     1      -5.699  13.388  69.796  1.00  0.00    -0.112 C  
HETATM    2  C   UNL     1      -5.956  13.456  68.299  1.00  0.00    -0.093 C  
ENDROOT
BRANCH   2   3
HETATM    3  O   UNL     1      -5.950  14.836  67.911  1.00  0.00    -0.141 OA 
BRANCH   3   4
HETATM    4  C   UNL     1      -7.165  15.337  67.558  1.00  0.00    -0.197 C  
HETATM    5  O   UNL     1      -8.151  14.675  67.281  1.00  0.00    -0.190 OA 
BRANCH   4   6
HETATM    6  C   UNL     1      -7.143  16.814  67.727  1.00  0.00    -0.146 A  
HETATM    7  C   UNL     1      -8.083  17.426  68.579  1.00  0.00    -0.270 A  
HETATM    8  C   UNL     1      -8.177  18.816  68.652  1.00  0.00    -0.363 A  
HETATM    9  C   UNL     1      -7.335  19.608  67.875  1.00  0.00    -0.315 A  
HETATM   10  C   UNL     1      -6.389  19.013  67.037  1.00  0.00    -0.191 A  
HETATM   11  C   UNL     1      -6.294  17.623  66.964  1.00  0.00    -0.161 A  
HETATM   12  O   UNL     1      -5.350  17.065  66.149  1.00  0.00    -0.350 OA 
HETATM   13  H   UNL     1      -4.773  17.614  65.631  1.00  0.00     0.000 HD 
ENDBRANCH   4   6
ENDBRANCH   3   4
ENDBRANCH   2   3
TORSDOF 3
ENDMDL
MODEL      240
REMARK 921   NORMALIZED FREE ENERGY PREDICTED BY IDOCK:   -2.12 KCAL/MOL
REMARK 922        TOTAL FREE ENERGY PREDICTED BY IDOCK:   -2.94 KCAL/MOL
REMARK 923 INTER-LIGAND FREE ENERGY PREDICTED BY IDOCK:   -2.59 KCAL/MOL
REMARK 924 INTRA-LIGAND FREE ENERGY PREDICTED BY IDOCK:   -0.35 KCAL/MOL
REMARK 927      BINDING AFFINITY PREDICTED BY RF-SCORE:    0.00 PKD
ROOT
HETATM    1  C   UNL     1      -7.075   7.810  73.593  1.00  0.00    -0.124 C  
HETATM    2  C   UNL     1      -8.089   6.965  72.835  1.00  0.00    -0.107 C  
ENDROOT
BRANCH   2   3
HETATM    3  O   UNL     1      -8.480   7.689  71.662  1.00  0.00    -0.105 OA 
BRANCH   3   4
HETATM    4  C   UNL     1      -9.676   7.317  71.130  1.00  0.00    -0.171 C  
HETATM    5  O   UNL     1     -10.699   7.113  71.763  1.00  0.00    -0.214 OA 
BRANCH   4   6
HETATM    6  C   UNL     1      -9.578   7.362  69.648  1.00  0.00    -0.156 A  
HETATM    7  C   UNL     1      -8.385   7.809  69.048  1.00  0.00    -0.131 A  
HETATM    8  C   UNL     1      -8.310   7.993  67.667  1.00  0.00    -0.128 A  
HETATM    9  C   UNL     1      -9.425   7.733  66.873  1.00  0.00    -0.238 A  
HETATM   10  C   UNL     1     -10.609   7.276  67.454  1.00  0.00    -0.370 A  
HETATM   11  C   UNL     1     -10.685   7.091  68.836  1.00  0.00    -0.200 A  
HETATM   12  O   UNL     1     -11.849   6.627  69.379  1.00  0.00    -0.651 OA 
HETATM   13  H   UNL     1     -12.600   6.444  68.828  1.00  0.00     0.000 HD 
ENDBRANCH   4   6
ENDBRANCH   3   4
ENDBRANCH   2   3
TORSDOF 3
ENDMDL
MODEL      241
REMARK 921   NORMALIZED FREE ENERGY PREDICTED BY IDOCK:   -2.10 KCAL/MOL
REMARK 922        TOTAL FREE ENERGY PREDICTED BY IDOCK:   -2.92 KCAL/MOL
REMARK 923 INTER-LIGAND FREE ENERGY PREDICTED BY IDOCK:   -2.48 KCAL/MOL
REMARK 924 INTRA-LIGAND FREE ENERGY PREDICTED BY IDOCK:   -0.43 KCAL/MOL
REMARK 927      BINDING AFFINITY PREDICTED BY RF-SCORE:    0.00 PKD
ROOT
HETATM    1  C   UNL     1      -9.583   4.000  69.538  1.00  0.00    -0.265 C  
HETATM    2  C   UNL     1      -9.464   3.606  68.074  1.00  0.00    -0.161 C  
ENDROOT
BRANCH   2   3
HETATM    3  O   UNL     1     -10.078   4.634  67.287  1.00  0.00    -0.179 OA 
BRANCH   3   4
HETATM    4  C   UNL     1      -9.272   5.193  66.344  1.00  0.00    -0.141 C  
HETATM    5  O   UNL     1      -8.665   4.581  65.481  1.00  0.00    -0.120 OA 
BRANCH   4   6
HETATM    6  C   UNL     1      -9.384   6.672  66.430  1.00  0.00    -0.175 A  
HETATM    7  C   UNL     1     -10.422   7.243  67.191  1.00  0.00    -0.394 A  
HETATM    8  C   UNL     1     -10.636   8.622  67.180  1.00  0.00    -0.304 A  
HETATM    9  C   UNL     1      -9.818   9.442  66.408  1.00  0.00    -0.337 A  
HETATM   10  C   UNL     1      -8.777   8.890  65.659  1.00  0.00    -0.213 A  
HETATM   11  C   UNL     1      -8.562   7.511  65.670  1.00  0.00    -0.114 A  
HETATM   12  O   UNL     1      -7.527   6.996  64.942  1.00  0.00    -0.081 OA 
HETATM   13  H   UNL     1      -6.968   7.566  64.426  1.00  0.00     0.000 HD 
ENDBRANCH   4   6
ENDBRANCH   3   4
ENDBRANCH   2   3
TORSDOF 3
ENDMDL
MODEL      242
REMARK 921   NORMALIZED FREE ENERGY PREDICTED BY IDOCK:   -2.07 KCAL/MOL
REMARK 922        TOTAL FREE ENERGY PREDICTED BY IDOCK:   -2.89 KCAL/MOL
REMARK 923 INTER-LIGAND FREE ENERGY PREDICTED BY IDOCK:   -2.46 KCAL/MOL
REMARK 924 INTRA-LIGAND FREE ENERGY PREDICTED BY IDOCK:   -0.42 KCAL/MOL
REMARK 927      BINDING AFFINITY PREDICTED BY RF-SCORE:    0.00 PKD
ROOT
HETATM    1  C   UNL     1     -11.590  12.463  66.317  1.00  0.00    -0.449 C  
HETATM    2  C   UNL     1     -10.322  13.133  66.825  1.00  0.00    -0.252 C  
ENDROOT
BRANCH   2   3
HETATM    3  O   UNL     1      -9.200  12.397  66.323  1.00  0.00    -0.219 OA 
BRANCH   3   4
HETATM    4  C   UNL     1      -8.840  11.319  67.070  1.00  0.00    -0.153 C  
HETATM    5  O   UNL     1      -9.055  11.181  68.263  1.00  0.00    -0.149 OA 
BRANCH   4   6
HETATM    6  C   UNL     1      -8.294  10.270  66.170  1.00  0.00    -0.140 A  
HETATM    7  C   UNL     1      -9.045   9.102  65.936  1.00  0.00    -0.256 A  
HETATM    8  C   UNL     1      -8.502   8.042  65.208  1.00  0.00    -0.133 A  
HETATM    9  C   UNL     1      -7.205   8.138  64.710  1.00  0.00    -0.082 A  
HETATM   10  C   UNL     1      -6.455   9.297  64.924  1.00  0.00    -0.075 A  
HETATM   11  C   UNL     1      -6.998  10.358  65.651  1.00  0.00    -0.132 A  
HETATM   12  O   UNL     1      -6.251  11.487  65.832  1.00  0.00    -0.424 OA 
HETATM   13  H   UNL     1      -5.371  11.546  65.480  1.00  0.00     0.000 HD 
ENDBRANCH   4   6
ENDBRANCH   3   4
ENDBRANCH   2   3
TORSDOF 3
ENDMDL
MODEL      243
REMARK 921   NORMALIZED FREE ENERGY PREDICTED BY IDOCK:   -2.05 KCAL/MOL
REMARK 922        TOTAL FREE ENERGY PREDICTED BY IDOCK:   -2.86 KCAL/MOL
REMARK 923 INTER-LIGAND FREE ENERGY PREDICTED BY IDOCK:   -2.44 KCAL/MOL
REMARK 924 INTRA-LIGAND FREE ENERGY PREDICTED BY IDOCK:   -0.42 KCAL/MOL
REMARK 927      BINDING AFFINITY PREDICTED BY RF-SCORE:    0.00 PKD
ROOT
HETATM    1  C   UNL     1      -7.718   7.603  65.565  1.00  0.00    -0.101 C  
HETATM    2  C   UNL     1      -8.590   7.437  66.800  1.00  0.00    -0.127 C  
ENDROOT
BRANCH   2   3
HETATM    3  O   UNL     1      -7.834   7.871  67.937  1.00  0.00    -0.121 OA 
BRANCH   3   4
HETATM    4  C   UNL     1      -8.538   8.588  68.854  1.00  0.00    -0.127 C  
HETATM    5  O   UNL     1      -8.649   9.802  68.869  1.00  0.00    -0.123 OA 
BRANCH   4   6
HETATM    6  C   UNL     1      -9.283   7.647  69.732  1.00  0.00    -0.147 A  
HETATM    7  C   UNL     1      -8.595   6.582  70.344  1.00  0.00    -0.146 A  
HETATM    8  C   UNL     1      -9.288   5.605  71.059  1.00  0.00    -0.181 A  
HETATM    9  C   UNL     1     -10.675   5.682  71.168  1.00  0.00    -0.310 A  
HETATM   10  C   UNL     1     -11.367   6.741  70.578  1.00  0.00    -0.394 A  
HETATM   11  C   UNL     1     -10.674   7.719  69.862  1.00  0.00    -0.245 A  
HETATM   12  O   UNL     1     -11.372   8.754  69.308  1.00  0.00    -0.416 OA 
HETATM   13  H   UNL     1     -12.316   8.802  69.397  1.00  0.00     0.000 HD 
ENDBRANCH   4   6
ENDBRANCH   3   4
ENDBRANCH   2   3
TORSDOF 3
ENDMDL
MODEL      244
REMARK 921   NORMALIZED FREE ENERGY PREDICTED BY IDOCK:   -2.04 KCAL/MOL
REMARK 922        TOTAL FREE ENERGY PREDICTED BY IDOCK:   -2.85 KCAL/MOL
REMARK 923 INTER-LIGAND FREE ENERGY PREDICTED BY IDOCK:   -2.49 KCAL/MOL
REMARK 924 INTRA-LIGAND FREE ENERGY PREDICTED BY IDOCK:   -0.35 KCAL/MOL
REMARK 927      BINDING AFFINITY PREDICTED BY RF-SCORE:    0.00 PKD
ROOT
HETATM    1  C   UNL     1      -5.874  10.290  70.224  1.00  0.00    -0.079 C  
HETATM    2  C   UNL     1      -6.795  10.244  69.014  1.00  0.00    -0.058 C  
ENDROOT
BRANCH   2   3
HETATM    3  O   UNL     1      -8.060  10.797  69.398  1.00  0.00    -0.131 OA 
BRANCH   3   4
HETATM    4  C   UNL     1      -9.084  10.537  68.541  1.00  0.00    -0.154 C  
HETATM    5  O   UNL     1      -9.364   9.441  68.086  1.00  0.00    -0.134 OA 
BRANCH   4   6
HETATM    6  C   UNL     1      -9.903  11.767  68.383  1.00  0.00    -0.199 A  
HETATM    7  C   UNL     1     -11.147  11.857  69.036  1.00  0.00    -0.300 A  
HETATM    8  C   UNL     1     -11.998  12.937  68.797  1.00  0.00    -0.290 A  
HETATM    9  C   UNL     1     -11.616  13.935  67.904  1.00  0.00    -0.377 A  
HETATM   10  C   UNL     1     -10.379  13.864  67.261  1.00  0.00    -0.257 A  
HETATM   11  C   UNL     1      -9.526  12.784  67.499  1.00  0.00    -0.187 A  
HETATM   12  O   UNL     1      -8.314  12.746  66.871  1.00  0.00    -0.328 OA 
HETATM   13  H   UNL     1      -8.059  13.437  66.271  1.00  0.00     0.000 HD 
ENDBRANCH   4   6
ENDBRANCH   3   4
ENDBRANCH   2   3
TORSDOF 3
ENDMDL
MODEL      245
REMARK 921   NORMALIZED FREE ENERGY PREDICTED BY IDOCK:   -2.04 KCAL/MOL
REMARK 922        TOTAL FREE ENERGY PREDICTED BY IDOCK:   -2.85 KCAL/MOL
REMARK 923 INTER-LIGAND FREE ENERGY PREDICTED BY IDOCK:   -2.43 KCAL/MOL
REMARK 924 INTRA-LIGAND FREE ENERGY PREDICTED BY IDOCK:   -0.41 KCAL/MOL
REMARK 927      BINDING AFFINITY PREDICTED BY RF-SCORE:    0.00 PKD
ROOT
HETATM    1  C   UNL     1      -9.663   5.567  69.089  1.00  0.00    -0.208 C  
HETATM    2  C   UNL     1     -10.934   6.348  68.793  1.00  0.00    -0.334 C  
ENDROOT
BRANCH   2   3
HETATM    3  O   UNL     1     -10.623   7.343  67.810  1.00  0.00    -0.219 OA 
BRANCH   3   4
HETATM    4  C   UNL     1     -10.535   8.614  68.289  1.00  0.00    -0.184 C  
HETATM    5  O   UNL     1     -10.840   8.968  69.415  1.00  0.00    -0.217 OA 
BRANCH   4   6
HETATM    6  C   UNL     1      -9.854   9.463  67.277  1.00  0.00    -0.232 A  
HETATM    7  C   UNL     1     -10.075   9.218  65.908  1.00  0.00    -0.188 A  
HETATM    8  C   UNL     1      -9.347   9.906  64.936  1.00  0.00    -0.329 A  
HETATM    9  C   UNL     1      -8.391  10.842  65.322  1.00  0.00    -0.086 A  
HETATM   10  C   UNL     1      -8.172  11.104  66.676  1.00  0.00    -0.158 A  
HETATM   11  C   UNL     1      -8.900  10.417  67.649  1.00  0.00    -0.124 A  
HETATM   12  O   UNL     1      -8.680  10.702  68.966  1.00  0.00    -0.153 OA 
HETATM   13  H   UNL     1      -8.032  11.350  69.218  1.00  0.00     0.000 HD 
ENDBRANCH   4   6
ENDBRANCH   3   4
ENDBRANCH   2   3
TORSDOF 3
ENDMDL
MODEL      246
REMARK 921   NORMALIZED FREE ENERGY PREDICTED BY IDOCK:   -2.04 KCAL/MOL
REMARK 922        TOTAL FREE ENERGY PREDICTED BY IDOCK:   -2.85 KCAL/MOL
REMARK 923 INTER-LIGAND FREE ENERGY PREDICTED BY IDOCK:   -2.42 KCAL/MOL
REMARK 924 INTRA-LIGAND FREE ENERGY PREDICTED BY IDOCK:   -0.42 KCAL/MOL
REMARK 927      BINDING AFFINITY PREDICTED BY RF-SCORE:    0.00 PKD
ROOT
HETATM    1  C   UNL     1      -8.167   2.127  66.399  1.00  0.00    -0.088 C  
HETATM    2  C   UNL     1      -9.144   3.136  65.815  1.00  0.00    -0.149 C  
ENDROOT
BRANCH   2   3
HETATM    3  O   UNL     1      -8.834   4.422  66.366  1.00  0.00    -0.112 OA 
BRANCH   3   4
HETATM    4  C   UNL     1      -8.753   5.431  65.457  1.00  0.00    -0.154 C  
HETATM    5  O   UNL     1      -8.605   5.290  64.254  1.00  0.00    -0.137 OA 
BRANCH   4   6
HETATM    6  C   UNL     1      -9.041   6.719  66.140  1.00  0.00    -0.138 A  
HETATM    7  C   UNL     1      -8.007   7.660  66.304  1.00  0.00    -0.105 A  
HETATM    8  C   UNL     1      -8.210   8.815  67.061  1.00  0.00    -0.103 A  
HETATM    9  C   UNL     1      -9.446   9.040  67.660  1.00  0.00    -0.166 A  
HETATM   10  C   UNL     1     -10.485   8.122  67.494  1.00  0.00    -0.326 A  
HETATM   11  C   UNL     1     -10.282   6.966  66.737  1.00  0.00    -0.206 A  
HETATM   12  O   UNL     1     -11.318   6.091  66.575  1.00  0.00    -0.737 OA 
HETATM   13  H   UNL     1     -12.161   6.259  66.980  1.00  0.00     0.000 HD 
ENDBRANCH   4   6
ENDBRANCH   3   4
ENDBRANCH   2   3
TORSDOF 3
ENDMDL
MODEL      247
REMARK 921   NORMALIZED FREE ENERGY PREDICTED BY IDOCK:   -2.03 KCAL/MOL
REMARK 922        TOTAL FREE ENERGY PREDICTED BY IDOCK:   -2.84 KCAL/MOL
REMARK 923 INTER-LIGAND FREE ENERGY PREDICTED BY IDOCK:   -2.56 KCAL/MOL
REMARK 924 INTRA-LIGAND FREE ENERGY PREDICTED BY IDOCK:   -0.28 KCAL/MOL
REMARK 927      BINDING AFFINITY PREDICTED BY RF-SCORE:    0.00 PKD
ROOT
HETATM    1  C   UNL     1      -6.367   8.887  70.660  1.00  0.00    -0.045 C  
HETATM    2  C   UNL     1      -6.973   7.516  70.401  1.00  0.00    -0.052 C  
ENDROOT
BRANCH   2   3
HETATM    3  O   UNL     1      -8.397   7.634  70.511  1.00  0.00    -0.122 OA 
BRANCH   3   4
HETATM    4  C   UNL     1      -9.070   7.583  69.329  1.00  0.00    -0.138 C  
HETATM    5  O   UNL     1      -9.009   6.673  68.519  1.00  0.00    -0.122 OA 
BRANCH   4   6
HETATM    6  C   UNL     1     -10.013   8.730  69.263  1.00  0.00    -0.194 A  
HETATM    7  C   UNL     1     -10.175   9.421  68.047  1.00  0.00    -0.248 A  
HETATM    8  C   UNL     1     -10.946  10.583  67.988  1.00  0.00    -0.345 A  
HETATM    9  C   UNL     1     -11.560  11.065  69.141  1.00  0.00    -0.389 A  
HETATM   10  C   UNL     1     -11.418  10.381  70.350  1.00  0.00    -0.420 A  
HETATM   11  C   UNL     1     -10.648   9.218  70.410  1.00  0.00    -0.248 A  
HETATM   12  O   UNL     1     -10.538   8.558  71.600  1.00  0.00    -0.238 OA 
HETATM   13  H   UNL     1     -10.969   8.890  72.379  1.00  0.00     0.000 HD 
ENDBRANCH   4   6
ENDBRANCH   3   4
ENDBRANCH   2   3
TORSDOF 3
ENDMDL
MODEL      248
REMARK 921   NORMALIZED FREE ENERGY PREDICTED BY IDOCK:   -1.98 KCAL/MOL
REMARK 922        TOTAL FREE ENERGY PREDICTED BY IDOCK:   -2.78 KCAL/MOL
REMARK 923 INTER-LIGAND FREE ENERGY PREDICTED BY IDOCK:   -2.43 KCAL/MOL
REMARK 924 INTRA-LIGAND FREE ENERGY PREDICTED BY IDOCK:   -0.35 KCAL/MOL
REMARK 927      BINDING AFFINITY PREDICTED BY RF-SCORE:    0.00 PKD
ROOT
HETATM    1  C   UNL     1      -7.839   8.135  74.314  1.00  0.00    -0.291 C  
HETATM    2  C   UNL     1      -8.349   6.794  73.810  1.00  0.00    -0.121 C  
ENDROOT
BRANCH   2   3
HETATM    3  O   UNL     1      -9.313   7.046  72.780  1.00  0.00    -0.134 OA 
BRANCH   3   4
HETATM    4  C   UNL     1      -9.978   5.945  72.336  1.00  0.00    -0.171 C  
HETATM    5  O   UNL     1     -10.605   5.167  73.036  1.00  0.00    -0.196 OA 
BRANCH   4   6
HETATM    6  C   UNL     1      -9.959   5.938  70.850  1.00  0.00    -0.238 A  
HETATM    7  C   UNL     1     -11.126   6.286  70.142  1.00  0.00    -0.443 A  
HETATM    8  C   UNL     1     -11.180   6.157  68.754  1.00  0.00    -0.307 A  
HETATM    9  C   UNL     1     -10.072   5.677  68.060  1.00  0.00    -0.211 A  
HETATM   10  C   UNL     1      -8.904   5.342  68.749  1.00  0.00    -0.107 A  
HETATM   11  C   UNL     1      -8.849   5.472  70.138  1.00  0.00    -0.136 A  
HETATM   12  O   UNL     1      -7.690   5.153  70.787  1.00  0.00    -0.076 OA 
HETATM   13  H   UNL     1      -6.936   4.836  70.303  1.00  0.00     0.000 HD 
ENDBRANCH   4   6
ENDBRANCH   3   4
ENDBRANCH   2   3
TORSDOF 3
ENDMDL
MODEL      249
REMARK 921   NORMALIZED FREE ENERGY PREDICTED BY IDOCK:   -1.97 KCAL/MOL
REMARK 922        TOTAL FREE ENERGY PREDICTED BY IDOCK:   -2.77 KCAL/MOL
REMARK 923 INTER-LIGAND FREE ENERGY PREDICTED BY IDOCK:   -2.40 KCAL/MOL
REMARK 924 INTRA-LIGAND FREE ENERGY PREDICTED BY IDOCK:   -0.37 KCAL/MOL
REMARK 927      BINDING AFFINITY PREDICTED BY RF-SCORE:    0.00 PKD
ROOT
HETATM    1  C   UNL     1      -8.563   8.567  65.257  1.00  0.00    -0.192 C  
HETATM    2  C   UNL     1      -7.769   8.196  66.500  1.00  0.00    -0.093 C  
ENDROOT
BRANCH   2   3
HETATM    3  O   UNL     1      -8.412   8.794  67.632  1.00  0.00    -0.123 OA 
BRANCH   3   4
HETATM    4  C   UNL     1      -8.289   8.099  68.795  1.00  0.00    -0.126 C  
HETATM    5  O   UNL     1      -7.364   7.358  69.082  1.00  0.00    -0.085 OA 
BRANCH   4   6
HETATM    6  C   UNL     1      -9.374   8.516  69.722  1.00  0.00    -0.161 A  
HETATM    7  C   UNL     1     -10.459   9.261  69.223  1.00  0.00    -0.228 A  
HETATM    8  C   UNL     1     -11.420   9.784  70.090  1.00  0.00    -0.272 A  
HETATM    9  C   UNL     1     -11.306   9.568  71.461  1.00  0.00    -0.456 A  
HETATM   10  C   UNL     1     -10.242   8.818  71.966  1.00  0.00    -0.401 A  
HETATM   11  C   UNL     1      -9.280   8.295  71.100  1.00  0.00    -0.162 A  
HETATM   12  O   UNL     1      -8.258   7.551  71.617  1.00  0.00    -0.100 OA 
HETATM   13  H   UNL     1      -8.194   7.402  72.553  1.00  0.00     0.000 HD 
ENDBRANCH   4   6
ENDBRANCH   3   4
ENDBRANCH   2   3
TORSDOF 3
ENDMDL
MODEL      250
REMARK 921   NORMALIZED FREE ENERGY PREDICTED BY IDOCK:   -1.96 KCAL/MOL
REMARK 922        TOTAL FREE ENERGY PREDICTED BY IDOCK:   -2.75 KCAL/MOL
REMARK 923 INTER-LIGAND FREE ENERGY PREDICTED BY IDOCK:   -2.39 KCAL/MOL
REMARK 924 INTRA-LIGAND FREE ENERGY PREDICTED BY IDOCK:   -0.36 KCAL/MOL
REMARK 927      BINDING AFFINITY PREDICTED BY RF-SCORE:    0.00 PKD
ROOT
HETATM    1  C   UNL     1     -10.453   3.733  64.058  1.00  0.00    -0.271 C  
HETATM    2  C   UNL     1      -9.569   4.036  65.258  1.00  0.00    -0.185 C  
ENDROOT
BRANCH   2   3
HETATM    3  O   UNL     1      -9.634   5.445  65.512  1.00  0.00    -0.077 OA 
BRANCH   3   4
HETATM    4  C   UNL     1      -8.659   5.926  66.330  1.00  0.00    -0.132 C  
HETATM    5  O   UNL     1      -7.475   5.642  66.262  1.00  0.00    -0.080 OA 
BRANCH   4   6
HETATM    6  C   UNL     1      -9.241   6.975  67.207  1.00  0.00    -0.141 A  
HETATM    7  C   UNL     1      -9.458   6.693  68.570  1.00  0.00    -0.123 A  
HETATM    8  C   UNL     1     -10.128   7.606  69.386  1.00  0.00    -0.196 A  
HETATM    9  C   UNL     1     -10.587   8.806  68.849  1.00  0.00    -0.178 A  
HETATM   10  C   UNL     1     -10.365   9.103  67.503  1.00  0.00    -0.324 A  
HETATM   11  C   UNL     1      -9.695   8.191  66.686  1.00  0.00    -0.248 A  
HETATM   12  O   UNL     1      -9.476   8.512  65.376  1.00  0.00    -0.437 OA 
HETATM   13  H   UNL     1      -9.784   9.338  65.023  1.00  0.00     0.000 HD 
ENDBRANCH   4   6
ENDBRANCH   3   4
ENDBRANCH   2   3
TORSDOF 3
ENDMDL
MODEL      251
REMARK 921   NORMALIZED FREE ENERGY PREDICTED BY IDOCK:   -1.94 KCAL/MOL
REMARK 922        TOTAL FREE ENERGY PREDICTED BY IDOCK:   -2.74 KCAL/MOL
REMARK 923 INTER-LIGAND FREE ENERGY PREDICTED BY IDOCK:   -2.35 KCAL/MOL
REMARK 924 INTRA-LIGAND FREE ENERGY PREDICTED BY IDOCK:   -0.39 KCAL/MOL
REMARK 927      BINDING AFFINITY PREDICTED BY RF-SCORE:    0.00 PKD
ROOT
HETATM    1  C   UNL     1     -11.382  13.335  66.751  1.00  0.00    -0.359 C  
HETATM    2  C   UNL     1      -9.929  12.987  66.465  1.00  0.00    -0.262 C  
ENDROOT
BRANCH   2   3
HETATM    3  O   UNL     1      -9.824  11.560  66.378  1.00  0.00    -0.197 OA 
BRANCH   3   4
HETATM    4  C   UNL     1      -8.706  11.032  66.944  1.00  0.00    -0.148 C  
HETATM    5  O   UNL     1      -7.644  11.614  67.091  1.00  0.00    -0.137 OA 
BRANCH   4   6
HETATM    6  C   UNL     1      -9.036   9.695  67.504  1.00  0.00    -0.136 A  
HETATM    7  C   UNL     1     -10.168   9.007  67.027  1.00  0.00    -0.336 A  
HETATM    8  C   UNL     1     -10.581   7.817  67.626  1.00  0.00    -0.283 A  
HETATM    9  C   UNL     1      -9.869   7.304  68.708  1.00  0.00    -0.161 A  
HETATM   10  C   UNL     1      -8.737   7.969  69.181  1.00  0.00    -0.137 A  
HETATM   11  C   UNL     1      -8.322   9.160  68.582  1.00  0.00    -0.126 A  
HETATM   12  O   UNL     1      -7.202   9.783  69.053  1.00  0.00    -0.071 OA 
HETATM   13  H   UNL     1      -6.718   9.420  69.784  1.00  0.00     0.000 HD 
ENDBRANCH   4   6
ENDBRANCH   3   4
ENDBRANCH   2   3
TORSDOF 3
ENDMDL
MODEL      252
REMARK 921   NORMALIZED FREE ENERGY PREDICTED BY IDOCK:   -1.94 KCAL/MOL
REMARK 922        TOTAL FREE ENERGY PREDICTED BY IDOCK:   -2.74 KCAL/MOL
REMARK 923 INTER-LIGAND FREE ENERGY PREDICTED BY IDOCK:   -2.33 KCAL/MOL
REMARK 924 INTRA-LIGAND FREE ENERGY PREDICTED BY IDOCK:   -0.40 KCAL/MOL
REMARK 927      BINDING AFFINITY PREDICTED BY RF-SCORE:    0.00 PKD
ROOT
HETATM    1  C   UNL     1     -11.481   4.768  73.274  1.00  0.00    -0.361 C  
HETATM    2  C   UNL     1     -10.068   5.252  73.559  1.00  0.00    -0.183 C  
ENDROOT
BRANCH   2   3
HETATM    3  O   UNL     1      -9.180   4.585  72.652  1.00  0.00    -0.124 OA 
BRANCH   3   4
HETATM    4  C   UNL     1      -8.336   5.405  71.969  1.00  0.00    -0.122 C  
HETATM    5  O   UNL     1      -7.118   5.367  72.019  1.00  0.00    -0.079 OA 
BRANCH   4   6
HETATM    6  C   UNL     1      -9.131   6.238  71.030  1.00  0.00    -0.156 A  
HETATM    7  C   UNL     1      -9.111   7.640  71.163  1.00  0.00    -0.152 A  
HETATM    8  C   UNL     1      -9.951   8.440  70.388  1.00  0.00    -0.199 A  
HETATM    9  C   UNL     1     -10.819   7.848  69.474  1.00  0.00    -0.141 A  
HETATM   10  C   UNL     1     -10.838   6.460  69.322  1.00  0.00    -0.387 A  
HETATM   11  C   UNL     1      -9.998   5.659  70.097  1.00  0.00    -0.207 A  
HETATM   12  O   UNL     1     -10.024   4.305  69.918  1.00  0.00    -0.221 OA 
HETATM   13  H   UNL     1     -10.613   3.913  69.285  1.00  0.00     0.000 HD 
ENDBRANCH   4   6
ENDBRANCH   3   4
ENDBRANCH   2   3
TORSDOF 3
ENDMDL
MODEL      253
REMARK 921   NORMALIZED FREE ENERGY PREDICTED BY IDOCK:   -1.93 KCAL/MOL
REMARK 922        TOTAL FREE ENERGY PREDICTED BY IDOCK:   -2.73 KCAL/MOL
REMARK 923 INTER-LIGAND FREE ENERGY PREDICTED BY IDOCK:   -2.35 KCAL/MOL
REMARK 924 INTRA-LIGAND FREE ENERGY PREDICTED BY IDOCK:   -0.37 KCAL/MOL
REMARK 927      BINDING AFFINITY PREDICTED BY RF-SCORE:    0.00 PKD
ROOT
HETATM    1  C   UNL     1      -9.823   2.843  72.158  1.00  0.00    -0.239 C  
HETATM    2  C   UNL     1      -9.395   4.260  71.807  1.00  0.00    -0.137 C  
ENDROOT
BRANCH   2   3
HETATM    3  O   UNL     1     -10.270   4.746  70.782  1.00  0.00    -0.225 OA 
BRANCH   3   4
HETATM    4  C   UNL     1      -9.947   5.971  70.286  1.00  0.00    -0.187 C  
HETATM    5  O   UNL     1      -9.689   6.959  70.954  1.00  0.00    -0.178 OA 
BRANCH   4   6
HETATM    6  C   UNL     1      -9.797   5.869  68.811  1.00  0.00    -0.177 A  
HETATM    7  C   UNL     1      -9.016   4.832  68.266  1.00  0.00    -0.132 A  
HETATM    8  C   UNL     1      -8.744   4.791  66.898  1.00  0.00    -0.107 A  
HETATM    9  C   UNL     1      -9.248   5.784  66.063  1.00  0.00    -0.155 A  
HETATM   10  C   UNL     1     -10.036   6.811  66.588  1.00  0.00    -0.207 A  
HETATM   11  C   UNL     1     -10.308   6.853  67.957  1.00  0.00    -0.192 A  
HETATM   12  O   UNL     1     -11.095   7.857  68.445  1.00  0.00    -0.418 OA 
HETATM   13  H   UNL     1     -11.442   8.525  67.865  1.00  0.00     0.000 HD 
ENDBRANCH   4   6
ENDBRANCH   3   4
ENDBRANCH   2   3
TORSDOF 3
ENDMDL
MODEL      254
REMARK 921   NORMALIZED FREE ENERGY PREDICTED BY IDOCK:   -1.93 KCAL/MOL
REMARK 922        TOTAL FREE ENERGY PREDICTED BY IDOCK:   -2.72 KCAL/MOL
REMARK 923 INTER-LIGAND FREE ENERGY PREDICTED BY IDOCK:   -2.28 KCAL/MOL
REMARK 924 INTRA-LIGAND FREE ENERGY PREDICTED BY IDOCK:   -0.44 KCAL/MOL
REMARK 927      BINDING AFFINITY PREDICTED BY RF-SCORE:    0.00 PKD
ROOT
HETATM    1  C   UNL     1      -5.323   8.080  69.918  1.00  0.00    -0.023 C  
HETATM    2  C   UNL     1      -5.918   7.003  70.812  1.00  0.00    -0.028 C  
ENDROOT
BRANCH   2   3
HETATM    3  O   UNL     1      -7.155   7.499  71.339  1.00  0.00    -0.057 OA 
BRANCH   3   4
HETATM    4  C   UNL     1      -8.239   6.716  71.090  1.00  0.00    -0.120 C  
HETATM    5  O   UNL     1      -8.237   5.497  71.049  1.00  0.00    -0.115 OA 
BRANCH   4   6
HETATM    6  C   UNL     1      -9.452   7.574  71.043  1.00  0.00    -0.162 A  
HETATM    7  C   UNL     1      -9.344   8.896  70.570  1.00  0.00    -0.240 A  
HETATM    8  C   UNL     1     -10.432   9.767  70.643  1.00  0.00    -0.358 A  
HETATM    9  C   UNL     1     -11.635   9.327  71.188  1.00  0.00    -0.397 A  
HETATM   10  C   UNL     1     -11.759   8.014  71.647  1.00  0.00    -0.325 A  
HETATM   11  C   UNL     1     -10.671   7.142  71.575  1.00  0.00    -0.223 A  
HETATM   12  O   UNL     1     -10.822   5.858  72.016  1.00  0.00    -0.233 OA 
HETATM   13  H   UNL     1     -11.650   5.565  72.377  1.00  0.00     0.000 HD 
ENDBRANCH   4   6
ENDBRANCH   3   4
ENDBRANCH   2   3
TORSDOF 3
ENDMDL
MODEL      255
REMARK 921   NORMALIZED FREE ENERGY PREDICTED BY IDOCK:   -1.92 KCAL/MOL
REMARK 922        TOTAL FREE ENERGY PREDICTED BY IDOCK:   -2.70 KCAL/MOL
REMARK 923 INTER-LIGAND FREE ENERGY PREDICTED BY IDOCK:   -2.25 KCAL/MOL
REMARK 924 INTRA-LIGAND FREE ENERGY PREDICTED BY IDOCK:   -0.46 KCAL/MOL
REMARK 927      BINDING AFFINITY PREDICTED BY RF-SCORE:    0.00 PKD
ROOT
HETATM    1  C   UNL     1      -7.314  10.866  68.488  1.00  0.00    -0.098 C  
HETATM    2  C   UNL     1      -8.716  10.577  69.000  1.00  0.00    -0.156 C  
ENDROOT
BRANCH   2   3
HETATM    3  O   UNL     1      -9.314   9.606  68.132  1.00  0.00    -0.133 OA 
BRANCH   3   4
HETATM    4  C   UNL     1      -9.755  10.096  66.942  1.00  0.00    -0.187 C  
HETATM    5  O   UNL     1     -10.388  11.128  66.792  1.00  0.00    -0.223 OA 
BRANCH   4   6
HETATM    6  C   UNL     1      -9.202   9.261  65.843  1.00  0.00    -0.277 A  
HETATM    7  C   UNL     1      -8.926   7.901  66.081  1.00  0.00    -0.214 A  
HETATM    8  C   UNL     1      -8.279   7.128  65.116  1.00  0.00    -0.114 A  
HETATM    9  C   UNL     1      -7.903   7.706  63.906  1.00  0.00    -0.122 A  
HETATM   10  C   UNL     1      -8.184   9.050  63.652  1.00  0.00    -0.177 A  
HETATM   11  C   UNL     1      -8.831   9.824  64.617  1.00  0.00    -0.212 A  
HETATM   12  O   UNL     1      -9.109  11.132  64.339  1.00  0.00    -0.334 OA 
HETATM   13  H   UNL     1      -8.857  11.513  63.507  1.00  0.00     0.000 HD 
ENDBRANCH   4   6
ENDBRANCH   3   4
ENDBRANCH   2   3
TORSDOF 3
ENDMDL
MODEL      256
REMARK 921   NORMALIZED FREE ENERGY PREDICTED BY IDOCK:   -1.92 KCAL/MOL
REMARK 922        TOTAL FREE ENERGY PREDICTED BY IDOCK:   -2.70 KCAL/MOL
REMARK 923 INTER-LIGAND FREE ENERGY PREDICTED BY IDOCK:   -2.32 KCAL/MOL
REMARK 924 INTRA-LIGAND FREE ENERGY PREDICTED BY IDOCK:   -0.38 KCAL/MOL
REMARK 927      BINDING AFFINITY PREDICTED BY RF-SCORE:    0.00 PKD
ROOT
HETATM    1  C   UNL     1     -11.170   5.024  73.057  1.00  0.00    -0.383 C  
HETATM    2  C   UNL     1     -11.102   6.543  73.050  1.00  0.00    -0.198 C  
ENDROOT
BRANCH   2   3
HETATM    3  O   UNL     1     -10.220   6.943  71.993  1.00  0.00    -0.187 OA 
BRANCH   3   4
HETATM    4  C   UNL     1     -10.780   7.755  71.056  1.00  0.00    -0.228 C  
HETATM    5  O   UNL     1     -11.883   8.270  71.134  1.00  0.00    -0.281 OA 
BRANCH   4   6
HETATM    6  C   UNL     1      -9.769   8.046  70.006  1.00  0.00    -0.173 A  
HETATM    7  C   UNL     1      -8.635   7.219  69.891  1.00  0.00    -0.141 A  
HETATM    8  C   UNL     1      -7.604   7.546  69.010  1.00  0.00    -0.108 A  
HETATM    9  C   UNL     1      -7.694   8.701  68.237  1.00  0.00    -0.101 A  
HETATM   10  C   UNL     1      -8.819   9.522  68.332  1.00  0.00    -0.124 A  
HETATM   11  C   UNL     1      -9.852   9.196  69.213  1.00  0.00    -0.175 A  
HETATM   12  O   UNL     1     -10.950  10.006  69.276  1.00  0.00    -0.223 OA 
HETATM   13  H   UNL     1     -11.006  10.787  68.738  1.00  0.00     0.000 HD 
ENDBRANCH   4   6
ENDBRANCH   3   4
ENDBRANCH   2   3
TORSDOF 3
ENDMDL
MODEL      257
REMARK 921   NORMALIZED FREE ENERGY PREDICTED BY IDOCK:   -1.91 KCAL/MOL
REMARK 922        TOTAL FREE ENERGY PREDICTED BY IDOCK:   -2.70 KCAL/MOL
REMARK 923 INTER-LIGAND FREE ENERGY PREDICTED BY IDOCK:   -2.60 KCAL/MOL
REMARK 924 INTRA-LIGAND FREE ENERGY PREDICTED BY IDOCK:   -0.10 KCAL/MOL
REMARK 927      BINDING AFFINITY PREDICTED BY RF-SCORE:    0.00 PKD
ROOT
HETATM    1  C   UNL     1     -13.156   6.816  71.460  1.00  0.00    -0.248 C  
HETATM    2  C   UNL     1     -11.856   6.932  70.679  1.00  0.00    -0.368 C  
ENDROOT
BRANCH   2   3
HETATM    3  O   UNL     1     -11.233   8.171  71.037  1.00  0.00    -0.250 OA 
BRANCH   3   4
HETATM    4  C   UNL     1     -10.674   8.853  70.001  1.00  0.00    -0.228 C  
HETATM    5  O   UNL     1     -10.767  10.055  69.812  1.00  0.00    -0.232 OA 
BRANCH   4   6
HETATM    6  C   UNL     1      -9.798   7.929  69.234  1.00  0.00    -0.177 A  
HETATM    7  C   UNL     1      -8.695   7.333  69.874  1.00  0.00    -0.141 A  
HETATM    8  C   UNL     1      -7.777   6.572  69.148  1.00  0.00    -0.102 A  
HETATM    9  C   UNL     1      -7.952   6.402  67.777  1.00  0.00    -0.114 A  
HETATM   10  C   UNL     1      -9.049   6.977  67.133  1.00  0.00    -0.137 A  
HETATM   11  C   UNL     1      -9.968   7.738  67.859  1.00  0.00    -0.172 A  
HETATM   12  O   UNL     1     -11.042   8.276  67.209  1.00  0.00    -0.429 OA 
HETATM   13  H   UNL     1     -11.157   8.146  66.275  1.00  0.00     0.000 HD 
ENDBRANCH   4   6
ENDBRANCH   3   4
ENDBRANCH   2   3
TORSDOF 3
ENDMDL
MODEL      258
REMARK 921   NORMALIZED FREE ENERGY PREDICTED BY IDOCK:   -1.88 KCAL/MOL
REMARK 922        TOTAL FREE ENERGY PREDICTED BY IDOCK:   -2.67 KCAL/MOL
REMARK 923 INTER-LIGAND FREE ENERGY PREDICTED BY IDOCK:   -2.26 KCAL/MOL
REMARK 924 INTRA-LIGAND FREE ENERGY PREDICTED BY IDOCK:   -0.41 KCAL/MOL
REMARK 927      BINDING AFFINITY PREDICTED BY RF-SCORE:    0.00 PKD
ROOT
HETATM    1  C   UNL     1      -9.389   4.299  68.159  1.00  0.00    -0.204 C  
HETATM    2  C   UNL     1      -9.623   5.777  67.891  1.00  0.00    -0.115 C  
ENDROOT
BRANCH   2   3
HETATM    3  O   UNL     1      -9.157   6.513  69.029  1.00  0.00    -0.132 OA 
BRANCH   3   4
HETATM    4  C   UNL     1      -9.995   7.495  69.460  1.00  0.00    -0.180 C  
HETATM    5  O   UNL     1     -10.965   7.331  70.181  1.00  0.00    -0.251 OA 
BRANCH   4   6
HETATM    6  C   UNL     1      -9.444   8.813  69.049  1.00  0.00    -0.160 A  
HETATM    7  C   UNL     1      -8.049   9.005  69.039  1.00  0.00    -0.107 A  
HETATM    8  C   UNL     1      -7.507  10.267  68.793  1.00  0.00    -0.089 A  
HETATM    9  C   UNL     1      -8.353  11.348  68.555  1.00  0.00    -0.153 A  
HETATM   10  C   UNL     1      -9.737  11.168  68.548  1.00  0.00    -0.196 A  
HETATM   11  C   UNL     1     -10.280   9.905  68.795  1.00  0.00    -0.189 A  
HETATM   12  O   UNL     1     -11.637   9.751  68.766  1.00  0.00    -0.481 OA 
HETATM   13  H   UNL     1     -12.204  10.492  68.593  1.00  0.00     0.000 HD 
ENDBRANCH   4   6
ENDBRANCH   3   4
ENDBRANCH   2   3
TORSDOF 3
ENDMDL
MODEL      259
REMARK 921   NORMALIZED FREE ENERGY PREDICTED BY IDOCK:   -1.88 KCAL/MOL
REMARK 922        TOTAL FREE ENERGY PREDICTED BY IDOCK:   -2.66 KCAL/MOL
REMARK 923 INTER-LIGAND FREE ENERGY PREDICTED BY IDOCK:   -2.67 KCAL/MOL
REMARK 924 INTRA-LIGAND FREE ENERGY PREDICTED BY IDOCK:    0.01 KCAL/MOL
REMARK 927      BINDING AFFINITY PREDICTED BY RF-SCORE:    0.00 PKD
ROOT
HETATM    1  C   UNL     1     -10.845  14.424  66.375  1.00  0.00    -0.314 C  
HETATM    2  C   UNL     1      -9.860  13.301  66.089  1.00  0.00    -0.280 C  
ENDROOT
BRANCH   2   3
HETATM    3  O   UNL     1     -10.589  12.067  66.072  1.00  0.00    -0.251 OA 
BRANCH   3   4
HETATM    4  C   UNL     1     -10.068  11.105  65.262  1.00  0.00    -0.276 C  
HETATM    5  O   UNL     1     -10.150  11.084  64.045  1.00  0.00    -0.291 OA 
BRANCH   4   6
HETATM    6  C   UNL     1      -9.245  10.179  66.083  1.00  0.00    -0.196 A  
HETATM    7  C   UNL     1      -9.854   9.060  66.682  1.00  0.00    -0.316 A  
HETATM    8  C   UNL     1      -9.140   8.252  67.568  1.00  0.00    -0.148 A  
HETATM    9  C   UNL     1      -7.814   8.554  67.865  1.00  0.00    -0.103 A  
HETATM   10  C   UNL     1      -7.194   9.653  67.267  1.00  0.00    -0.087 A  
HETATM   11  C   UNL     1      -7.907  10.462  66.380  1.00  0.00    -0.128 A  
HETATM   12  O   UNL     1      -7.274  11.522  65.795  1.00  0.00    -0.282 OA 
HETATM   13  H   UNL     1      -6.366  11.714  65.997  1.00  0.00     0.000 HD 
ENDBRANCH   4   6
ENDBRANCH   3   4
ENDBRANCH   2   3
TORSDOF 3
ENDMDL
MODEL      260
REMARK 921   NORMALIZED FREE ENERGY PREDICTED BY IDOCK:   -1.87 KCAL/MOL
REMARK 922        TOTAL FREE ENERGY PREDICTED BY IDOCK:   -2.65 KCAL/MOL
REMARK 923 INTER-LIGAND FREE ENERGY PREDICTED BY IDOCK:   -2.15 KCAL/MOL
REMARK 924 INTRA-LIGAND FREE ENERGY PREDICTED BY IDOCK:   -0.50 KCAL/MOL
REMARK 927      BINDING AFFINITY PREDICTED BY RF-SCORE:    0.00 PKD
ROOT
HETATM    1  C   UNL     1     -11.013   7.327  70.614  1.00  0.00    -0.278 C  
HETATM    2  C   UNL     1     -11.481   6.404  69.499  1.00  0.00    -0.343 C  
ENDROOT
BRANCH   2   3
HETATM    3  O   UNL     1     -10.699   6.686  68.332  1.00  0.00    -0.218 OA 
BRANCH   3   4
HETATM    4  C   UNL     1     -10.341   5.595  67.603  1.00  0.00    -0.212 C  
HETATM    5  O   UNL     1     -10.767   5.313  66.495  1.00  0.00    -0.301 OA 
BRANCH   4   6
HETATM    6  C   UNL     1      -9.231   4.894  68.300  1.00  0.00    -0.154 A  
HETATM    7  C   UNL     1      -9.408   3.561  68.716  1.00  0.00    -0.233 A  
HETATM    8  C   UNL     1      -8.439   2.922  69.490  1.00  0.00    -0.101 A  
HETATM    9  C   UNL     1      -7.285   3.610  69.858  1.00  0.00    -0.042 A  
HETATM   10  C   UNL     1      -7.091   4.928  69.440  1.00  0.00    -0.055 A  
HETATM   11  C   UNL     1      -8.060   5.567  68.665  1.00  0.00    -0.102 A  
HETATM   12  O   UNL     1      -7.839   6.851  68.255  1.00  0.00    -0.113 OA 
HETATM   13  H   UNL     1      -7.044   7.308  68.503  1.00  0.00     0.000 HD 
ENDBRANCH   4   6
ENDBRANCH   3   4
ENDBRANCH   2   3
TORSDOF 3
ENDMDL
MODEL      261
REMARK 921   NORMALIZED FREE ENERGY PREDICTED BY IDOCK:   -1.83 KCAL/MOL
REMARK 922        TOTAL FREE ENERGY PREDICTED BY IDOCK:   -2.60 KCAL/MOL
REMARK 923 INTER-LIGAND FREE ENERGY PREDICTED BY IDOCK:   -2.05 KCAL/MOL
REMARK 924 INTRA-LIGAND FREE ENERGY PREDICTED BY IDOCK:   -0.55 KCAL/MOL
REMARK 927      BINDING AFFINITY PREDICTED BY RF-SCORE:    0.00 PKD
ROOT
HETATM    1  C   UNL     1     -10.088   5.601  68.959  1.00  0.00    -0.259 C  
HETATM    2  C   UNL     1     -10.845   6.692  68.217  1.00  0.00    -0.254 C  
ENDROOT
BRANCH   2   3
HETATM    3  O   UNL     1      -9.902   7.423  67.423  1.00  0.00    -0.148 OA 
BRANCH   3   4
HETATM    4  C   UNL     1      -9.754   8.731  67.769  1.00  0.00    -0.158 C  
HETATM    5  O   UNL     1     -10.559   9.618  67.543  1.00  0.00    -0.253 OA 
BRANCH   4   6
HETATM    6  C   UNL     1      -8.536   8.871  68.610  1.00  0.00    -0.133 A  
HETATM    7  C   UNL     1      -7.310   8.363  68.140  1.00  0.00    -0.096 A  
HETATM    8  C   UNL     1      -6.182   8.356  68.961  1.00  0.00    -0.043 A  
HETATM    9  C   UNL     1      -6.268   8.854  70.259  1.00  0.00    -0.038 A  
HETATM   10  C   UNL     1      -7.475   9.372  70.732  1.00  0.00    -0.132 A  
HETATM   11  C   UNL     1      -8.604   9.380  69.911  1.00  0.00    -0.191 A  
HETATM   12  O   UNL     1      -9.768   9.908  70.392  1.00  0.00    -0.349 OA 
HETATM   13  H   UNL     1      -9.814  10.254  71.275  1.00  0.00     0.000 HD 
ENDBRANCH   4   6
ENDBRANCH   3   4
ENDBRANCH   2   3
TORSDOF 3
ENDMDL
MODEL      262
REMARK 921   NORMALIZED FREE ENERGY PREDICTED BY IDOCK:   -1.82 KCAL/MOL
REMARK 922        TOTAL FREE ENERGY PREDICTED BY IDOCK:   -2.60 KCAL/MOL
REMARK 923 INTER-LIGAND FREE ENERGY PREDICTED BY IDOCK:   -2.77 KCAL/MOL
REMARK 924 INTRA-LIGAND FREE ENERGY PREDICTED BY IDOCK:    0.17 KCAL/MOL
REMARK 927      BINDING AFFINITY PREDICTED BY RF-SCORE:    0.00 PKD
ROOT
HETATM    1  C   UNL     1     -11.925  11.239  68.627  1.00  0.00    -0.314 C  
HETATM    2  C   UNL     1     -11.887  12.263  69.750  1.00  0.00    -0.318 C  
ENDROOT
BRANCH   2   3
HETATM    3  O   UNL     1     -11.478  13.518  69.191  1.00  0.00    -0.261 OA 
BRANCH   3   4
HETATM    4  C   UNL     1     -10.210  13.541  68.699  1.00  0.00    -0.189 C  
HETATM    5  O   UNL     1      -9.492  12.566  68.548  1.00  0.00    -0.187 OA 
BRANCH   4   6
HETATM    6  C   UNL     1      -9.905  14.914  68.219  1.00  0.00    -0.218 A  
HETATM    7  C   UNL     1     -10.919  15.673  67.605  1.00  0.00    -0.315 A  
HETATM    8  C   UNL     1     -10.630  16.907  67.023  1.00  0.00    -0.230 A  
HETATM    9  C   UNL     1      -9.326  17.394  67.047  1.00  0.00    -0.265 A  
HETATM   10  C   UNL     1      -8.313  16.658  67.665  1.00  0.00    -0.183 A  
HETATM   11  C   UNL     1      -8.602  15.423  68.248  1.00  0.00    -0.158 A  
HETATM   12  O   UNL     1      -7.597  14.729  68.861  1.00  0.00    -0.128 OA 
HETATM   13  H   UNL     1      -6.713  15.075  68.881  1.00  0.00     0.000 HD 
ENDBRANCH   4   6
ENDBRANCH   3   4
ENDBRANCH   2   3
TORSDOF 3
ENDMDL
MODEL      263
REMARK 921   NORMALIZED FREE ENERGY PREDICTED BY IDOCK:   -1.82 KCAL/MOL
REMARK 922        TOTAL FREE ENERGY PREDICTED BY IDOCK:   -2.59 KCAL/MOL
REMARK 923 INTER-LIGAND FREE ENERGY PREDICTED BY IDOCK:   -2.10 KCAL/MOL
REMARK 924 INTRA-LIGAND FREE ENERGY PREDICTED BY IDOCK:   -0.49 KCAL/MOL
REMARK 927      BINDING AFFINITY PREDICTED BY RF-SCORE:    0.00 PKD
ROOT
HETATM    1  C   UNL     1      -8.654   7.422  73.942  1.00  0.00    -0.245 C  
HETATM    2  C   UNL     1      -7.808   6.787  72.850  1.00  0.00    -0.098 C  
ENDROOT
BRANCH   2   3
HETATM    3  O   UNL     1      -8.164   5.401  72.764  1.00  0.00    -0.109 OA 
BRANCH   3   4
HETATM    4  C   UNL     1      -9.049   5.097  71.777  1.00  0.00    -0.138 C  
HETATM    5  O   UNL     1      -9.131   5.664  70.700  1.00  0.00    -0.146 OA 
BRANCH   4   6
HETATM    6  C   UNL     1      -9.783   3.861  72.154  1.00  0.00    -0.225 A  
HETATM    7  C   UNL     1     -10.434   3.797  73.401  1.00  0.00    -0.257 A  
HETATM    8  C   UNL     1     -11.013   2.606  73.840  1.00  0.00    -0.282 A  
HETATM    9  C   UNL     1     -10.946   1.468  73.040  1.00  0.00    -0.249 A  
HETATM   10  C   UNL     1     -10.316   1.522  71.795  1.00  0.00    -0.110 A  
HETATM   11  C   UNL     1      -9.737   2.713  71.355  1.00  0.00    -0.147 A  
HETATM   12  O   UNL     1      -9.140   2.745  70.126  1.00  0.00    -0.093 OA 
HETATM   13  H   UNL     1      -9.109   1.965  69.584  1.00  0.00     0.000 HD 
ENDBRANCH   4   6
ENDBRANCH   3   4
ENDBRANCH   2   3
TORSDOF 3
ENDMDL
MODEL      264
REMARK 921   NORMALIZED FREE ENERGY PREDICTED BY IDOCK:   -1.79 KCAL/MOL
REMARK 922        TOTAL FREE ENERGY PREDICTED BY IDOCK:   -2.55 KCAL/MOL
REMARK 923 INTER-LIGAND FREE ENERGY PREDICTED BY IDOCK:   -2.05 KCAL/MOL
REMARK 924 INTRA-LIGAND FREE ENERGY PREDICTED BY IDOCK:   -0.50 KCAL/MOL
REMARK 927      BINDING AFFINITY PREDICTED BY RF-SCORE:    0.00 PKD
ROOT
HETATM    1  C   UNL     1      -9.639   3.274  64.598  1.00  0.00    -0.156 C  
HETATM    2  C   UNL     1      -8.446   2.812  65.419  1.00  0.00    -0.099 C  
ENDROOT
BRANCH   2   3
HETATM    3  O   UNL     1      -8.173   3.813  66.407  1.00  0.00    -0.099 OA 
BRANCH   3   4
HETATM    4  C   UNL     1      -9.078   3.879  67.421  1.00  0.00    -0.156 C  
HETATM    5  O   UNL     1      -9.404   2.950  68.140  1.00  0.00    -0.191 OA 
BRANCH   4   6
HETATM    6  C   UNL     1      -9.477   5.297  67.618  1.00  0.00    -0.136 A  
HETATM    7  C   UNL     1     -10.773   5.707  67.251  1.00  0.00    -0.299 A  
HETATM    8  C   UNL     1     -11.131   7.056  67.295  1.00  0.00    -0.302 A  
HETATM    9  C   UNL     1     -10.199   8.006  67.704  1.00  0.00    -0.291 A  
HETATM   10  C   UNL     1      -8.915   7.610  68.084  1.00  0.00    -0.126 A  
HETATM   11  C   UNL     1      -8.556   6.262  68.041  1.00  0.00    -0.116 A  
HETATM   12  O   UNL     1      -7.299   5.898  68.433  1.00  0.00    -0.080 OA 
HETATM   13  H   UNL     1      -6.674   6.553  68.720  1.00  0.00     0.000 HD 
ENDBRANCH   4   6
ENDBRANCH   3   4
ENDBRANCH   2   3
TORSDOF 3
ENDMDL
MODEL      265
REMARK 921   NORMALIZED FREE ENERGY PREDICTED BY IDOCK:   -1.79 KCAL/MOL
REMARK 922        TOTAL FREE ENERGY PREDICTED BY IDOCK:   -2.55 KCAL/MOL
REMARK 923 INTER-LIGAND FREE ENERGY PREDICTED BY IDOCK:   -2.16 KCAL/MOL
REMARK 924 INTRA-LIGAND FREE ENERGY PREDICTED BY IDOCK:   -0.39 KCAL/MOL
REMARK 927      BINDING AFFINITY PREDICTED BY RF-SCORE:    0.00 PKD
ROOT
HETATM    1  C   UNL     1      -7.807   3.589  71.768  1.00  0.00    -0.061 C  
HETATM    2  C   UNL     1      -8.505   4.814  72.337  1.00  0.00    -0.116 C  
ENDROOT
BRANCH   2   3
HETATM    3  O   UNL     1      -9.269   5.418  71.285  1.00  0.00    -0.143 OA 
BRANCH   3   4
HETATM    4  C   UNL     1      -8.606   6.364  70.566  1.00  0.00    -0.143 C  
HETATM    5  O   UNL     1      -7.532   6.858  70.867  1.00  0.00    -0.080 OA 
BRANCH   4   6
HETATM    6  C   UNL     1      -9.317   6.575  69.279  1.00  0.00    -0.141 A  
HETATM    7  C   UNL     1      -9.645   7.884  68.877  1.00  0.00    -0.155 A  
HETATM    8  C   UNL     1     -10.431   8.105  67.745  1.00  0.00    -0.279 A  
HETATM    9  C   UNL     1     -10.898   7.021  67.005  1.00  0.00    -0.413 A  
HETATM   10  C   UNL     1     -10.567   5.718  67.385  1.00  0.00    -0.340 A  
HETATM   11  C   UNL     1      -9.781   5.497  68.517  1.00  0.00    -0.134 A  
HETATM   12  O   UNL     1      -9.458   4.214  68.858  1.00  0.00    -0.152 OA 
HETATM   13  H   UNL     1      -9.773   3.483  68.341  1.00  0.00     0.000 HD 
ENDBRANCH   4   6
ENDBRANCH   3   4
ENDBRANCH   2   3
TORSDOF 3
ENDMDL
MODEL      266
REMARK 921   NORMALIZED FREE ENERGY PREDICTED BY IDOCK:   -1.76 KCAL/MOL
REMARK 922        TOTAL FREE ENERGY PREDICTED BY IDOCK:   -2.52 KCAL/MOL
REMARK 923 INTER-LIGAND FREE ENERGY PREDICTED BY IDOCK:   -2.44 KCAL/MOL
REMARK 924 INTRA-LIGAND FREE ENERGY PREDICTED BY IDOCK:   -0.08 KCAL/MOL
REMARK 927      BINDING AFFINITY PREDICTED BY RF-SCORE:    0.00 PKD
ROOT
HETATM    1  C   UNL     1     -10.202   5.338  68.233  1.00  0.00    -0.200 C  
HETATM    2  C   UNL     1     -10.939   6.547  67.679  1.00  0.00    -0.337 C  
ENDROOT
BRANCH   2   3
HETATM    3  O   UNL     1     -10.092   7.175  66.708  1.00  0.00    -0.214 OA 
BRANCH   3   4
HETATM    4  C   UNL     1     -10.015   8.530  66.805  1.00  0.00    -0.281 C  
HETATM    5  O   UNL     1     -10.784   9.240  67.432  1.00  0.00    -0.279 OA 
BRANCH   4   6
HETATM    6  C   UNL     1      -8.753   8.987  66.167  1.00  0.00    -0.169 A  
HETATM    7  C   UNL     1      -8.135  10.167  66.625  1.00  0.00    -0.120 A  
HETATM    8  C   UNL     1      -7.029  10.694  65.958  1.00  0.00    -0.128 A  
HETATM    9  C   UNL     1      -6.530  10.050  64.829  1.00  0.00    -0.127 A  
HETATM   10  C   UNL     1      -7.124   8.871  64.374  1.00  0.00    -0.089 A  
HETATM   11  C   UNL     1      -8.231   8.343  65.040  1.00  0.00    -0.153 A  
HETATM   12  O   UNL     1      -8.785   7.180  64.585  1.00  0.00    -0.342 OA 
HETATM   13  H   UNL     1      -8.431   6.743  63.820  1.00  0.00     0.000 HD 
ENDBRANCH   4   6
ENDBRANCH   3   4
ENDBRANCH   2   3
TORSDOF 3
ENDMDL
MODEL      267
REMARK 921   NORMALIZED FREE ENERGY PREDICTED BY IDOCK:   -1.75 KCAL/MOL
REMARK 922        TOTAL FREE ENERGY PREDICTED BY IDOCK:   -2.50 KCAL/MOL
REMARK 923 INTER-LIGAND FREE ENERGY PREDICTED BY IDOCK:   -2.14 KCAL/MOL
REMARK 924 INTRA-LIGAND FREE ENERGY PREDICTED BY IDOCK:   -0.36 KCAL/MOL
REMARK 927      BINDING AFFINITY PREDICTED BY RF-SCORE:    0.00 PKD
ROOT
HETATM    1  C   UNL     1      -8.204   8.804  64.862  1.00  0.00    -0.160 C  
HETATM    2  C   UNL     1      -7.977   8.344  66.294  1.00  0.00    -0.099 C  
ENDROOT
BRANCH   2   3
HETATM    3  O   UNL     1      -7.203   9.347  66.963  1.00  0.00    -0.085 OA 
BRANCH   3   4
HETATM    4  C   UNL     1      -7.868  10.505  67.226  1.00  0.00    -0.107 C  
HETATM    5  O   UNL     1      -7.667  11.576  66.680  1.00  0.00    -0.151 OA 
BRANCH   4   6
HETATM    6  C   UNL     1      -8.985  10.215  68.162  1.00  0.00    -0.122 A  
HETATM    7  C   UNL     1     -10.296  10.588  67.809  1.00  0.00    -0.248 A  
HETATM    8  C   UNL     1     -11.344  10.455  68.721  1.00  0.00    -0.275 A  
HETATM    9  C   UNL     1     -11.091   9.950  69.995  1.00  0.00    -0.335 A  
HETATM   10  C   UNL     1      -9.798   9.564  70.352  1.00  0.00    -0.329 A  
HETATM   11  C   UNL     1      -8.750   9.696  69.440  1.00  0.00    -0.171 A  
HETATM   12  O   UNL     1      -7.497   9.296  69.808  1.00  0.00    -0.062 OA 
HETATM   13  H   UNL     1      -7.337   8.944  70.675  1.00  0.00     0.000 HD 
ENDBRANCH   4   6
ENDBRANCH   3   4
ENDBRANCH   2   3
TORSDOF 3
ENDMDL
MODEL      268
REMARK 921   NORMALIZED FREE ENERGY PREDICTED BY IDOCK:   -1.75 KCAL/MOL
REMARK 922        TOTAL FREE ENERGY PREDICTED BY IDOCK:   -2.50 KCAL/MOL
REMARK 923 INTER-LIGAND FREE ENERGY PREDICTED BY IDOCK:   -2.14 KCAL/MOL
REMARK 924 INTRA-LIGAND FREE ENERGY PREDICTED BY IDOCK:   -0.37 KCAL/MOL
REMARK 927      BINDING AFFINITY PREDICTED BY RF-SCORE:    0.00 PKD
ROOT
HETATM    1  C   UNL     1     -10.305   5.434  67.709  1.00  0.00    -0.226 C  
HETATM    2  C   UNL     1     -10.592   6.918  67.539  1.00  0.00    -0.281 C  
ENDROOT
BRANCH   2   3
HETATM    3  O   UNL     1      -9.572   7.648  68.233  1.00  0.00    -0.150 OA 
BRANCH   3   4
HETATM    4  C   UNL     1      -9.900   8.033  69.496  1.00  0.00    -0.181 C  
HETATM    5  O   UNL     1     -10.984   8.473  69.843  1.00  0.00    -0.236 OA 
BRANCH   4   6
HETATM    6  C   UNL     1      -8.787   7.674  70.412  1.00  0.00    -0.144 A  
HETATM    7  C   UNL     1      -8.613   6.330  70.795  1.00  0.00    -0.135 A  
HETATM    8  C   UNL     1      -7.666   5.982  71.759  1.00  0.00    -0.101 A  
HETATM    9  C   UNL     1      -6.885   6.973  72.350  1.00  0.00    -0.061 A  
HETATM   10  C   UNL     1      -7.038   8.307  71.969  1.00  0.00    -0.099 A  
HETATM   11  C   UNL     1      -7.985   8.656  71.005  1.00  0.00    -0.132 A  
HETATM   12  O   UNL     1      -8.105   9.966  70.637  1.00  0.00    -0.391 OA 
HETATM   13  H   UNL     1      -7.560  10.632  71.040  1.00  0.00     0.000 HD 
ENDBRANCH   4   6
ENDBRANCH   3   4
ENDBRANCH   2   3
TORSDOF 3
ENDMDL
MODEL      269
REMARK 921   NORMALIZED FREE ENERGY PREDICTED BY IDOCK:   -1.74 KCAL/MOL
REMARK 922        TOTAL FREE ENERGY PREDICTED BY IDOCK:   -2.49 KCAL/MOL
REMARK 923 INTER-LIGAND FREE ENERGY PREDICTED BY IDOCK:   -2.03 KCAL/MOL
REMARK 924 INTRA-LIGAND FREE ENERGY PREDICTED BY IDOCK:   -0.46 KCAL/MOL
REMARK 927      BINDING AFFINITY PREDICTED BY RF-SCORE:    0.00 PKD
ROOT
HETATM    1  C   UNL     1     -11.778  12.708  66.106  1.00  0.00    -0.461 C  
HETATM    2  C   UNL     1     -11.006  12.928  67.397  1.00  0.00    -0.260 C  
ENDROOT
BRANCH   2   3
HETATM    3  O   UNL     1     -10.450  11.670  67.801  1.00  0.00    -0.181 OA 
BRANCH   3   4
HETATM    4  C   UNL     1      -9.154  11.473  67.436  1.00  0.00    -0.166 C  
HETATM    5  O   UNL     1      -8.366  12.349  67.121  1.00  0.00    -0.175 OA 
BRANCH   4   6
HETATM    6  C   UNL     1      -8.809  10.042  67.645  1.00  0.00    -0.121 A  
HETATM    7  C   UNL     1      -7.649   9.711  68.371  1.00  0.00    -0.081 A  
HETATM    8  C   UNL     1      -7.225   8.385  68.466  1.00  0.00    -0.081 A  
HETATM    9  C   UNL     1      -7.953   7.379  67.836  1.00  0.00    -0.119 A  
HETATM   10  C   UNL     1      -9.112   7.693  67.124  1.00  0.00    -0.146 A  
HETATM   11  C   UNL     1      -9.538   9.019  67.029  1.00  0.00    -0.176 A  
HETATM   12  O   UNL     1     -10.684   9.299  66.341  1.00  0.00    -0.064 OA 
HETATM   13  H   UNL     1     -11.179   8.604  65.923  1.00  0.00     0.000 HD 
ENDBRANCH   4   6
ENDBRANCH   3   4
ENDBRANCH   2   3
TORSDOF 3
ENDMDL
MODEL      270
REMARK 921   NORMALIZED FREE ENERGY PREDICTED BY IDOCK:   -1.72 KCAL/MOL
REMARK 922        TOTAL FREE ENERGY PREDICTED BY IDOCK:   -2.47 KCAL/MOL
REMARK 923 INTER-LIGAND FREE ENERGY PREDICTED BY IDOCK:   -2.06 KCAL/MOL
REMARK 924 INTRA-LIGAND FREE ENERGY PREDICTED BY IDOCK:   -0.41 KCAL/MOL
REMARK 927      BINDING AFFINITY PREDICTED BY RF-SCORE:    0.00 PKD
ROOT
HETATM    1  C   UNL     1     -10.895   5.186  73.005  1.00  0.00    -0.336 C  
HETATM    2  C   UNL     1     -11.012   6.620  73.498  1.00  0.00    -0.086 C  
ENDROOT
BRANCH   2   3
HETATM    3  O   UNL     1      -9.693   7.176  73.562  1.00  0.00    -0.199 OA 
BRANCH   3   4
HETATM    4  C   UNL     1      -9.415   8.104  72.607  1.00  0.00    -0.276 C  
HETATM    5  O   UNL     1     -10.187   8.959  72.205  1.00  0.00    -0.321 OA 
BRANCH   4   6
HETATM    6  C   UNL     1      -7.974   8.016  72.255  1.00  0.00    -0.161 A  
HETATM    7  C   UNL     1      -7.171   7.038  72.873  1.00  0.00    -0.073 A  
HETATM    8  C   UNL     1      -5.790   7.019  72.668  1.00  0.00    -0.041 A  
HETATM    9  C   UNL     1      -5.200   7.975  71.845  1.00  0.00    -0.035 A  
HETATM   10  C   UNL     1      -5.987   8.941  71.215  1.00  0.00    -0.054 A  
HETATM   11  C   UNL     1      -7.368   8.961  71.420  1.00  0.00    -0.081 A  
HETATM   12  O   UNL     1      -8.119   9.906  70.780  1.00  0.00    -0.396 OA 
HETATM   13  H   UNL     1      -7.707  10.548  70.213  1.00  0.00     0.000 HD 
ENDBRANCH   4   6
ENDBRANCH   3   4
ENDBRANCH   2   3
TORSDOF 3
ENDMDL
MODEL      271
REMARK 921   NORMALIZED FREE ENERGY PREDICTED BY IDOCK:   -1.69 KCAL/MOL
REMARK 922        TOTAL FREE ENERGY PREDICTED BY IDOCK:   -2.44 KCAL/MOL
REMARK 923 INTER-LIGAND FREE ENERGY PREDICTED BY IDOCK:   -2.08 KCAL/MOL
REMARK 924 INTRA-LIGAND FREE ENERGY PREDICTED BY IDOCK:   -0.36 KCAL/MOL
REMARK 927      BINDING AFFINITY PREDICTED BY RF-SCORE:    0.00 PKD
ROOT
HETATM    1  C   UNL     1      -9.112   3.754  71.188  1.00  0.00    -0.181 C  
HETATM    2  C   UNL     1      -8.634   5.197  71.210  1.00  0.00    -0.127 C  
ENDROOT
BRANCH   2   3
HETATM    3  O   UNL     1      -9.206   5.870  70.080  1.00  0.00    -0.149 OA 
BRANCH   3   4
HETATM    4  C   UNL     1      -8.340   6.112  69.059  1.00  0.00    -0.112 C  
HETATM    5  O   UNL     1      -7.383   5.417  68.762  1.00  0.00    -0.071 OA 
BRANCH   4   6
HETATM    6  C   UNL     1      -8.844   7.263  68.264  1.00  0.00    -0.127 A  
HETATM    7  C   UNL     1      -8.048   8.417  68.139  1.00  0.00    -0.120 A  
HETATM    8  C   UNL     1      -8.549   9.562  67.518  1.00  0.00    -0.126 A  
HETATM    9  C   UNL     1      -9.849   9.565  67.018  1.00  0.00    -0.246 A  
HETATM   10  C   UNL     1     -10.643   8.422  67.123  1.00  0.00    -0.326 A  
HETATM   11  C   UNL     1     -10.143   7.276  67.744  1.00  0.00    -0.180 A  
HETATM   12  O   UNL     1     -10.934   6.165  67.820  1.00  0.00    -0.313 OA 
HETATM   13  H   UNL     1     -11.815   6.174  67.467  1.00  0.00     0.000 HD 
ENDBRANCH   4   6
ENDBRANCH   3   4
ENDBRANCH   2   3
TORSDOF 3
ENDMDL
MODEL      272
REMARK 921   NORMALIZED FREE ENERGY PREDICTED BY IDOCK:   -1.69 KCAL/MOL
REMARK 922        TOTAL FREE ENERGY PREDICTED BY IDOCK:   -2.44 KCAL/MOL
REMARK 923 INTER-LIGAND FREE ENERGY PREDICTED BY IDOCK:   -2.14 KCAL/MOL
REMARK 924 INTRA-LIGAND FREE ENERGY PREDICTED BY IDOCK:   -0.30 KCAL/MOL
REMARK 927      BINDING AFFINITY PREDICTED BY RF-SCORE:    0.00 PKD
ROOT
HETATM    1  C   UNL     1      -9.802   7.776  72.650  1.00  0.00    -0.284 C  
HETATM    2  C   UNL     1     -10.427   7.755  71.264  1.00  0.00    -0.206 C  
ENDROOT
BRANCH   2   3
HETATM    3  O   UNL     1      -9.411   7.382  70.325  1.00  0.00    -0.161 OA 
BRANCH   3   4
HETATM    4  C   UNL     1      -9.625   7.803  69.050  1.00  0.00    -0.155 C  
HETATM    5  O   UNL     1      -9.623   8.965  68.678  1.00  0.00    -0.150 OA 
BRANCH   4   6
HETATM    6  C   UNL     1      -9.697   6.617  68.157  1.00  0.00    -0.130 A  
HETATM    7  C   UNL     1      -9.921   5.344  68.715  1.00  0.00    -0.235 A  
HETATM    8  C   UNL     1      -9.856   4.198  67.922  1.00  0.00    -0.098 A  
HETATM    9  C   UNL     1      -9.565   4.312  66.565  1.00  0.00    -0.214 A  
HETATM   10  C   UNL     1      -9.355   5.570  65.996  1.00  0.00    -0.161 A  
HETATM   11  C   UNL     1      -9.420   6.717  66.789  1.00  0.00    -0.160 A  
HETATM   12  O   UNL     1      -9.226   7.937  66.206  1.00  0.00    -0.181 OA 
HETATM   13  H   UNL     1      -9.038   8.004  65.277  1.00  0.00     0.000 HD 
ENDBRANCH   4   6
ENDBRANCH   3   4
ENDBRANCH   2   3
TORSDOF 3
ENDMDL
MODEL      273
REMARK 921   NORMALIZED FREE ENERGY PREDICTED BY IDOCK:   -1.69 KCAL/MOL
REMARK 922        TOTAL FREE ENERGY PREDICTED BY IDOCK:   -2.44 KCAL/MOL
REMARK 923 INTER-LIGAND FREE ENERGY PREDICTED BY IDOCK:   -2.02 KCAL/MOL
REMARK 924 INTRA-LIGAND FREE ENERGY PREDICTED BY IDOCK:   -0.42 KCAL/MOL
REMARK 927      BINDING AFFINITY PREDICTED BY RF-SCORE:    0.00 PKD
ROOT
HETATM    1  C   UNL     1     -11.466  12.613  66.871  1.00  0.00    -0.402 C  
HETATM    2  C   UNL     1     -10.547  12.981  68.025  1.00  0.00    -0.235 C  
ENDROOT
BRANCH   2   3
HETATM    3  O   UNL     1      -9.612  11.910  68.206  1.00  0.00    -0.192 OA 
BRANCH   3   4
HETATM    4  C   UNL     1      -8.375  12.135  67.688  1.00  0.00    -0.163 C  
HETATM    5  O   UNL     1      -7.928  13.224  67.369  1.00  0.00    -0.171 OA 
BRANCH   4   6
HETATM    6  C   UNL     1      -7.598  10.868  67.731  1.00  0.00    -0.095 A  
HETATM    7  C   UNL     1      -7.859   9.932  68.750  1.00  0.00    -0.091 A  
HETATM    8  C   UNL     1      -7.056   8.800  68.898  1.00  0.00    -0.066 A  
HETATM    9  C   UNL     1      -5.986   8.594  68.031  1.00  0.00    -0.047 A  
HETATM   10  C   UNL     1      -5.725   9.507  67.008  1.00  0.00    -0.051 A  
HETATM   11  C   UNL     1      -6.528  10.640  66.859  1.00  0.00    -0.084 A  
HETATM   12  O   UNL     1      -6.263  11.510  65.840  1.00  0.00    -0.424 OA 
HETATM   13  H   UNL     1      -5.537  11.355  65.248  1.00  0.00     0.000 HD 
ENDBRANCH   4   6
ENDBRANCH   3   4
ENDBRANCH   2   3
TORSDOF 3
ENDMDL
MODEL      274
REMARK 921   NORMALIZED FREE ENERGY PREDICTED BY IDOCK:   -1.64 KCAL/MOL
REMARK 922        TOTAL FREE ENERGY PREDICTED BY IDOCK:   -2.38 KCAL/MOL
REMARK 923 INTER-LIGAND FREE ENERGY PREDICTED BY IDOCK:   -2.01 KCAL/MOL
REMARK 924 INTRA-LIGAND FREE ENERGY PREDICTED BY IDOCK:   -0.37 KCAL/MOL
REMARK 927      BINDING AFFINITY PREDICTED BY RF-SCORE:    0.00 PKD
ROOT
HETATM    1  C   UNL     1      -7.440   8.889  64.964  1.00  0.00    -0.097 C  
HETATM    2  C   UNL     1      -6.830   8.454  66.288  1.00  0.00    -0.073 C  
ENDROOT
BRANCH   2   3
HETATM    3  O   UNL     1      -7.824   8.612  67.307  1.00  0.00    -0.096 OA 
BRANCH   3   4
HETATM    4  C   UNL     1      -7.523   8.028  68.498  1.00  0.00    -0.102 C  
HETATM    5  O   UNL     1      -6.502   8.213  69.139  1.00  0.00    -0.038 OA 
BRANCH   4   6
HETATM    6  C   UNL     1      -8.706   7.261  68.970  1.00  0.00    -0.132 A  
HETATM    7  C   UNL     1      -9.760   6.998  68.076  1.00  0.00    -0.140 A  
HETATM    8  C   UNL     1     -10.941   6.402  68.523  1.00  0.00    -0.396 A  
HETATM    9  C   UNL     1     -11.078   6.066  69.868  1.00  0.00    -0.469 A  
HETATM   10  C   UNL     1     -10.034   6.308  70.762  1.00  0.00    -0.220 A  
HETATM   11  C   UNL     1      -8.853   6.904  70.315  1.00  0.00    -0.148 A  
HETATM   12  O   UNL     1      -7.840   7.116  71.206  1.00  0.00    -0.096 OA 
HETATM   13  H   UNL     1      -7.940   6.873  72.119  1.00  0.00     0.000 HD 
ENDBRANCH   4   6
ENDBRANCH   3   4
ENDBRANCH   2   3
TORSDOF 3
ENDMDL
MODEL      275
REMARK 921   NORMALIZED FREE ENERGY PREDICTED BY IDOCK:   -1.63 KCAL/MOL
REMARK 922        TOTAL FREE ENERGY PREDICTED BY IDOCK:   -2.37 KCAL/MOL
REMARK 923 INTER-LIGAND FREE ENERGY PREDICTED BY IDOCK:   -3.02 KCAL/MOL
REMARK 924 INTRA-LIGAND FREE ENERGY PREDICTED BY IDOCK:    0.65 KCAL/MOL
REMARK 927      BINDING AFFINITY PREDICTED BY RF-SCORE:    0.00 PKD
ROOT
HETATM    1  C   UNL     1     -11.439  15.039  71.530  1.00  0.00    -0.377 C  
HETATM    2  C   UNL     1     -10.729  14.870  70.196  1.00  0.00    -0.086 C  
ENDROOT
BRANCH   2   3
HETATM    3  O   UNL     1     -10.607  16.163  69.592  1.00  0.00    -0.268 OA 
BRANCH   3   4
HETATM    4  C   UNL     1     -10.393  16.151  68.248  1.00  0.00    -0.266 C  
HETATM    5  O   UNL     1     -10.381  17.132  67.524  1.00  0.00    -0.320 OA 
BRANCH   4   6
HETATM    6  C   UNL     1     -10.013  14.775  67.835  1.00  0.00    -0.213 A  
HETATM    7  C   UNL     1      -8.854  14.186  68.375  1.00  0.00    -0.187 A  
HETATM    8  C   UNL     1      -8.396  12.955  67.905  1.00  0.00    -0.170 A  
HETATM    9  C   UNL     1      -9.091  12.301  66.891  1.00  0.00    -0.208 A  
HETATM   10  C   UNL     1     -10.249  12.867  66.356  1.00  0.00    -0.273 A  
HETATM   11  C   UNL     1     -10.708  14.098  66.826  1.00  0.00    -0.286 A  
HETATM   12  O   UNL     1     -11.853  14.624  66.298  1.00  0.00    -0.364 OA 
HETATM   13  H   UNL     1     -12.325  14.164  65.613  1.00  0.00     0.000 HD 
ENDBRANCH   4   6
ENDBRANCH   3   4
ENDBRANCH   2   3
TORSDOF 3
ENDMDL
MODEL      276
REMARK 921   NORMALIZED FREE ENERGY PREDICTED BY IDOCK:   -1.62 KCAL/MOL
REMARK 922        TOTAL FREE ENERGY PREDICTED BY IDOCK:   -2.35 KCAL/MOL
REMARK 923 INTER-LIGAND FREE ENERGY PREDICTED BY IDOCK:   -2.40 KCAL/MOL
REMARK 924 INTRA-LIGAND FREE ENERGY PREDICTED BY IDOCK:    0.05 KCAL/MOL
REMARK 927      BINDING AFFINITY PREDICTED BY RF-SCORE:    0.00 PKD
ROOT
HETATM    1  C   UNL     1     -12.243   8.384  71.259  1.00  0.00    -0.305 C  
HETATM    2  C   UNL     1     -10.780   7.970  71.212  1.00  0.00    -0.229 C  
ENDROOT
BRANCH   2   3
HETATM    3  O   UNL     1     -10.647   6.922  70.244  1.00  0.00    -0.206 OA 
BRANCH   3   4
HETATM    4  C   UNL     1      -9.370   6.517  70.009  1.00  0.00    -0.157 C  
HETATM    5  O   UNL     1      -8.681   5.866  70.776  1.00  0.00    -0.131 OA 
BRANCH   4   6
HETATM    6  C   UNL     1      -9.010   6.851  68.606  1.00  0.00    -0.129 A  
HETATM    7  C   UNL     1      -7.654   7.002  68.258  1.00  0.00    -0.111 A  
HETATM    8  C   UNL     1      -7.292   7.449  66.987  1.00  0.00    -0.097 A  
HETATM    9  C   UNL     1      -8.280   7.751  66.053  1.00  0.00    -0.123 A  
HETATM   10  C   UNL     1      -9.628   7.592  66.381  1.00  0.00    -0.223 A  
HETATM   11  C   UNL     1      -9.991   7.145  67.652  1.00  0.00    -0.158 A  
HETATM   12  O   UNL     1     -11.315   6.982  67.944  1.00  0.00    -0.529 OA 
HETATM   13  H   UNL     1     -11.981   7.181  67.296  1.00  0.00     0.000 HD 
ENDBRANCH   4   6
ENDBRANCH   3   4
ENDBRANCH   2   3
TORSDOF 3
ENDMDL
MODEL      277
REMARK 921   NORMALIZED FREE ENERGY PREDICTED BY IDOCK:   -1.61 KCAL/MOL
REMARK 922        TOTAL FREE ENERGY PREDICTED BY IDOCK:   -2.34 KCAL/MOL
REMARK 923 INTER-LIGAND FREE ENERGY PREDICTED BY IDOCK:   -1.94 KCAL/MOL
REMARK 924 INTRA-LIGAND FREE ENERGY PREDICTED BY IDOCK:   -0.40 KCAL/MOL
REMARK 927      BINDING AFFINITY PREDICTED BY RF-SCORE:    0.00 PKD
ROOT
HETATM    1  C   UNL     1      -9.327  10.150  69.223  1.00  0.00    -0.227 C  
HETATM    2  C   UNL     1      -8.655   8.814  68.948  1.00  0.00    -0.136 C  
ENDROOT
BRANCH   2   3
HETATM    3  O   UNL     1      -9.401   7.795  69.625  1.00  0.00    -0.153 OA 
BRANCH   3   4
HETATM    4  C   UNL     1      -8.859   6.549  69.561  1.00  0.00    -0.138 C  
HETATM    5  O   UNL     1      -8.140   6.135  68.667  1.00  0.00    -0.106 OA 
BRANCH   4   6
HETATM    6  C   UNL     1      -9.147   5.833  70.831  1.00  0.00    -0.157 A  
HETATM    7  C   UNL     1      -9.848   4.613  70.793  1.00  0.00    -0.284 A  
HETATM    8  C   UNL     1     -10.253   3.988  71.973  1.00  0.00    -0.186 A  
HETATM    9  C   UNL     1      -9.962   4.576  73.202  1.00  0.00    -0.184 A  
HETATM   10  C   UNL     1      -9.255   5.779  73.254  1.00  0.00    -0.135 A  
HETATM   11  C   UNL     1      -8.850   6.405  72.073  1.00  0.00    -0.134 A  
HETATM   12  O   UNL     1      -8.145   7.572  72.151  1.00  0.00    -0.097 OA 
HETATM   13  H   UNL     1      -7.944   7.960  72.994  1.00  0.00     0.000 HD 
ENDBRANCH   4   6
ENDBRANCH   3   4
ENDBRANCH   2   3
TORSDOF 3
ENDMDL
MODEL      278
REMARK 921   NORMALIZED FREE ENERGY PREDICTED BY IDOCK:   -1.56 KCAL/MOL
REMARK 922        TOTAL FREE ENERGY PREDICTED BY IDOCK:   -2.29 KCAL/MOL
REMARK 923 INTER-LIGAND FREE ENERGY PREDICTED BY IDOCK:   -1.88 KCAL/MOL
REMARK 924 INTRA-LIGAND FREE ENERGY PREDICTED BY IDOCK:   -0.41 KCAL/MOL
REMARK 927      BINDING AFFINITY PREDICTED BY RF-SCORE:    0.00 PKD
ROOT
HETATM    1  C   UNL     1      -9.284  10.160  69.229  1.00  0.00    -0.220 C  
HETATM    2  C   UNL     1      -8.475   8.897  68.981  1.00  0.00    -0.133 C  
ENDROOT
BRANCH   2   3
HETATM    3  O   UNL     1      -9.133   7.812  69.647  1.00  0.00    -0.146 OA 
BRANCH   3   4
HETATM    4  C   UNL     1      -8.458   6.631  69.625  1.00  0.00    -0.132 C  
HETATM    5  O   UNL     1      -7.888   6.124  70.576  1.00  0.00    -0.101 OA 
BRANCH   4   6
HETATM    6  C   UNL     1      -8.668   5.981  68.305  1.00  0.00    -0.113 A  
HETATM    7  C   UNL     1      -7.553   5.649  67.513  1.00  0.00    -0.089 A  
HETATM    8  C   UNL     1      -7.721   5.166  66.214  1.00  0.00    -0.088 A  
HETATM    9  C   UNL     1      -9.004   5.012  65.695  1.00  0.00    -0.149 A  
HETATM   10  C   UNL     1     -10.119   5.325  66.475  1.00  0.00    -0.260 A  
HETATM   11  C   UNL     1      -9.951   5.808  67.774  1.00  0.00    -0.140 A  
HETATM   12  O   UNL     1     -11.058   6.092  68.523  1.00  0.00    -0.313 OA 
HETATM   13  H   UNL     1     -11.929   5.974  68.162  1.00  0.00     0.000 HD 
ENDBRANCH   4   6
ENDBRANCH   3   4
ENDBRANCH   2   3
TORSDOF 3
ENDMDL
MODEL      279
REMARK 921   NORMALIZED FREE ENERGY PREDICTED BY IDOCK:   -1.56 KCAL/MOL
REMARK 922        TOTAL FREE ENERGY PREDICTED BY IDOCK:   -2.28 KCAL/MOL
REMARK 923 INTER-LIGAND FREE ENERGY PREDICTED BY IDOCK:   -1.83 KCAL/MOL
REMARK 924 INTRA-LIGAND FREE ENERGY PREDICTED BY IDOCK:   -0.45 KCAL/MOL
REMARK 927      BINDING AFFINITY PREDICTED BY RF-SCORE:    0.00 PKD
ROOT
HETATM    1  C   UNL     1     -11.586   6.432  69.981  1.00  0.00    -0.446 C  
HETATM    2  C   UNL     1     -10.494   7.429  69.628  1.00  0.00    -0.232 C  
ENDROOT
BRANCH   2   3
HETATM    3  O   UNL     1     -10.334   8.322  70.738  1.00  0.00    -0.191 OA 
BRANCH   3   4
HETATM    4  C   UNL     1      -9.050   8.692  70.996  1.00  0.00    -0.199 C  
HETATM    5  O   UNL     1      -8.593   9.812  70.842  1.00  0.00    -0.161 OA 
BRANCH   4   6
HETATM    6  C   UNL     1      -8.345   7.560  71.650  1.00  0.00    -0.114 A  
HETATM    7  C   UNL     1      -8.938   6.924  72.758  1.00  0.00    -0.146 A  
HETATM    8  C   UNL     1      -8.240   5.951  73.476  1.00  0.00    -0.111 A  
HETATM    9  C   UNL     1      -6.946   5.607  73.096  1.00  0.00    -0.081 A  
HETATM   10  C   UNL     1      -6.352   6.220  71.991  1.00  0.00    -0.046 A  
HETATM   11  C   UNL     1      -7.049   7.192  71.271  1.00  0.00    -0.069 A  
HETATM   12  O   UNL     1      -6.453   7.766  70.184  1.00  0.00    -0.033 OA 
HETATM   13  H   UNL     1      -5.573   7.516  69.927  1.00  0.00     0.000 HD 
ENDBRANCH   4   6
ENDBRANCH   3   4
ENDBRANCH   2   3
TORSDOF 3
ENDMDL
MODEL      280
REMARK 921   NORMALIZED FREE ENERGY PREDICTED BY IDOCK:   -1.50 KCAL/MOL
REMARK 922        TOTAL FREE ENERGY PREDICTED BY IDOCK:   -2.21 KCAL/MOL
REMARK 923 INTER-LIGAND FREE ENERGY PREDICTED BY IDOCK:   -1.78 KCAL/MOL
REMARK 924 INTRA-LIGAND FREE ENERGY PREDICTED BY IDOCK:   -0.43 KCAL/MOL
REMARK 927      BINDING AFFINITY PREDICTED BY RF-SCORE:    0.00 PKD
ROOT
HETATM    1  C   UNL     1     -11.022   6.346  69.814  1.00  0.00    -0.417 C  
HETATM    2  C   UNL     1     -10.344   5.056  69.379  1.00  0.00    -0.144 C  
ENDROOT
BRANCH   2   3
HETATM    3  O   UNL     1      -8.949   5.330  69.194  1.00  0.00    -0.101 OA 
BRANCH   3   4
HETATM    4  C   UNL     1      -8.606   5.734  67.941  1.00  0.00    -0.101 C  
HETATM    5  O   UNL     1      -8.355   6.882  67.611  1.00  0.00    -0.122 OA 
BRANCH   4   6
HETATM    6  C   UNL     1      -8.423   4.535  67.082  1.00  0.00    -0.104 A  
HETATM    7  C   UNL     1      -7.641   3.462  67.551  1.00  0.00    -0.069 A  
HETATM    8  C   UNL     1      -7.338   2.386  66.716  1.00  0.00    -0.061 A  
HETATM    9  C   UNL     1      -7.811   2.372  65.407  1.00  0.00    -0.078 A  
HETATM   10  C   UNL     1      -8.598   3.423  64.934  1.00  0.00    -0.102 A  
HETATM   11  C   UNL     1      -8.902   4.500  65.768  1.00  0.00    -0.124 A  
HETATM   12  O   UNL     1      -9.688   5.509  65.287  1.00  0.00    -0.359 OA 
HETATM   13  H   UNL     1     -10.014   5.485  64.395  1.00  0.00     0.000 HD 
ENDBRANCH   4   6
ENDBRANCH   3   4
ENDBRANCH   2   3
TORSDOF 3
ENDMDL
MODEL      281
REMARK 921   NORMALIZED FREE ENERGY PREDICTED BY IDOCK:   -1.48 KCAL/MOL
REMARK 922        TOTAL FREE ENERGY PREDICTED BY IDOCK:   -2.19 KCAL/MOL
REMARK 923 INTER-LIGAND FREE ENERGY PREDICTED BY IDOCK:   -1.81 KCAL/MOL
REMARK 924 INTRA-LIGAND FREE ENERGY PREDICTED BY IDOCK:   -0.38 KCAL/MOL
REMARK 927      BINDING AFFINITY PREDICTED BY RF-SCORE:    0.00 PKD
ROOT
HETATM    1  C   UNL     1     -11.843  10.565  69.383  1.00  0.00    -0.271 C  
HETATM    2  C   UNL     1     -10.366  10.204  69.417  1.00  0.00    -0.232 C  
ENDROOT
BRANCH   2   3
HETATM    3  O   UNL     1     -10.242   8.812  69.098  1.00  0.00    -0.197 OA 
BRANCH   3   4
HETATM    4  C   UNL     1      -9.376   8.530  68.088  1.00  0.00    -0.137 C  
HETATM    5  O   UNL     1      -9.062   9.295  67.191  1.00  0.00    -0.128 OA 
BRANCH   4   6
HETATM    6  C   UNL     1      -8.750   7.207  68.346  1.00  0.00    -0.125 A  
HETATM    7  C   UNL     1      -8.114   6.973  69.580  1.00  0.00    -0.130 A  
HETATM    8  C   UNL     1      -7.399   5.794  69.799  1.00  0.00    -0.071 A  
HETATM    9  C   UNL     1      -7.313   4.840  68.789  1.00  0.00    -0.061 A  
HETATM   10  C   UNL     1      -7.952   5.054  67.566  1.00  0.00    -0.095 A  
HETATM   11  C   UNL     1      -8.666   6.233  67.345  1.00  0.00    -0.105 A  
HETATM   12  O   UNL     1      -9.296   6.411  66.146  1.00  0.00    -0.256 OA 
HETATM   13  H   UNL     1      -9.239   5.750  65.467  1.00  0.00     0.000 HD 
ENDBRANCH   4   6
ENDBRANCH   3   4
ENDBRANCH   2   3
TORSDOF 3
ENDMDL
MODEL      282
REMARK 921   NORMALIZED FREE ENERGY PREDICTED BY IDOCK:   -1.47 KCAL/MOL
REMARK 922        TOTAL FREE ENERGY PREDICTED BY IDOCK:   -2.18 KCAL/MOL
REMARK 923 INTER-LIGAND FREE ENERGY PREDICTED BY IDOCK:   -1.81 KCAL/MOL
REMARK 924 INTRA-LIGAND FREE ENERGY PREDICTED BY IDOCK:   -0.37 KCAL/MOL
REMARK 927      BINDING AFFINITY PREDICTED BY RF-SCORE:    0.00 PKD
ROOT
HETATM    1  C   UNL     1      -7.742   2.164  63.574  1.00  0.00    -0.060 C  
HETATM    2  C   UNL     1      -9.102   2.610  64.088  1.00  0.00    -0.112 C  
ENDROOT
BRANCH   2   3
HETATM    3  O   UNL     1      -8.889   3.596  65.106  1.00  0.00    -0.113 OA 
BRANCH   3   4
HETATM    4  C   UNL     1      -9.117   4.880  64.719  1.00  0.00    -0.095 C  
HETATM    5  O   UNL     1      -9.136   5.278  63.566  1.00  0.00     0.083 OA 
BRANCH   4   6
HETATM    6  C   UNL     1      -9.503   5.680  65.910  1.00  0.00    -0.087 A  
HETATM    7  C   UNL     1     -10.275   5.081  66.924  1.00  0.00    -0.270 A  
HETATM    8  C   UNL     1     -10.768   5.842  67.985  1.00  0.00    -0.332 A  
HETATM    9  C   UNL     1     -10.496   7.207  68.043  1.00  0.00    -0.251 A  
HETATM   10  C   UNL     1      -9.720   7.810  67.051  1.00  0.00    -0.259 A  
HETATM   11  C   UNL     1      -9.226   7.049  65.989  1.00  0.00    -0.021 A  
HETATM   12  O   UNL     1      -8.456   7.659  65.040  1.00  0.00    -0.289 OA 
HETATM   13  H   UNL     1      -8.268   8.588  65.094  1.00  0.00     0.000 HD 
ENDBRANCH   4   6
ENDBRANCH   3   4
ENDBRANCH   2   3
TORSDOF 3
ENDMDL
MODEL      283
REMARK 921   NORMALIZED FREE ENERGY PREDICTED BY IDOCK:   -1.44 KCAL/MOL
REMARK 922        TOTAL FREE ENERGY PREDICTED BY IDOCK:   -2.14 KCAL/MOL
REMARK 923 INTER-LIGAND FREE ENERGY PREDICTED BY IDOCK:   -1.73 KCAL/MOL
REMARK 924 INTRA-LIGAND FREE ENERGY PREDICTED BY IDOCK:   -0.41 KCAL/MOL
REMARK 927      BINDING AFFINITY PREDICTED BY RF-SCORE:    0.00 PKD
ROOT
HETATM    1  C   UNL     1      -9.861   7.806  72.682  1.00  0.00    -0.284 C  
HETATM    2  C   UNL     1     -10.687   7.810  71.405  1.00  0.00    -0.222 C  
ENDROOT
BRANCH   2   3
HETATM    3  O   UNL     1      -9.850   7.354  70.335  1.00  0.00    -0.183 OA 
BRANCH   3   4
HETATM    4  C   UNL     1     -10.267   6.211  69.727  1.00  0.00    -0.195 C  
HETATM    5  O   UNL     1     -11.335   6.062  69.156  1.00  0.00    -0.364 OA 
BRANCH   4   6
HETATM    6  C   UNL     1      -9.149   5.231  69.725  1.00  0.00    -0.150 A  
HETATM    7  C   UNL     1      -8.052   5.435  70.584  1.00  0.00    -0.110 A  
HETATM    8  C   UNL     1      -6.927   4.611  70.507  1.00  0.00    -0.037 A  
HETATM    9  C   UNL     1      -6.889   3.579  69.573  1.00  0.00    -0.041 A  
HETATM   10  C   UNL     1      -7.976   3.359  68.725  1.00  0.00    -0.067 A  
HETATM   11  C   UNL     1      -9.101   4.182  68.802  1.00  0.00    -0.133 A  
HETATM   12  O   UNL     1     -10.159   3.936  67.973  1.00  0.00     0.054 OA 
HETATM   13  H   UNL     1     -10.126   3.223  67.346  1.00  0.00     0.000 HD 
ENDBRANCH   4   6
ENDBRANCH   3   4
ENDBRANCH   2   3
TORSDOF 3
ENDMDL
MODEL      284
REMARK 921   NORMALIZED FREE ENERGY PREDICTED BY IDOCK:   -1.43 KCAL/MOL
REMARK 922        TOTAL FREE ENERGY PREDICTED BY IDOCK:   -2.13 KCAL/MOL
REMARK 923 INTER-LIGAND FREE ENERGY PREDICTED BY IDOCK:   -1.73 KCAL/MOL
REMARK 924 INTRA-LIGAND FREE ENERGY PREDICTED BY IDOCK:   -0.40 KCAL/MOL
REMARK 927      BINDING AFFINITY PREDICTED BY RF-SCORE:    0.00 PKD
ROOT
HETATM    1  C   UNL     1      -8.154   1.886  65.818  1.00  0.00    -0.081 C  
HETATM    2  C   UNL     1      -9.187   2.811  65.194  1.00  0.00    -0.139 C  
ENDROOT
BRANCH   2   3
HETATM    3  O   UNL     1      -8.661   4.144  65.218  1.00  0.00    -0.115 OA 
BRANCH   3   4
HETATM    4  C   UNL     1      -9.416   5.046  65.900  1.00  0.00    -0.162 C  
HETATM    5  O   UNL     1     -10.488   4.813  66.433  1.00  0.00    -0.282 OA 
BRANCH   4   6
HETATM    6  C   UNL     1      -8.648   6.312  66.035  1.00  0.00    -0.146 A  
HETATM    7  C   UNL     1      -8.436   6.858  67.315  1.00  0.00    -0.121 A  
HETATM    8  C   UNL     1      -7.841   8.111  67.464  1.00  0.00    -0.110 A  
HETATM    9  C   UNL     1      -7.453   8.831  66.336  1.00  0.00    -0.087 A  
HETATM   10  C   UNL     1      -7.645   8.294  65.061  1.00  0.00    -0.095 A  
HETATM   11  C   UNL     1      -8.240   7.040  64.912  1.00  0.00    -0.074 A  
HETATM   12  O   UNL     1      -8.402   6.529  63.656  1.00  0.00    -0.322 OA 
HETATM   13  H   UNL     1      -8.125   7.023  62.893  1.00  0.00     0.000 HD 
ENDBRANCH   4   6
ENDBRANCH   3   4
ENDBRANCH   2   3
TORSDOF 3
ENDMDL
MODEL      285
REMARK 921   NORMALIZED FREE ENERGY PREDICTED BY IDOCK:   -1.40 KCAL/MOL
REMARK 922        TOTAL FREE ENERGY PREDICTED BY IDOCK:   -2.09 KCAL/MOL
REMARK 923 INTER-LIGAND FREE ENERGY PREDICTED BY IDOCK:   -1.70 KCAL/MOL
REMARK 924 INTRA-LIGAND FREE ENERGY PREDICTED BY IDOCK:   -0.39 KCAL/MOL
REMARK 927      BINDING AFFINITY PREDICTED BY RF-SCORE:    0.00 PKD
ROOT
HETATM    1  C   UNL     1     -11.109   4.993  73.077  1.00  0.00    -0.378 C  
HETATM    2  C   UNL     1     -10.675   6.446  73.199  1.00  0.00    -0.268 C  
ENDROOT
BRANCH   2   3
HETATM    3  O   UNL     1      -9.529   6.637  72.361  1.00  0.00    -0.149 OA 
BRANCH   3   4
HETATM    4  C   UNL     1      -9.629   7.670  71.480  1.00  0.00    -0.154 C  
HETATM    5  O   UNL     1     -10.517   8.506  71.468  1.00  0.00    -0.210 OA 
BRANCH   4   6
HETATM    6  C   UNL     1      -8.398   7.712  70.647  1.00  0.00    -0.125 A  
HETATM    7  C   UNL     1      -8.512   7.656  69.245  1.00  0.00    -0.138 A  
HETATM    8  C   UNL     1      -7.374   7.555  68.443  1.00  0.00    -0.099 A  
HETATM    9  C   UNL     1      -6.114   7.507  69.035  1.00  0.00    -0.034 A  
HETATM   10  C   UNL     1      -5.987   7.576  70.423  1.00  0.00    -0.027 A  
HETATM   11  C   UNL     1      -7.125   7.678  71.226  1.00  0.00    -0.054 A  
HETATM   12  O   UNL     1      -6.974   7.760  72.581  1.00  0.00    -0.066 OA 
HETATM   13  H   UNL     1      -6.110   7.737  72.973  1.00  0.00     0.000 HD 
ENDBRANCH   4   6
ENDBRANCH   3   4
ENDBRANCH   2   3
TORSDOF 3
ENDMDL
MODEL      286
REMARK 921   NORMALIZED FREE ENERGY PREDICTED BY IDOCK:   -1.38 KCAL/MOL
REMARK 922        TOTAL FREE ENERGY PREDICTED BY IDOCK:   -2.08 KCAL/MOL
REMARK 923 INTER-LIGAND FREE ENERGY PREDICTED BY IDOCK:   -2.09 KCAL/MOL
REMARK 924 INTRA-LIGAND FREE ENERGY PREDICTED BY IDOCK:    0.01 KCAL/MOL
REMARK 927      BINDING AFFINITY PREDICTED BY RF-SCORE:    0.00 PKD
ROOT
HETATM    1  C   UNL     1     -12.525  13.013  70.335  1.00  0.00    -0.266 C  
HETATM    2  C   UNL     1     -11.423  12.025  70.683  1.00  0.00     0.705 C  
ENDROOT
BRANCH   2   3
HETATM    3  O   UNL     1     -11.680  10.806  69.976  1.00  0.00    -0.277 OA 
BRANCH   3   4
HETATM    4  C   UNL     1     -10.683   9.882  70.043  1.00  0.00    -0.292 C  
HETATM    5  O   UNL     1     -10.178   9.459  71.069  1.00  0.00    -0.287 OA 
BRANCH   4   6
HETATM    6  C   UNL     1     -10.427   9.352  68.678  1.00  0.00    -0.236 A  
HETATM    7  C   UNL     1     -10.040   8.007  68.522  1.00  0.00    -0.218 A  
HETATM    8  C   UNL     1      -9.660   7.518  67.271  1.00  0.00    -0.198 A  
HETATM    9  C   UNL     1      -9.660   8.367  66.167  1.00  0.00    -0.246 A  
HETATM   10  C   UNL     1     -10.055   9.699  66.307  1.00  0.00    -0.322 A  
HETATM   11  C   UNL     1     -10.436  10.189  67.557  1.00  0.00    -0.253 A  
HETATM   12  O   UNL     1     -10.833  11.491  67.665  1.00  0.00    -0.203 OA 
HETATM   13  H   UNL     1     -10.839  12.059  66.904  1.00  0.00     0.000 HD 
ENDBRANCH   4   6
ENDBRANCH   3   4
ENDBRANCH   2   3
TORSDOF 3
ENDMDL
MODEL      287
REMARK 921   NORMALIZED FREE ENERGY PREDICTED BY IDOCK:   -1.38 KCAL/MOL
REMARK 922        TOTAL FREE ENERGY PREDICTED BY IDOCK:   -2.08 KCAL/MOL
REMARK 923 INTER-LIGAND FREE ENERGY PREDICTED BY IDOCK:   -1.61 KCAL/MOL
REMARK 924 INTRA-LIGAND FREE ENERGY PREDICTED BY IDOCK:   -0.46 KCAL/MOL
REMARK 927      BINDING AFFINITY PREDICTED BY RF-SCORE:    0.00 PKD
ROOT
HETATM    1  C   UNL     1      -8.195   2.017  65.794  1.00  0.00    -0.089 C  
HETATM    2  C   UNL     1      -9.160   2.984  65.127  1.00  0.00    -0.148 C  
ENDROOT
BRANCH   2   3
HETATM    3  O   UNL     1      -8.711   4.317  65.401  1.00  0.00    -0.117 OA 
BRANCH   3   4
HETATM    4  C   UNL     1      -9.649   5.138  65.948  1.00  0.00    -0.148 C  
HETATM    5  O   UNL     1     -10.849   4.922  65.974  1.00  0.00    -0.301 OA 
BRANCH   4   6
HETATM    6  C   UNL     1      -8.961   6.251  66.653  1.00  0.00    -0.139 A  
HETATM    7  C   UNL     1      -9.043   7.555  66.129  1.00  0.00    -0.179 A  
HETATM    8  C   UNL     1      -8.298   8.594  66.689  1.00  0.00    -0.108 A  
HETATM    9  C   UNL     1      -7.464   8.340  67.775  1.00  0.00    -0.094 A  
HETATM   10  C   UNL     1      -7.385   7.053  68.313  1.00  0.00    -0.097 A  
HETATM   11  C   UNL     1      -8.131   6.014  67.754  1.00  0.00    -0.109 A  
HETATM   12  O   UNL     1      -8.049   4.768  68.308  1.00  0.00    -0.085 OA 
HETATM   13  H   UNL     1      -7.485   4.607  69.055  1.00  0.00     0.000 HD 
ENDBRANCH   4   6
ENDBRANCH   3   4
ENDBRANCH   2   3
TORSDOF 3
ENDMDL
MODEL      288
REMARK 921   NORMALIZED FREE ENERGY PREDICTED BY IDOCK:   -1.31 KCAL/MOL
REMARK 922        TOTAL FREE ENERGY PREDICTED BY IDOCK:   -1.99 KCAL/MOL
REMARK 923 INTER-LIGAND FREE ENERGY PREDICTED BY IDOCK:   -1.57 KCAL/MOL
REMARK 924 INTRA-LIGAND FREE ENERGY PREDICTED BY IDOCK:   -0.42 KCAL/MOL
REMARK 927      BINDING AFFINITY PREDICTED BY RF-SCORE:    0.00 PKD
ROOT
HETATM    1  C   UNL     1      -7.500   2.406  66.757  1.00  0.00    -0.066 C  
HETATM    2  C   UNL     1      -8.604   3.402  66.437  1.00  0.00    -0.119 C  
ENDROOT
BRANCH   2   3
HETATM    3  O   UNL     1      -8.178   4.695  66.885  1.00  0.00    -0.106 OA 
BRANCH   3   4
HETATM    4  C   UNL     1      -9.165   5.478  67.399  1.00  0.00    -0.110 C  
HETATM    5  O   UNL     1     -10.294   5.580  66.948  1.00  0.00    -0.209 OA 
BRANCH   4   6
HETATM    6  C   UNL     1      -8.700   6.055  68.687  1.00  0.00    -0.110 A  
HETATM    7  C   UNL     1      -7.424   6.646  68.758  1.00  0.00    -0.096 A  
HETATM    8  C   UNL     1      -6.905   7.071  69.982  1.00  0.00    -0.057 A  
HETATM    9  C   UNL     1      -7.655   6.911  71.144  1.00  0.00    -0.087 A  
HETATM   10  C   UNL     1      -8.927   6.339  71.085  1.00  0.00    -0.146 A  
HETATM   11  C   UNL     1      -9.447   5.913  69.862  1.00  0.00    -0.150 A  
HETATM   12  O   UNL     1     -10.701   5.373  69.827  1.00  0.00    -0.315 OA 
HETATM   13  H   UNL     1     -11.208   5.277  70.625  1.00  0.00     0.000 HD 
ENDBRANCH   4   6
ENDBRANCH   3   4
ENDBRANCH   2   3
TORSDOF 3
ENDMDL
MODEL      289
REMARK 921   NORMALIZED FREE ENERGY PREDICTED BY IDOCK:   -1.29 KCAL/MOL
REMARK 922        TOTAL FREE ENERGY PREDICTED BY IDOCK:   -1.97 KCAL/MOL
REMARK 923 INTER-LIGAND FREE ENERGY PREDICTED BY IDOCK:   -2.25 KCAL/MOL
REMARK 924 INTRA-LIGAND FREE ENERGY PREDICTED BY IDOCK:    0.28 KCAL/MOL
REMARK 927      BINDING AFFINITY PREDICTED BY RF-SCORE:    0.00 PKD
ROOT
HETATM    1  C   UNL     1     -10.869  14.854  69.499  1.00  0.00    -0.272 C  
HETATM    2  C   UNL     1      -9.468  14.674  70.061  1.00  0.00     0.678 C  
ENDROOT
BRANCH   2   3
HETATM    3  O   UNL     1      -8.544  14.705  68.966  1.00  0.00    -0.164 OA 
BRANCH   3   4
HETATM    4  C   UNL     1      -8.592  15.833  68.207  1.00  0.00    -0.170 C  
HETATM    5  O   UNL     1      -7.985  16.866  68.435  1.00  0.00    -0.211 OA 
BRANCH   4   6
HETATM    6  C   UNL     1      -9.369  15.549  66.972  1.00  0.00    -0.239 A  
HETATM    7  C   UNL     1     -10.187  16.555  66.424  1.00  0.00    -0.324 A  
HETATM    8  C   UNL     1     -11.032  16.277  65.348  1.00  0.00    -0.204 A  
HETATM    9  C   UNL     1     -11.067  14.993  64.811  1.00  0.00    -0.388 A  
HETATM   10  C   UNL     1     -10.249  13.990  65.336  1.00  0.00    -0.368 A  
HETATM   11  C   UNL     1      -9.404  14.267  66.412  1.00  0.00    -0.245 A  
HETATM   12  O   UNL     1      -8.602  13.274  66.898  1.00  0.00    -0.341 OA 
HETATM   13  H   UNL     1      -8.627  12.404  66.517  1.00  0.00     0.000 HD 
ENDBRANCH   4   6
ENDBRANCH   3   4
ENDBRANCH   2   3
TORSDOF 3
ENDMDL
MODEL      290
REMARK 921   NORMALIZED FREE ENERGY PREDICTED BY IDOCK:   -1.22 KCAL/MOL
REMARK 922        TOTAL FREE ENERGY PREDICTED BY IDOCK:   -1.89 KCAL/MOL
REMARK 923 INTER-LIGAND FREE ENERGY PREDICTED BY IDOCK:   -1.74 KCAL/MOL
REMARK 924 INTRA-LIGAND FREE ENERGY PREDICTED BY IDOCK:   -0.16 KCAL/MOL
REMARK 927      BINDING AFFINITY PREDICTED BY RF-SCORE:    0.00 PKD
ROOT
HETATM    1  C   UNL     1      -7.536   7.435  65.327  1.00  0.00    -0.085 C  
HETATM    2  C   UNL     1      -8.284   6.905  66.540  1.00  0.00    -0.117 C  
ENDROOT
BRANCH   2   3
HETATM    3  O   UNL     1      -7.734   7.530  67.707  1.00  0.00    -0.110 OA 
BRANCH   3   4
HETATM    4  C   UNL     1      -8.650   7.912  68.638  1.00  0.00    -0.128 C  
HETATM    5  O   UNL     1      -9.011   7.243  69.592  1.00  0.00    -0.141 OA 
BRANCH   4   6
HETATM    6  C   UNL     1      -9.011   9.334  68.401  1.00  0.00    -0.129 A  
HETATM    7  C   UNL     1      -9.742   9.678  67.248  1.00  0.00    -0.213 A  
HETATM    8  C   UNL     1      -9.977  11.016  66.928  1.00  0.00    -0.231 A  
HETATM    9  C   UNL     1      -9.484  12.022  67.755  1.00  0.00    -0.190 A  
HETATM   10  C   UNL     1      -8.770  11.694  68.909  1.00  0.00     0.078 A  
HETATM   11  C   UNL     1      -8.534  10.356  69.230  1.00  0.00    -0.154 A  
HETATM   12  O   UNL     1      -7.847  10.060  70.373  1.00  0.00    -0.316 OA 
HETATM   13  H   UNL     1      -7.523  10.753  70.935  1.00  0.00     0.000 HD 
ENDBRANCH   4   6
ENDBRANCH   3   4
ENDBRANCH   2   3
TORSDOF 3
ENDMDL
MODEL      291
REMARK 921   NORMALIZED FREE ENERGY PREDICTED BY IDOCK:   -1.13 KCAL/MOL
REMARK 922        TOTAL FREE ENERGY PREDICTED BY IDOCK:   -1.78 KCAL/MOL
REMARK 923 INTER-LIGAND FREE ENERGY PREDICTED BY IDOCK:   -1.46 KCAL/MOL
REMARK 924 INTRA-LIGAND FREE ENERGY PREDICTED BY IDOCK:   -0.32 KCAL/MOL
REMARK 927      BINDING AFFINITY PREDICTED BY RF-SCORE:    0.00 PKD
ROOT
HETATM    1  C   UNL     1     -11.288   6.385  70.263  1.00  0.00    -0.468 C  
HETATM    2  C   UNL     1     -10.218   5.506  70.892  1.00  0.00    -0.227 C  
ENDROOT
BRANCH   2   3
HETATM    3  O   UNL     1      -9.285   6.358  71.569  1.00  0.00    -0.145 OA 
BRANCH   3   4
HETATM    4  C   UNL     1      -7.975   6.075  71.336  1.00  0.00    -0.113 C  
HETATM    5  O   UNL     1      -7.561   5.245  70.543  1.00  0.00    -0.068 OA 
BRANCH   4   6
HETATM    6  C   UNL     1      -7.133   7.050  72.076  1.00  0.00    -0.073 A  
HETATM    7  C   UNL     1      -7.011   6.936  73.474  1.00  0.00    -0.074 A  
HETATM    8  C   UNL     1      -6.342   7.914  74.211  1.00  0.00    -0.108 A  
HETATM    9  C   UNL     1      -5.790   9.014  73.560  1.00  0.00    -0.045 A  
HETATM   10  C   UNL     1      -5.893   9.132  72.172  1.00  0.00    -0.048 A  
HETATM   11  C   UNL     1      -6.562   8.154  71.434  1.00  0.00    -0.047 A  
HETATM   12  O   UNL     1      -6.634   8.283  70.076  1.00  0.00    -0.038 OA 
HETATM   13  H   UNL     1      -6.246   9.033  69.640  1.00  0.00     0.000 HD 
ENDBRANCH   4   6
ENDBRANCH   3   4
ENDBRANCH   2   3
TORSDOF 3
ENDMDL
MODEL      292
REMARK 921   NORMALIZED FREE ENERGY PREDICTED BY IDOCK:   -1.03 KCAL/MOL
REMARK 922        TOTAL FREE ENERGY PREDICTED BY IDOCK:   -1.66 KCAL/MOL
REMARK 923 INTER-LIGAND FREE ENERGY PREDICTED BY IDOCK:   -1.78 KCAL/MOL
REMARK 924 INTRA-LIGAND FREE ENERGY PREDICTED BY IDOCK:    0.11 KCAL/MOL
REMARK 927      BINDING AFFINITY PREDICTED BY RF-SCORE:    0.00 PKD
ROOT
HETATM    1  C   UNL     1      -7.213   8.997  69.397  1.00  0.00    -0.057 C  
HETATM    2  C   UNL     1      -6.884   8.378  68.048  1.00  0.00    -0.070 C  
ENDROOT
BRANCH   2   3
HETATM    3  O   UNL     1      -8.119   8.065  67.391  1.00  0.00    -0.119 OA 
BRANCH   3   4
HETATM    4  C   UNL     1      -9.150   7.756  68.224  1.00  0.00    -0.130 C  
HETATM    5  O   UNL     1     -10.023   8.527  68.586  1.00  0.00    -0.173 OA 
BRANCH   4   6
HETATM    6  C   UNL     1      -9.134   6.294  68.487  1.00  0.00    -0.125 A  
HETATM    7  C   UNL     1      -8.546   5.429  67.545  1.00  0.00    -0.108 A  
HETATM    8  C   UNL     1      -8.637   4.044  67.696  1.00  0.00    -0.110 A  
HETATM    9  C   UNL     1      -9.317   3.512  68.789  1.00  0.00    -0.233 A  
HETATM   10  C   UNL     1      -9.892   4.359  69.738  1.00  0.00    -0.284 A  
HETATM   11  C   UNL     1      -9.801   5.744  69.587  1.00  0.00    -0.176 A  
HETATM   12  O   UNL     1     -10.358   6.551  70.538  1.00  0.00    -0.194 OA 
HETATM   13  H   UNL     1     -10.811   6.178  71.285  1.00  0.00     0.000 HD 
ENDBRANCH   4   6
ENDBRANCH   3   4
ENDBRANCH   2   3
TORSDOF 3
ENDMDL
MODEL      293
REMARK 921   NORMALIZED FREE ENERGY PREDICTED BY IDOCK:   -0.87 KCAL/MOL
REMARK 922        TOTAL FREE ENERGY PREDICTED BY IDOCK:   -1.47 KCAL/MOL
REMARK 923 INTER-LIGAND FREE ENERGY PREDICTED BY IDOCK:   -1.01 KCAL/MOL
REMARK 924 INTRA-LIGAND FREE ENERGY PREDICTED BY IDOCK:   -0.46 KCAL/MOL
REMARK 927      BINDING AFFINITY PREDICTED BY RF-SCORE:    0.00 PKD
ROOT
HETATM    1  C   UNL     1      -7.474   7.404  65.313  1.00  0.00    -0.085 C  
HETATM    2  C   UNL     1      -8.038   6.834  66.605  1.00  0.00    -0.110 C  
ENDROOT
BRANCH   2   3
HETATM    3  O   UNL     1      -7.198   7.266  67.683  1.00  0.00    -0.085 OA 
BRANCH   3   4
HETATM    4  C   UNL     1      -7.845   7.909  68.693  1.00  0.00    -0.119 C  
HETATM    5  O   UNL     1      -8.705   7.421  69.407  1.00  0.00    -0.136 OA 
BRANCH   4   6
HETATM    6  C   UNL     1      -7.221   9.243  68.892  1.00  0.00    -0.073 A  
HETATM    7  C   UNL     1      -7.259  10.186  67.847  1.00  0.00    -0.086 A  
HETATM    8  C   UNL     1      -6.565  11.392  67.952  1.00  0.00    -0.059 A  
HETATM    9  C   UNL     1      -5.825  11.666  69.100  1.00  0.00    -0.060 A  
HETATM   10  C   UNL     1      -5.790  10.745  70.149  1.00  0.00    -0.093 A  
HETATM   11  C   UNL     1      -6.485   9.539  70.044  1.00  0.00    -0.061 A  
HETATM   12  O   UNL     1      -6.449   8.661  71.091  1.00  0.00    -0.043 OA 
HETATM   13  H   UNL     1      -5.950   8.862  71.873  1.00  0.00     0.000 HD 
ENDBRANCH   4   6
ENDBRANCH   3   4
ENDBRANCH   2   3
TORSDOF 3
ENDMDL
MODEL      294
REMARK 921   NORMALIZED FREE ENERGY PREDICTED BY IDOCK:   -0.87 KCAL/MOL
REMARK 922        TOTAL FREE ENERGY PREDICTED BY IDOCK:   -1.47 KCAL/MOL
REMARK 923 INTER-LIGAND FREE ENERGY PREDICTED BY IDOCK:   -1.32 KCAL/MOL
REMARK 924 INTRA-LIGAND FREE ENERGY PREDICTED BY IDOCK:   -0.15 KCAL/MOL
REMARK 927      BINDING AFFINITY PREDICTED BY RF-SCORE:    0.00 PKD
ROOT
HETATM    1  C   UNL     1      -7.060   7.629  65.822  1.00  0.00    -0.061 C  
HETATM    2  C   UNL     1      -6.635   6.428  66.652  1.00  0.00    -0.048 C  
ENDROOT
BRANCH   2   3
HETATM    3  O   UNL     1      -7.415   5.301  66.232  1.00  0.00    -0.084 OA 
BRANCH   3   4
HETATM    4  C   UNL     1      -7.123   4.834  64.988  1.00  0.00    -0.063 C  
HETATM    5  O   UNL     1      -6.062   4.984  64.406  1.00  0.00    -0.021 OA 
BRANCH   4   6
HETATM    6  C   UNL     1      -8.242   3.973  64.523  1.00  0.00    -0.094 A  
HETATM    7  C   UNL     1      -8.419   2.700  65.098  1.00  0.00    -0.098 A  
HETATM    8  C   UNL     1      -9.372   1.816  64.590  1.00  0.00    -0.117 A  
HETATM    9  C   UNL     1     -10.155   2.194  63.503  1.00  0.00    -0.136 A  
HETATM   10  C   UNL     1      -9.999   3.459  62.932  1.00  0.00    -0.123 A  
HETATM   11  C   UNL     1      -9.047   4.344  63.440  1.00  0.00    -0.133 A  
HETATM   12  O   UNL     1      -8.925   5.582  62.875  1.00  0.00    -0.345 OA 
HETATM   13  H   UNL     1      -9.471   5.834  62.140  1.00  0.00     0.000 HD 
ENDBRANCH   4   6
ENDBRANCH   3   4
ENDBRANCH   2   3
TORSDOF 3
ENDMDL
MODEL      295
REMARK 921   NORMALIZED FREE ENERGY PREDICTED BY IDOCK:   -0.82 KCAL/MOL
REMARK 922        TOTAL FREE ENERGY PREDICTED BY IDOCK:   -1.42 KCAL/MOL
REMARK 923 INTER-LIGAND FREE ENERGY PREDICTED BY IDOCK:   -1.68 KCAL/MOL
REMARK 924 INTRA-LIGAND FREE ENERGY PREDICTED BY IDOCK:    0.26 KCAL/MOL
REMARK 927      BINDING AFFINITY PREDICTED BY RF-SCORE:    0.00 PKD
ROOT
HETATM    1  C   UNL     1      -6.927  12.178  69.656  1.00  0.00     0.194 C  
HETATM    2  C   UNL     1      -6.560  10.903  68.912  1.00  0.00    -0.056 C  
ENDROOT
BRANCH   2   3
HETATM    3  O   UNL     1      -7.594   9.939  69.147  1.00  0.00    -0.078 OA 
BRANCH   3   4
HETATM    4  C   UNL     1      -7.629   9.432  70.410  1.00  0.00    -0.145 C  
HETATM    5  O   UNL     1      -6.775   9.601  71.264  1.00  0.00    -0.293 OA 
BRANCH   4   6
HETATM    6  C   UNL     1      -8.948   8.783  70.631  1.00  0.00    -0.219 A  
HETATM    7  C   UNL     1      -9.065   7.770  71.601  1.00  0.00    -0.163 A  
HETATM    8  C   UNL     1     -10.251   7.048  71.736  1.00  0.00    -0.209 A  
HETATM    9  C   UNL     1     -11.331   7.331  70.903  1.00  0.00    -0.308 A  
HETATM   10  C   UNL     1     -11.233   8.344  69.947  1.00  0.00    -0.029 A  
HETATM   11  C   UNL     1     -10.046   9.066  69.811  1.00  0.00    -0.200 A  
HETATM   12  O   UNL     1      -9.980  10.062  68.879  1.00  0.00    -0.175 OA 
HETATM   13  H   UNL     1     -10.726  10.254  68.323  1.00  0.00     0.000 HD 
ENDBRANCH   4   6
ENDBRANCH   3   4
ENDBRANCH   2   3
TORSDOF 3
ENDMDL
MODEL      296
REMARK 921   NORMALIZED FREE ENERGY PREDICTED BY IDOCK:   -0.78 KCAL/MOL
REMARK 922        TOTAL FREE ENERGY PREDICTED BY IDOCK:   -1.37 KCAL/MOL
REMARK 923 INTER-LIGAND FREE ENERGY PREDICTED BY IDOCK:   -1.18 KCAL/MOL
REMARK 924 INTRA-LIGAND FREE ENERGY PREDICTED BY IDOCK:   -0.20 KCAL/MOL
REMARK 927      BINDING AFFINITY PREDICTED BY RF-SCORE:    0.00 PKD
ROOT
HETATM    1  C   UNL     1      -6.713  11.143  69.804  1.00  0.00    -0.121 C  
HETATM    2  C   UNL     1      -6.482   9.738  69.271  1.00  0.00    -0.048 C  
ENDROOT
BRANCH   2   3
HETATM    3  O   UNL     1      -7.637   8.950  69.584  1.00  0.00    -0.068 OA 
BRANCH   3   4
HETATM    4  C   UNL     1      -7.563   8.264  70.756  1.00  0.00    -0.073 C  
HETATM    5  O   UNL     1      -7.609   8.758  71.870  1.00  0.00    -0.253 OA 
BRANCH   4   6
HETATM    6  C   UNL     1      -7.585   6.807  70.463  1.00  0.00    -0.091 A  
HETATM    7  C   UNL     1      -7.525   6.371  69.125  1.00  0.00    -0.095 A  
HETATM    8  C   UNL     1      -7.682   5.020  68.810  1.00  0.00    -0.078 A  
HETATM    9  C   UNL     1      -7.901   4.094  69.827  1.00  0.00    -0.052 A  
HETATM   10  C   UNL     1      -7.949   4.512  71.158  1.00  0.00    -0.082 A  
HETATM   11  C   UNL     1      -7.792   5.862  71.474  1.00  0.00    -0.112 A  
HETATM   12  O   UNL     1      -7.826   6.244  72.786  1.00  0.00    -0.104 OA 
HETATM   13  H   UNL     1      -7.966   5.603  73.472  1.00  0.00     0.000 HD 
ENDBRANCH   4   6
ENDBRANCH   3   4
ENDBRANCH   2   3
TORSDOF 3
ENDMDL
MODEL      297
REMARK 921   NORMALIZED FREE ENERGY PREDICTED BY IDOCK:   -0.66 KCAL/MOL
REMARK 922        TOTAL FREE ENERGY PREDICTED BY IDOCK:   -1.23 KCAL/MOL
REMARK 923 INTER-LIGAND FREE ENERGY PREDICTED BY IDOCK:   -1.04 KCAL/MOL
REMARK 924 INTRA-LIGAND FREE ENERGY PREDICTED BY IDOCK:   -0.19 KCAL/MOL
REMARK 927      BINDING AFFINITY PREDICTED BY RF-SCORE:    0.00 PKD
ROOT
HETATM    1  C   UNL     1      -8.765   8.815  63.224  1.00  0.00     0.011 C  
HETATM    2  C   UNL     1      -7.669   9.604  63.924  1.00  0.00    -0.131 C  
ENDROOT
BRANCH   2   3
HETATM    3  O   UNL     1      -7.564   9.119  65.269  1.00  0.00    -0.095 OA 
BRANCH   3   4
HETATM    4  C   UNL     1      -6.566   9.679  66.004  1.00  0.00    -0.079 C  
HETATM    5  O   UNL     1      -5.589  10.253  65.551  1.00  0.00    -0.067 OA 
BRANCH   4   6
HETATM    6  C   UNL     1      -6.940   9.627  67.442  1.00  0.00    -0.084 A  
HETATM    7  C   UNL     1      -5.955   9.326  68.401  1.00  0.00    -0.045 A  
HETATM    8  C   UNL     1      -6.301   9.134  69.739  1.00  0.00    -0.039 A  
HETATM    9  C   UNL     1      -7.633   9.240  70.131  1.00  0.00    -0.111 A  
HETATM   10  C   UNL     1      -8.618   9.552  69.191  1.00  0.00    -0.140 A  
HETATM   11  C   UNL     1      -8.272   9.744  67.853  1.00  0.00    -0.113 A  
HETATM   12  O   UNL     1      -9.251  10.064  66.955  1.00  0.00    -0.144 OA 
HETATM   13  H   UNL     1     -10.155  10.144  67.235  1.00  0.00     0.000 HD 
ENDBRANCH   4   6
ENDBRANCH   3   4
ENDBRANCH   2   3
TORSDOF 3
ENDMDL
MODEL      298
REMARK 921   NORMALIZED FREE ENERGY PREDICTED BY IDOCK:   -0.62 KCAL/MOL
REMARK 922        TOTAL FREE ENERGY PREDICTED BY IDOCK:   -1.18 KCAL/MOL
REMARK 923 INTER-LIGAND FREE ENERGY PREDICTED BY IDOCK:   -0.80 KCAL/MOL
REMARK 924 INTRA-LIGAND FREE ENERGY PREDICTED BY IDOCK:   -0.38 KCAL/MOL
REMARK 927      BINDING AFFINITY PREDICTED BY RF-SCORE:    0.00 PKD
ROOT
HETATM    1  C   UNL     1      -8.457  10.420  69.172  1.00  0.00    -0.168 C  
HETATM    2  C   UNL     1      -7.605   9.257  68.688  1.00  0.00    -0.081 C  
ENDROOT
BRANCH   2   3
HETATM    3  O   UNL     1      -8.043   8.073  69.366  1.00  0.00    -0.114 OA 
BRANCH   3   4
HETATM    4  C   UNL     1      -7.350   6.945  69.055  1.00  0.00    -0.093 C  
HETATM    5  O   UNL     1      -7.040   6.592  67.930  1.00  0.00    -0.080 OA 
BRANCH   4   6
HETATM    6  C   UNL     1      -6.890   6.301  70.314  1.00  0.00    -0.054 A  
HETATM    7  C   UNL     1      -6.260   7.084  71.300  1.00  0.00    -0.037 A  
HETATM    8  C   UNL     1      -5.695   6.488  72.428  1.00  0.00    -0.038 A  
HETATM    9  C   UNL     1      -5.753   5.105  72.581  1.00  0.00    -0.017 A  
HETATM   10  C   UNL     1      -6.388   4.318  71.617  1.00  0.00    -0.018 A  
HETATM   11  C   UNL     1      -6.953   4.914  70.488  1.00  0.00    -0.044 A  
HETATM   12  O   UNL     1      -7.582   4.125  69.568  1.00  0.00    -0.053 OA 
HETATM   13  H   UNL     1      -7.625   3.184  69.687  1.00  0.00     0.000 HD 
ENDBRANCH   4   6
ENDBRANCH   3   4
ENDBRANCH   2   3
TORSDOF 3
ENDMDL
MODEL      299
REMARK 921   NORMALIZED FREE ENERGY PREDICTED BY IDOCK:   -0.42 KCAL/MOL
REMARK 922        TOTAL FREE ENERGY PREDICTED BY IDOCK:   -0.94 KCAL/MOL
REMARK 923 INTER-LIGAND FREE ENERGY PREDICTED BY IDOCK:   -1.66 KCAL/MOL
REMARK 924 INTRA-LIGAND FREE ENERGY PREDICTED BY IDOCK:    0.72 KCAL/MOL
REMARK 927      BINDING AFFINITY PREDICTED BY RF-SCORE:    0.00 PKD
ROOT
HETATM    1  C   UNL     1      -6.835   8.023  74.449  1.00  0.00    -0.154 C  
HETATM    2  C   UNL     1      -5.730   8.280  73.437  1.00  0.00    -0.070 C  
ENDROOT
BRANCH   2   3
HETATM    3  O   UNL     1      -5.987   7.469  72.284  1.00  0.00    -0.040 OA 
BRANCH   3   4
HETATM    4  C   UNL     1      -7.217   6.889  72.254  1.00  0.00    -0.078 C  
HETATM    5  O   UNL     1      -7.557   5.916  72.906  1.00  0.00    -0.097 OA 
BRANCH   4   6
HETATM    6  C   UNL     1      -8.124   7.728  71.429  1.00  0.00    -0.103 A  
HETATM    7  C   UNL     1      -7.649   8.942  70.896  1.00  0.00    -0.122 A  
HETATM    8  C   UNL     1      -8.513   9.816  70.236  1.00  0.00    -0.163 A  
HETATM    9  C   UNL     1      -9.860   9.487  70.102  1.00  0.00    -0.288 A  
HETATM   10  C   UNL     1     -10.341   8.280  70.614  1.00  0.00    -0.220 A  
HETATM   11  C   UNL     1      -9.477   7.405  71.274  1.00  0.00    -0.154 A  
HETATM   12  O   UNL     1      -9.968   6.223  71.751  1.00  0.00    -0.171 OA 
HETATM   13  H   UNL     1     -10.886   6.004  71.646  1.00  0.00     0.000 HD 
ENDBRANCH   4   6
ENDBRANCH   3   4
ENDBRANCH   2   3
TORSDOF 3
ENDMDL
MODEL      300
REMARK 921   NORMALIZED FREE ENERGY PREDICTED BY IDOCK:   -0.42 KCAL/MOL
REMARK 922        TOTAL FREE ENERGY PREDICTED BY IDOCK:   -0.94 KCAL/MOL
REMARK 923 INTER-LIGAND FREE ENERGY PREDICTED BY IDOCK:   -0.52 KCAL/MOL
REMARK 924 INTRA-LIGAND FREE ENERGY PREDICTED BY IDOCK:   -0.42 KCAL/MOL
REMARK 927      BINDING AFFINITY PREDICTED BY RF-SCORE:    0.00 PKD
ROOT
HETATM    1  C   UNL     1      -9.140   8.562  63.286  1.00  0.00     0.814 C  
HETATM    2  C   UNL     1      -7.899   9.187  63.905  1.00  0.00    -0.129 C  
ENDROOT
BRANCH   2   3
HETATM    3  O   UNL     1      -7.644   8.524  65.151  1.00  0.00    -0.087 OA 
BRANCH   3   4
HETATM    4  C   UNL     1      -6.476   8.871  65.756  1.00  0.00    -0.060 C  
HETATM    5  O   UNL     1      -5.359   8.609  65.342  1.00  0.00    -0.034 OA 
BRANCH   4   6
HETATM    6  C   UNL     1      -6.778   9.761  66.908  1.00  0.00    -0.075 A  
HETATM    7  C   UNL     1      -7.475   9.243  68.017  1.00  0.00    -0.083 A  
HETATM    8  C   UNL     1      -7.892  10.083  69.050  1.00  0.00    -0.101 A  
HETATM    9  C   UNL     1      -7.618  11.447  68.985  1.00  0.00    -0.084 A  
HETATM   10  C   UNL     1      -6.916  11.971  67.898  1.00  0.00    -0.095 A  
HETATM   11  C   UNL     1      -6.498  11.131  66.864  1.00  0.00    -0.117 A  
HETATM   12  O   UNL     1      -5.797  11.664  65.819  1.00  0.00    -0.473 OA 
HETATM   13  H   UNL     1      -5.607  12.594  65.790  1.00  0.00     0.000 HD 
ENDBRANCH   4   6
ENDBRANCH   3   4
ENDBRANCH   2   3
TORSDOF 3
ENDMDL
MODEL      301
REMARK 921   NORMALIZED FREE ENERGY PREDICTED BY IDOCK:   -0.38 KCAL/MOL
REMARK 922        TOTAL FREE ENERGY PREDICTED BY IDOCK:   -0.90 KCAL/MOL
REMARK 923 INTER-LIGAND FREE ENERGY PREDICTED BY IDOCK:   -0.57 KCAL/MOL
REMARK 924 INTRA-LIGAND FREE ENERGY PREDICTED BY IDOCK:   -0.33 KCAL/MOL
REMARK 927      BINDING AFFINITY PREDICTED BY RF-SCORE:    0.00 PKD
ROOT
HETATM    1  C   UNL     1      -8.112   7.061  73.744  1.00  0.00    -0.138 C  
HETATM    2  C   UNL     1      -7.286   6.548  72.574  1.00  0.00    -0.089 C  
ENDROOT
BRANCH   2   3
HETATM    3  O   UNL     1      -7.619   5.169  72.368  1.00  0.00    -0.092 OA 
BRANCH   3   4
HETATM    4  C   UNL     1      -6.552   4.334  72.245  1.00  0.00    -0.022 C  
HETATM    5  O   UNL     1      -5.725   4.110  73.113  1.00  0.00    -0.006 OA 
BRANCH   4   6
HETATM    6  C   UNL     1      -6.651   3.615  70.948  1.00  0.00    -0.031 A  
HETATM    7  C   UNL     1      -7.495   4.121  69.941  1.00  0.00    -0.049 A  
HETATM    8  C   UNL     1      -7.715   3.398  68.768  1.00  0.00    -0.051 A  
HETATM    9  C   UNL     1      -7.096   2.163  68.591  1.00  0.00    -0.043 A  
HETATM   10  C   UNL     1      -6.247   1.656  69.577  1.00  0.00    -0.025 A  
HETATM   11  C   UNL     1      -6.026   2.379  70.750  1.00  0.00    -0.018 A  
HETATM   12  O   UNL     1      -5.177   1.870  71.692  1.00  0.00    -0.003 OA 
HETATM   13  H   UNL     1      -4.753   1.032  71.557  1.00  0.00     0.000 HD 
ENDBRANCH   4   6
ENDBRANCH   3   4
ENDBRANCH   2   3
TORSDOF 3
ENDMDL
MODEL      302
REMARK 921   NORMALIZED FREE ENERGY PREDICTED BY IDOCK:    3.31 KCAL/MOL
REMARK 922        TOTAL FREE ENERGY PREDICTED BY IDOCK:    3.44 KCAL/MOL
REMARK 923 INTER-LIGAND FREE ENERGY PREDICTED BY IDOCK:    2.60 KCAL/MOL
REMARK 924 INTRA-LIGAND FREE ENERGY PREDICTED BY IDOCK:    0.84 KCAL/MOL
REMARK 927      BINDING AFFINITY PREDICTED BY RF-SCORE:    0.00 PKD
ROOT
HETATM    1  C   UNL     1      -6.935   9.963  74.413  1.00  0.00     1.523 C  
HETATM    2  C   UNL     1      -5.915  11.091  74.373  1.00  0.00     1.465 C  
ENDROOT
BRANCH   2   3
HETATM    3  O   UNL     1      -5.130  10.935  73.184  1.00  0.00    -0.327 OA 
BRANCH   3   4
HETATM    4  C   UNL     1      -5.726  10.217  72.193  1.00  0.00     0.452 C  
HETATM    5  O   UNL     1      -6.160   9.083  72.305  1.00  0.00    -0.136 OA 
BRANCH   4   6
HETATM    6  C   UNL     1      -5.910  11.094  71.008  1.00  0.00     0.093 A  
HETATM    7  C   UNL     1      -5.651  12.473  71.122  1.00  0.00    -0.015 A  
HETATM    8  C   UNL     1      -5.946  13.342  70.070  1.00  0.00    -0.134 A  
HETATM    9  C   UNL     1      -6.503  12.841  68.896  1.00  0.00    -0.091 A  
HETATM   10  C   UNL     1      -6.752  11.473  68.765  1.00  0.00    -0.079 A  
HETATM   11  C   UNL     1      -6.457  10.604  69.817  1.00  0.00    -0.110 A  
HETATM   12  O   UNL     1      -6.694   9.268  69.658  1.00  0.00    -0.044 OA 
HETATM   13  H   UNL     1      -7.065   8.936  68.850  1.00  0.00     0.000 HD 
ENDBRANCH   4   6
ENDBRANCH   3   4
ENDBRANCH   2   3
TORSDOF 3
ENDMDL
