MODEL        1
REMARK 921   NORMALIZED FREE ENERGY PREDICTED BY IDOCK:   -5.72 KCAL/MOL
REMARK 922        TOTAL FREE ENERGY PREDICTED BY IDOCK:   -7.76 KCAL/MOL
REMARK 923 INTER-LIGAND FREE ENERGY PREDICTED BY IDOCK:   -7.39 KCAL/MOL
REMARK 924 INTRA-LIGAND FREE ENERGY PREDICTED BY IDOCK:   -0.37 KCAL/MOL
REMARK 927      BINDING AFFINITY PREDICTED BY RF-SCORE:    0.00 PKD
ROOT
HETATM    1  C   UNL     1     -11.968  12.804  68.938  1.00  0.00    -0.286 C  
HETATM    2  C   UNL     1     -11.634  12.513  67.671  1.00  0.00    -0.416 C  
ENDROOT
BRANCH   1   3
HETATM    3  C   UNL     1     -11.892  11.827  70.044  1.00  0.00    -0.342 C  
HETATM    4  O   UNL     1     -11.278  10.777  69.936  1.00  0.00    -0.269 OA 
BRANCH   3   5
HETATM    5  O   UNL     1     -12.668  12.204  71.088  1.00  0.00    -0.358 OA 
BRANCH   5   6
HETATM    6  C   UNL     1     -12.718  13.613  71.341  1.00  0.00    -0.352 C  
HETATM    7  C   UNL     1     -13.860  13.876  72.307  1.00  0.00    -0.669 C  
ENDBRANCH   5   6
ENDBRANCH   3   5
ENDBRANCH   1   3
BRANCH   2   8
HETATM    8  C   UNL     1     -11.554  13.493  66.580  1.00  0.00    -0.396 A  
HETATM    9  O   UNL     1     -11.540  16.505  63.723  1.00  0.00    -1.617 OA 
HETATM   10  C   UNL     1     -10.743  14.626  66.762  1.00  0.00    -0.301 A  
HETATM   11  C   UNL     1     -10.723  15.645  65.808  1.00  0.00    -0.341 A  
HETATM   12  C   UNL     1     -12.346  13.391  65.426  1.00  0.00    -0.522 A  
HETATM   13  C   UNL     1     -11.519  15.514  64.666  1.00  0.00    -0.324 A  
HETATM   14  H   UNL     1     -12.081  16.417  62.947  1.00  0.00     0.000 HD 
HETATM   15  C   UNL     1     -12.322  14.400  64.464  1.00  0.00    -0.440 A  
BRANCH  11  16
HETATM   16  O   UNL     1      -9.995  16.804  65.882  1.00  0.00    -0.426 OA 
HETATM   17  C   UNL     1     -10.175  17.593  67.053  1.00  0.00    -0.332 C  
ENDBRANCH  11  16
ENDBRANCH   2   8
TORSDOF 5
ENDMDL
MODEL        2
REMARK 921   NORMALIZED FREE ENERGY PREDICTED BY IDOCK:   -5.59 KCAL/MOL
REMARK 922        TOTAL FREE ENERGY PREDICTED BY IDOCK:   -7.59 KCAL/MOL
REMARK 923 INTER-LIGAND FREE ENERGY PREDICTED BY IDOCK:   -7.15 KCAL/MOL
REMARK 924 INTRA-LIGAND FREE ENERGY PREDICTED BY IDOCK:   -0.44 KCAL/MOL
REMARK 927      BINDING AFFINITY PREDICTED BY RF-SCORE:    0.00 PKD
ROOT
HETATM    1  C   UNL     1     -11.775  11.880  68.522  1.00  0.00    -0.388 C  
HETATM    2  C   UNL     1     -11.545  13.202  68.547  1.00  0.00    -0.361 C  
ENDROOT
BRANCH   1   3
HETATM    3  C   UNL     1     -11.918  11.056  69.740  1.00  0.00    -0.356 C  
HETATM    4  O   UNL     1     -11.074  10.236  70.067  1.00  0.00    -0.267 OA 
BRANCH   3   5
HETATM    5  O   UNL     1     -13.120  11.257  70.333  1.00  0.00    -0.016 OA 
BRANCH   5   6
HETATM    6  C   UNL     1     -13.076  11.507  71.743  1.00  0.00    -0.398 C  
HETATM    7  C   UNL     1     -13.458  12.959  71.973  1.00  0.00    -0.568 C  
ENDBRANCH   5   6
ENDBRANCH   3   5
ENDBRANCH   1   3
BRANCH   2   8
HETATM    8  C   UNL     1     -11.545  14.074  67.366  1.00  0.00    -0.397 A  
HETATM    9  O   UNL     1     -11.289  16.293  63.866  1.00  0.00    -1.415 OA 
HETATM   10  C   UNL     1     -12.170  13.610  66.196  1.00  0.00    -0.490 A  
HETATM   11  C   UNL     1     -12.098  14.347  65.013  1.00  0.00    -0.415 A  
HETATM   12  C   UNL     1     -10.847  15.292  67.337  1.00  0.00    -0.304 A  
HETATM   13  C   UNL     1     -11.398  15.558  65.015  1.00  0.00    -0.299 A  
HETATM   14  H   UNL     1     -10.814  17.115  63.867  1.00  0.00     0.000 HD 
HETATM   15  C   UNL     1     -10.780  16.038  66.161  1.00  0.00    -0.246 A  
BRANCH  11  16
HETATM   16  O   UNL     1     -12.642  13.990  63.806  1.00  0.00    -0.772 OA 
HETATM   17  C   UNL     1     -12.332  12.685  63.331  1.00  0.00    -0.456 C  
ENDBRANCH  11  16
ENDBRANCH   2   8
TORSDOF 5
ENDMDL
MODEL        3
REMARK 921   NORMALIZED FREE ENERGY PREDICTED BY IDOCK:   -5.51 KCAL/MOL
REMARK 922        TOTAL FREE ENERGY PREDICTED BY IDOCK:   -7.49 KCAL/MOL
REMARK 923 INTER-LIGAND FREE ENERGY PREDICTED BY IDOCK:   -7.11 KCAL/MOL
REMARK 924 INTRA-LIGAND FREE ENERGY PREDICTED BY IDOCK:   -0.39 KCAL/MOL
REMARK 927      BINDING AFFINITY PREDICTED BY RF-SCORE:    0.00 PKD
ROOT
HETATM    1  C   UNL     1     -12.939  14.371  70.740  1.00  0.00    -0.388 C  
HETATM    2  C   UNL     1     -12.220  13.907  69.707  1.00  0.00    -0.388 C  
ENDROOT
BRANCH   1   3
HETATM    3  C   UNL     1     -13.318  13.543  71.904  1.00  0.00    -0.443 C  
HETATM    4  O   UNL     1     -13.251  12.324  71.878  1.00  0.00    -0.473 OA 
BRANCH   3   5
HETATM    5  O   UNL     1     -13.836  14.300  72.901  1.00  0.00    -0.615 OA 
BRANCH   5   6
HETATM    6  C   UNL     1     -13.279  15.614  73.029  1.00  0.00    -0.562 C  
HETATM    7  C   UNL     1     -12.397  15.630  74.264  1.00  0.00    -0.813 C  
ENDBRANCH   5   6
ENDBRANCH   3   5
ENDBRANCH   1   3
BRANCH   2   8
HETATM    8  C   UNL     1     -11.700  14.736  68.611  1.00  0.00    -0.356 A  
HETATM    9  O   UNL     1      -9.912  16.848  65.516  1.00  0.00    -0.572 OA 
HETATM   10  C   UNL     1     -11.645  14.177  67.323  1.00  0.00    -0.399 A  
HETATM   11  C   UNL     1     -11.053  14.877  66.271  1.00  0.00    -0.340 A  
HETATM   12  C   UNL     1     -11.154  16.009  68.833  1.00  0.00    -0.331 A  
HETATM   13  C   UNL     1     -10.520  16.146  66.520  1.00  0.00    -0.297 A  
HETATM   14  H   UNL     1      -9.550  17.709  65.685  1.00  0.00     0.000 HD 
HETATM   15  C   UNL     1     -10.570  16.718  67.784  1.00  0.00    -0.341 A  
BRANCH  11  16
HETATM   16  O   UNL     1     -10.918  14.431  64.981  1.00  0.00    -0.345 OA 
HETATM   17  C   UNL     1     -12.123  14.187  64.264  1.00  0.00    -0.444 C  
ENDBRANCH  11  16
ENDBRANCH   2   8
TORSDOF 5
ENDMDL
MODEL        4
REMARK 921   NORMALIZED FREE ENERGY PREDICTED BY IDOCK:   -5.47 KCAL/MOL
REMARK 922        TOTAL FREE ENERGY PREDICTED BY IDOCK:   -7.43 KCAL/MOL
REMARK 923 INTER-LIGAND FREE ENERGY PREDICTED BY IDOCK:   -7.16 KCAL/MOL
REMARK 924 INTRA-LIGAND FREE ENERGY PREDICTED BY IDOCK:   -0.27 KCAL/MOL
REMARK 927      BINDING AFFINITY PREDICTED BY RF-SCORE:    0.00 PKD
ROOT
HETATM    1  C   UNL     1     -12.312  14.197  69.762  1.00  0.00    -0.350 C  
HETATM    2  C   UNL     1     -11.471  13.959  68.744  1.00  0.00    -0.327 C  
ENDROOT
BRANCH   1   3
HETATM    3  C   UNL     1     -12.203  13.534  71.078  1.00  0.00    -0.262 C  
HETATM    4  O   UNL     1     -12.412  12.339  71.218  1.00  0.00    -0.302 OA 
BRANCH   3   5
HETATM    5  O   UNL     1     -11.967  14.432  72.064  1.00  0.00    -0.223 OA 
BRANCH   5   6
HETATM    6  C   UNL     1     -13.027  14.596  73.014  1.00  0.00    -0.510 C  
HETATM    7  C   UNL     1     -12.526  15.505  74.123  1.00  0.00    -0.805 C  
ENDBRANCH   5   6
ENDBRANCH   3   5
ENDBRANCH   1   3
BRANCH   2   8
HETATM    8  C   UNL     1     -11.457  14.704  67.478  1.00  0.00    -0.378 A  
HETATM    9  O   UNL     1     -11.185  16.531  63.760  1.00  0.00    -1.389 OA 
HETATM   10  C   UNL     1     -12.157  14.170  66.383  1.00  0.00    -0.475 A  
HETATM   11  C   UNL     1     -12.080  14.776  65.128  1.00  0.00    -0.240 A  
HETATM   12  C   UNL     1     -10.679  15.859  67.301  1.00  0.00    -0.306 A  
HETATM   13  C   UNL     1     -11.300  15.927  64.982  1.00  0.00    -0.193 A  
HETATM   14  H   UNL     1     -10.654  17.312  63.660  1.00  0.00     0.000 HD 
HETATM   15  C   UNL     1     -10.606  16.475  66.052  1.00  0.00    -0.259 A  
BRANCH  11  16
HETATM   16  O   UNL     1     -12.695  14.338  63.983  1.00  0.00    -0.697 OA 
HETATM   17  C   UNL     1     -12.171  13.152  63.395  1.00  0.00    -0.444 C  
ENDBRANCH  11  16
ENDBRANCH   2   8
TORSDOF 5
ENDMDL
MODEL        5
REMARK 921   NORMALIZED FREE ENERGY PREDICTED BY IDOCK:   -5.46 KCAL/MOL
REMARK 922        TOTAL FREE ENERGY PREDICTED BY IDOCK:   -7.42 KCAL/MOL
REMARK 923 INTER-LIGAND FREE ENERGY PREDICTED BY IDOCK:   -7.10 KCAL/MOL
REMARK 924 INTRA-LIGAND FREE ENERGY PREDICTED BY IDOCK:   -0.32 KCAL/MOL
REMARK 927      BINDING AFFINITY PREDICTED BY RF-SCORE:    0.00 PKD
ROOT
HETATM    1  C   UNL     1     -11.395  11.543  68.021  1.00  0.00    -0.368 C  
HETATM    2  C   UNL     1     -11.385  12.884  68.047  1.00  0.00    -0.333 C  
ENDROOT
BRANCH   1   3
HETATM    3  C   UNL     1     -11.529  10.708  69.233  1.00  0.00    -0.281 C  
HETATM    4  O   UNL     1     -10.670   9.904  69.561  1.00  0.00    -0.216 OA 
BRANCH   3   5
HETATM    5  O   UNL     1     -12.739  10.878  69.817  1.00  0.00    -0.205 OA 
BRANCH   5   6
HETATM    6  C   UNL     1     -12.719  11.033  71.242  1.00  0.00    -0.432 C  
HETATM    7  C   UNL     1     -13.361   9.802  71.856  1.00  0.00    -0.530 C  
ENDBRANCH   5   6
ENDBRANCH   3   5
ENDBRANCH   1   3
BRANCH   2   8
HETATM    8  C   UNL     1     -11.403  13.744  66.856  1.00  0.00    -0.345 A  
HETATM    9  O   UNL     1     -11.644  16.440  63.707  1.00  0.00    -1.605 OA 
HETATM   10  C   UNL     1     -10.572  14.877  66.840  1.00  0.00    -0.300 A  
HETATM   11  C   UNL     1     -10.637  15.790  65.786  1.00  0.00    -0.355 A  
HETATM   12  C   UNL     1     -12.301  13.534  65.798  1.00  0.00    -0.516 A  
HETATM   13  C   UNL     1     -11.539  15.553  64.743  1.00  0.00    -0.256 A  
HETATM   14  H   UNL     1     -12.256  16.279  63.000  1.00  0.00     0.000 HD 
HETATM   15  C   UNL     1     -12.363  14.436  64.737  1.00  0.00    -0.427 A  
BRANCH  11  16
HETATM   16  O   UNL     1      -9.899  16.940  65.668  1.00  0.00    -0.549 OA 
HETATM   17  C   UNL     1     -10.279  18.026  66.507  1.00  0.00    -0.382 C  
ENDBRANCH  11  16
ENDBRANCH   2   8
TORSDOF 5
ENDMDL
MODEL        6
REMARK 921   NORMALIZED FREE ENERGY PREDICTED BY IDOCK:   -5.40 KCAL/MOL
REMARK 922        TOTAL FREE ENERGY PREDICTED BY IDOCK:   -7.34 KCAL/MOL
REMARK 923 INTER-LIGAND FREE ENERGY PREDICTED BY IDOCK:   -7.03 KCAL/MOL
REMARK 924 INTRA-LIGAND FREE ENERGY PREDICTED BY IDOCK:   -0.31 KCAL/MOL
REMARK 927      BINDING AFFINITY PREDICTED BY RF-SCORE:    0.00 PKD
ROOT
HETATM    1  C   UNL     1     -11.689  11.936  68.434  1.00  0.00    -0.387 C  
HETATM    2  C   UNL     1     -11.519  13.261  68.309  1.00  0.00    -0.351 C  
ENDROOT
BRANCH   1   3
HETATM    3  C   UNL     1     -11.899  11.262  69.732  1.00  0.00    -0.364 C  
HETATM    4  O   UNL     1     -12.364  11.850  70.696  1.00  0.00    -0.356 OA 
BRANCH   3   5
HETATM    5  O   UNL     1     -11.410   9.999  69.716  1.00  0.00    -0.246 OA 
BRANCH   5   6
HETATM    6  C   UNL     1     -11.457   9.304  70.969  1.00  0.00    -0.319 C  
HETATM    7  C   UNL     1     -10.028   9.060  71.422  1.00  0.00    -0.388 C  
ENDBRANCH   5   6
ENDBRANCH   3   5
ENDBRANCH   1   3
BRANCH   2   8
HETATM    8  C   UNL     1     -11.457  13.980  67.029  1.00  0.00    -0.370 A  
HETATM    9  O   UNL     1     -11.483  16.301  63.588  1.00  0.00    -1.361 OA 
HETATM   10  C   UNL     1     -10.616  15.102  66.936  1.00  0.00    -0.297 A  
HETATM   11  C   UNL     1     -10.609  15.889  65.783  1.00  0.00    -0.355 A  
HETATM   12  C   UNL     1     -12.292  13.653  65.950  1.00  0.00    -0.516 A  
HETATM   13  C   UNL     1     -11.449  15.537  64.722  1.00  0.00    -0.313 A  
HETATM   14  H   UNL     1     -12.054  16.063  62.867  1.00  0.00     0.000 HD 
HETATM   15  C   UNL     1     -12.282  14.429  64.791  1.00  0.00    -0.458 A  
BRANCH  11  16
HETATM   16  O   UNL     1      -9.855  17.016  65.581  1.00  0.00    -0.547 OA 
HETATM   17  C   UNL     1     -10.200  18.158  66.358  1.00  0.00    -0.399 C  
ENDBRANCH  11  16
ENDBRANCH   2   8
TORSDOF 5
ENDMDL
MODEL        7
REMARK 921   NORMALIZED FREE ENERGY PREDICTED BY IDOCK:   -5.34 KCAL/MOL
REMARK 922        TOTAL FREE ENERGY PREDICTED BY IDOCK:   -7.27 KCAL/MOL
REMARK 923 INTER-LIGAND FREE ENERGY PREDICTED BY IDOCK:   -6.86 KCAL/MOL
REMARK 924 INTRA-LIGAND FREE ENERGY PREDICTED BY IDOCK:   -0.41 KCAL/MOL
REMARK 927      BINDING AFFINITY PREDICTED BY RF-SCORE:    0.00 PKD
ROOT
HETATM    1  C   UNL     1     -12.837  14.453  70.845  1.00  0.00    -0.419 C  
HETATM    2  C   UNL     1     -12.146  13.859  69.861  1.00  0.00    -0.406 C  
ENDROOT
BRANCH   1   3
HETATM    3  C   UNL     1     -13.301  13.743  72.056  1.00  0.00    -0.447 C  
HETATM    4  O   UNL     1     -13.242  12.527  72.153  1.00  0.00    -0.483 OA 
BRANCH   3   5
HETATM    5  O   UNL     1     -13.879  14.595  72.936  1.00  0.00    -0.534 OA 
BRANCH   5   6
HETATM    6  C   UNL     1     -13.133  15.785  73.222  1.00  0.00    -0.584 C  
HETATM    7  C   UNL     1     -12.373  15.561  74.518  1.00  0.00    -0.756 C  
ENDBRANCH   5   6
ENDBRANCH   3   5
ENDBRANCH   1   3
BRANCH   2   8
HETATM    8  C   UNL     1     -11.542  14.562  68.721  1.00  0.00    -0.343 A  
HETATM    9  O   UNL     1     -10.183  16.729  65.451  1.00  0.00    -0.599 OA 
HETATM   10  C   UNL     1     -11.252  15.930  68.860  1.00  0.00    -0.343 A  
HETATM   11  C   UNL     1     -10.788  16.670  67.771  1.00  0.00    -0.292 A  
HETATM   12  C   UNL     1     -11.361  13.943  67.474  1.00  0.00    -0.342 A  
HETATM   13  C   UNL     1     -10.613  16.026  66.543  1.00  0.00    -0.284 A  
HETATM   14  H   UNL     1     -10.064  16.292  64.616  1.00  0.00     0.000 HD 
HETATM   15  C   UNL     1     -10.888  14.675  66.386  1.00  0.00    -0.315 A  
BRANCH  11  16
HETATM   16  O   UNL     1     -10.493  18.010  67.775  1.00  0.00    -0.380 OA 
HETATM   17  C   UNL     1      -9.321  18.399  68.482  1.00  0.00    -0.335 C  
ENDBRANCH  11  16
ENDBRANCH   2   8
TORSDOF 5
ENDMDL
MODEL        8
REMARK 921   NORMALIZED FREE ENERGY PREDICTED BY IDOCK:   -5.28 KCAL/MOL
REMARK 922        TOTAL FREE ENERGY PREDICTED BY IDOCK:   -7.20 KCAL/MOL
REMARK 923 INTER-LIGAND FREE ENERGY PREDICTED BY IDOCK:   -6.92 KCAL/MOL
REMARK 924 INTRA-LIGAND FREE ENERGY PREDICTED BY IDOCK:   -0.28 KCAL/MOL
REMARK 927      BINDING AFFINITY PREDICTED BY RF-SCORE:    0.00 PKD
ROOT
HETATM    1  C   UNL     1     -11.863  12.125  68.666  1.00  0.00    -0.358 C  
HETATM    2  C   UNL     1     -11.320  13.347  68.551  1.00  0.00    -0.324 C  
ENDROOT
BRANCH   1   3
HETATM    3  C   UNL     1     -11.883  11.360  69.930  1.00  0.00    -0.359 C  
HETATM    4  O   UNL     1     -12.471  11.767  70.921  1.00  0.00    -0.372 OA 
BRANCH   3   5
HETATM    5  O   UNL     1     -11.094  10.262  69.855  1.00  0.00    -0.261 OA 
BRANCH   5   6
HETATM    6  C   UNL     1     -10.851   9.591  71.098  1.00  0.00    -0.355 C  
HETATM    7  C   UNL     1      -9.464   8.977  71.036  1.00  0.00    -0.342 C  
ENDBRANCH   5   6
ENDBRANCH   3   5
ENDBRANCH   1   3
BRANCH   2   8
HETATM    8  C   UNL     1     -11.413  14.195  67.355  1.00  0.00    -0.369 A  
HETATM    9  O   UNL     1     -11.383  16.378  63.824  1.00  0.00    -1.487 OA 
HETATM   10  C   UNL     1     -11.944  13.633  66.181  1.00  0.00    -0.453 A  
HETATM   11  C   UNL     1     -11.946  14.357  64.988  1.00  0.00    -0.412 A  
HETATM   12  C   UNL     1     -10.885  15.494  67.319  1.00  0.00    -0.313 A  
HETATM   13  C   UNL     1     -11.417  15.651  64.982  1.00  0.00    -0.175 A  
HETATM   14  H   UNL     1     -11.023  17.257  63.820  1.00  0.00     0.000 HD 
HETATM   15  C   UNL     1     -10.894  16.226  66.132  1.00  0.00    -0.105 A  
BRANCH  11  16
HETATM   16  O   UNL     1     -12.412  13.913  63.776  1.00  0.00    -0.706 OA 
HETATM   17  C   UNL     1     -12.288  12.518  63.522  1.00  0.00    -0.525 C  
ENDBRANCH  11  16
ENDBRANCH   2   8
TORSDOF 5
ENDMDL
MODEL        9
REMARK 921   NORMALIZED FREE ENERGY PREDICTED BY IDOCK:   -5.28 KCAL/MOL
REMARK 922        TOTAL FREE ENERGY PREDICTED BY IDOCK:   -7.19 KCAL/MOL
REMARK 923 INTER-LIGAND FREE ENERGY PREDICTED BY IDOCK:   -6.87 KCAL/MOL
REMARK 924 INTRA-LIGAND FREE ENERGY PREDICTED BY IDOCK:   -0.32 KCAL/MOL
REMARK 927      BINDING AFFINITY PREDICTED BY RF-SCORE:    0.00 PKD
ROOT
HETATM    1  C   UNL     1     -12.110  11.220  69.550  1.00  0.00    -0.386 C  
HETATM    2  C   UNL     1     -11.749  12.205  68.715  1.00  0.00    -0.374 C  
ENDROOT
BRANCH   1   3
HETATM    3  C   UNL     1     -12.522  11.451  70.951  1.00  0.00    -0.379 C  
HETATM    4  O   UNL     1     -12.786  10.528  71.706  1.00  0.00    -0.420 OA 
BRANCH   3   5
HETATM    5  O   UNL     1     -12.668  12.772  71.210  1.00  0.00    -0.368 OA 
BRANCH   5   6
HETATM    6  C   UNL     1     -13.562  13.095  72.283  1.00  0.00    -0.581 C  
HETATM    7  C   UNL     1     -13.260  14.513  72.735  1.00  0.00    -0.600 C  
ENDBRANCH   5   6
ENDBRANCH   3   5
ENDBRANCH   1   3
BRANCH   2   8
HETATM    8  C   UNL     1     -11.480  12.030  67.281  1.00  0.00    -0.403 A  
HETATM    9  O   UNL     1     -11.093  11.427  63.192  1.00  0.00    -0.783 OA 
HETATM   10  C   UNL     1     -12.029  12.960  66.382  1.00  0.00    -0.462 A  
HETATM   11  C   UNL     1     -11.903  12.774  65.005  1.00  0.00    -0.382 A  
HETATM   12  C   UNL     1     -10.798  10.909  66.782  1.00  0.00    -0.283 A  
HETATM   13  C   UNL     1     -11.215  11.650  64.536  1.00  0.00    -0.269 A  
HETATM   14  H   UNL     1     -10.627  10.664  62.873  1.00  0.00     0.000 HD 
HETATM   15  C   UNL     1     -10.659  10.724  65.407  1.00  0.00    -0.224 A  
BRANCH  11  16
HETATM   16  O   UNL     1     -12.412  13.594  64.031  1.00  0.00    -0.659 OA 
HETATM   17  C   UNL     1     -12.261  14.994  64.237  1.00  0.00    -0.293 C  
ENDBRANCH  11  16
ENDBRANCH   2   8
TORSDOF 5
ENDMDL
MODEL       10
REMARK 921   NORMALIZED FREE ENERGY PREDICTED BY IDOCK:   -5.25 KCAL/MOL
REMARK 922        TOTAL FREE ENERGY PREDICTED BY IDOCK:   -7.15 KCAL/MOL
REMARK 923 INTER-LIGAND FREE ENERGY PREDICTED BY IDOCK:   -6.89 KCAL/MOL
REMARK 924 INTRA-LIGAND FREE ENERGY PREDICTED BY IDOCK:   -0.26 KCAL/MOL
REMARK 927      BINDING AFFINITY PREDICTED BY RF-SCORE:    0.00 PKD
ROOT
HETATM    1  C   UNL     1     -12.117  11.239  68.912  1.00  0.00    -0.292 C  
HETATM    2  C   UNL     1     -11.309  11.966  68.126  1.00  0.00    -0.350 C  
ENDROOT
BRANCH   1   3
HETATM    3  C   UNL     1     -11.783  10.874  70.305  1.00  0.00    -0.347 C  
HETATM    4  O   UNL     1     -10.896  10.076  70.567  1.00  0.00    -0.294 OA 
BRANCH   3   5
HETATM    5  O   UNL     1     -12.646  11.438  71.183  1.00  0.00    -0.394 OA 
BRANCH   5   6
HETATM    6  C   UNL     1     -12.592  12.868  71.267  1.00  0.00    -0.256 C  
HETATM    7  C   UNL     1     -13.642  13.318  72.267  1.00  0.00    -0.703 C  
ENDBRANCH   5   6
ENDBRANCH   3   5
ENDBRANCH   1   3
BRANCH   2   8
HETATM    8  C   UNL     1     -11.671  12.473  66.795  1.00  0.00    -0.453 A  
HETATM    9  O   UNL     1     -12.315  14.000  62.989  1.00  0.00    -1.101 OA 
HETATM   10  C   UNL     1     -11.249  11.745  65.669  1.00  0.00    -0.324 A  
HETATM   11  C   UNL     1     -11.464  12.242  64.383  1.00  0.00    -0.354 A  
HETATM   12  C   UNL     1     -12.314  13.707  66.617  1.00  0.00    -0.381 A  
HETATM   13  C   UNL     1     -12.111  13.473  64.235  1.00  0.00    -0.431 A  
HETATM   14  H   UNL     1     -12.754  14.836  62.888  1.00  0.00     0.000 HD 
HETATM   15  C   UNL     1     -12.540  14.205  65.334  1.00  0.00    -0.485 A  
BRANCH  11  16
HETATM   16  O   UNL     1     -11.081  11.641  63.212  1.00  0.00    -0.354 OA 
HETATM   17  C   UNL     1      -9.750  11.138  63.163  1.00  0.00    -0.376 C  
ENDBRANCH  11  16
ENDBRANCH   2   8
TORSDOF 5
ENDMDL
MODEL       11
REMARK 921   NORMALIZED FREE ENERGY PREDICTED BY IDOCK:   -5.23 KCAL/MOL
REMARK 922        TOTAL FREE ENERGY PREDICTED BY IDOCK:   -7.12 KCAL/MOL
REMARK 923 INTER-LIGAND FREE ENERGY PREDICTED BY IDOCK:   -6.76 KCAL/MOL
REMARK 924 INTRA-LIGAND FREE ENERGY PREDICTED BY IDOCK:   -0.37 KCAL/MOL
REMARK 927      BINDING AFFINITY PREDICTED BY RF-SCORE:    0.00 PKD
ROOT
HETATM    1  C   UNL     1     -11.899  14.678  66.954  1.00  0.00    -0.345 C  
HETATM    2  C   UNL     1     -11.356  14.090  68.030  1.00  0.00    -0.320 C  
ENDROOT
BRANCH   1   3
HETATM    3  C   UNL     1     -11.466  14.399  65.568  1.00  0.00    -0.340 C  
HETATM    4  O   UNL     1     -10.321  14.607  65.197  1.00  0.00    -0.371 OA 
BRANCH   3   5
HETATM    5  O   UNL     1     -12.508  14.014  64.794  1.00  0.00    -0.541 OA 
BRANCH   5   6
HETATM    6  C   UNL     1     -12.759  12.603  64.755  1.00  0.00    -0.379 C  
HETATM    7  C   UNL     1     -12.241  12.072  63.430  1.00  0.00    -0.627 C  
ENDBRANCH   5   6
ENDBRANCH   3   5
ENDBRANCH   1   3
BRANCH   2   8
HETATM    8  C   UNL     1     -11.859  14.230  69.403  1.00  0.00    -0.372 A  
HETATM    9  O   UNL     1     -13.638  14.551  73.141  1.00  0.00    -0.591 OA 
HETATM   10  C   UNL     1     -12.280  13.072  70.080  1.00  0.00    -0.306 A  
HETATM   11  C   UNL     1     -12.874  13.164  71.339  1.00  0.00    -0.311 A  
HETATM   12  C   UNL     1     -12.040  15.484  70.007  1.00  0.00    -0.391 A  
HETATM   13  C   UNL     1     -13.038  14.426  71.918  1.00  0.00    -0.355 A  
HETATM   14  H   UNL     1     -13.750  15.408  73.534  1.00  0.00     0.000 HD 
HETATM   15  C   UNL     1     -12.623  15.581  71.269  1.00  0.00    -0.509 A  
BRANCH  11  16
HETATM   16  O   UNL     1     -13.345  12.114  72.086  1.00  0.00    -0.522 OA 
HETATM   17  C   UNL     1     -12.947  10.812  71.672  1.00  0.00    -0.476 C  
ENDBRANCH  11  16
ENDBRANCH   2   8
TORSDOF 5
ENDMDL
MODEL       12
REMARK 921   NORMALIZED FREE ENERGY PREDICTED BY IDOCK:   -5.23 KCAL/MOL
REMARK 922        TOTAL FREE ENERGY PREDICTED BY IDOCK:   -7.12 KCAL/MOL
REMARK 923 INTER-LIGAND FREE ENERGY PREDICTED BY IDOCK:   -6.84 KCAL/MOL
REMARK 924 INTRA-LIGAND FREE ENERGY PREDICTED BY IDOCK:   -0.28 KCAL/MOL
REMARK 927      BINDING AFFINITY PREDICTED BY RF-SCORE:    0.00 PKD
ROOT
HETATM    1  C   UNL     1     -11.842  12.154  68.129  1.00  0.00    -0.362 C  
HETATM    2  C   UNL     1     -11.228  11.295  68.957  1.00  0.00    -0.321 C  
ENDROOT
BRANCH   1   3
HETATM    3  C   UNL     1     -11.262  12.600  66.844  1.00  0.00    -0.300 C  
HETATM    4  O   UNL     1     -10.451  13.511  66.785  1.00  0.00    -0.269 OA 
BRANCH   3   5
HETATM    5  O   UNL     1     -11.833  11.959  65.797  1.00  0.00    -0.435 OA 
BRANCH   5   6
HETATM    6  C   UNL     1     -12.522  12.798  64.862  1.00  0.00    -0.497 C  
HETATM    7  C   UNL     1     -12.107  12.380  63.462  1.00  0.00    -0.651 C  
ENDBRANCH   5   6
ENDBRANCH   3   5
ENDBRANCH   1   3
BRANCH   2   8
HETATM    8  C   UNL     1     -11.835  10.717  70.163  1.00  0.00    -0.421 A  
HETATM    9  O   UNL     1     -13.788   8.878  73.332  1.00  0.00    -1.192 OA 
HETATM   10  C   UNL     1     -11.573   9.368  70.458  1.00  0.00    -0.291 A  
HETATM   11  C   UNL     1     -12.217   8.738  71.524  1.00  0.00    -0.327 A  
HETATM   12  C   UNL     1     -12.751  11.429  70.952  1.00  0.00    -0.397 A  
HETATM   13  C   UNL     1     -13.123   9.473  72.295  1.00  0.00    -0.408 A  
HETATM   14  H   UNL     1     -14.403   9.377  73.856  1.00  0.00     0.000 HD 
HETATM   15  C   UNL     1     -13.391  10.808  72.024  1.00  0.00    -0.403 A  
BRANCH  11  16
HETATM   16  O   UNL     1     -12.065   7.427  71.897  1.00  0.00    -0.290 OA 
HETATM   17  C   UNL     1     -10.894   7.112  72.643  1.00  0.00    -0.279 C  
ENDBRANCH  11  16
ENDBRANCH   2   8
TORSDOF 5
ENDMDL
MODEL       13
REMARK 921   NORMALIZED FREE ENERGY PREDICTED BY IDOCK:   -5.19 KCAL/MOL
REMARK 922        TOTAL FREE ENERGY PREDICTED BY IDOCK:   -7.07 KCAL/MOL
REMARK 923 INTER-LIGAND FREE ENERGY PREDICTED BY IDOCK:   -6.60 KCAL/MOL
REMARK 924 INTRA-LIGAND FREE ENERGY PREDICTED BY IDOCK:   -0.46 KCAL/MOL
REMARK 927      BINDING AFFINITY PREDICTED BY RF-SCORE:    0.00 PKD
ROOT
HETATM    1  C   UNL     1     -12.308  13.330  65.154  1.00  0.00    -0.516 C  
HETATM    2  C   UNL     1     -11.304  13.932  65.810  1.00  0.00    -0.308 C  
ENDROOT
BRANCH   1   3
HETATM    3  C   UNL     1     -12.110  12.513  63.938  1.00  0.00    -0.498 C  
HETATM    4  O   UNL     1     -13.042  11.956  63.377  1.00  0.00    -0.710 OA 
BRANCH   3   5
HETATM    5  O   UNL     1     -10.796  12.390  63.634  1.00  0.00    -0.411 OA 
BRANCH   5   6
HETATM    6  C   UNL     1     -10.337  11.050  63.416  1.00  0.00    -0.312 C  
HETATM    7  C   UNL     1      -9.969  10.456  64.765  1.00  0.00    -0.409 C  
ENDBRANCH   5   6
ENDBRANCH   3   5
ENDBRANCH   1   3
BRANCH   2   8
HETATM    8  C   UNL     1     -11.442  14.623  67.098  1.00  0.00    -0.380 A  
HETATM    9  O   UNL     1     -11.447  16.522  70.790  1.00  0.00    -0.562 OA 
HETATM   10  C   UNL     1     -10.910  15.918  67.219  1.00  0.00    -0.279 A  
HETATM   11  C   UNL     1     -10.910  16.572  68.452  1.00  0.00    -0.348 A  
HETATM   12  C   UNL     1     -11.978  13.990  68.230  1.00  0.00    -0.384 A  
HETATM   13  C   UNL     1     -11.454  15.918  69.563  1.00  0.00    -0.342 A  
HETATM   14  H   UNL     1     -11.816  16.078  71.544  1.00  0.00     0.000 HD 
HETATM   15  C   UNL     1     -11.990  14.642  69.463  1.00  0.00    -0.361 A  
BRANCH  11  16
HETATM   16  O   UNL     1     -10.401  17.821  68.703  1.00  0.00    -0.363 OA 
HETATM   17  C   UNL     1     -10.595  18.799  67.687  1.00  0.00    -0.419 C  
ENDBRANCH  11  16
ENDBRANCH   2   8
TORSDOF 5
ENDMDL
MODEL       14
REMARK 921   NORMALIZED FREE ENERGY PREDICTED BY IDOCK:   -5.18 KCAL/MOL
REMARK 922        TOTAL FREE ENERGY PREDICTED BY IDOCK:   -7.06 KCAL/MOL
REMARK 923 INTER-LIGAND FREE ENERGY PREDICTED BY IDOCK:   -6.74 KCAL/MOL
REMARK 924 INTRA-LIGAND FREE ENERGY PREDICTED BY IDOCK:   -0.32 KCAL/MOL
REMARK 927      BINDING AFFINITY PREDICTED BY RF-SCORE:    0.00 PKD
ROOT
HETATM    1  C   UNL     1     -10.557  11.627  67.845  1.00  0.00    -0.225 C  
HETATM    2  C   UNL     1     -11.610  12.210  67.252  1.00  0.00    -0.404 C  
ENDROOT
BRANCH   1   3
HETATM    3  C   UNL     1     -10.664  10.413  68.681  1.00  0.00    -0.218 C  
HETATM    4  O   UNL     1     -10.751   9.298  68.190  1.00  0.00    -0.213 OA 
BRANCH   3   5
HETATM    5  O   UNL     1     -10.766  10.726  69.995  1.00  0.00    -0.220 OA 
BRANCH   5   6
HETATM    6  C   UNL     1     -12.101  10.784  70.512  1.00  0.00    -0.366 C  
HETATM    7  C   UNL     1     -12.295   9.599  71.443  1.00  0.00    -0.468 C  
ENDBRANCH   5   6
ENDBRANCH   3   5
ENDBRANCH   1   3
BRANCH   2   8
HETATM    8  C   UNL     1     -11.522  13.324  66.298  1.00  0.00    -0.358 A  
HETATM    9  O   UNL     1     -11.420  16.701  63.886  1.00  0.00    -1.604 OA 
HETATM   10  C   UNL     1     -10.538  14.304  66.509  1.00  0.00    -0.286 A  
HETATM   11  C   UNL     1     -10.487  15.442  65.702  1.00  0.00    -0.372 A  
HETATM   12  C   UNL     1     -12.457  13.497  65.266  1.00  0.00    -0.525 A  
HETATM   13  C   UNL     1     -11.428  15.586  64.679  1.00  0.00    -0.324 A  
HETATM   14  H   UNL     1     -12.060  16.799  63.191  1.00  0.00     0.000 HD 
HETATM   15  C   UNL     1     -12.405  14.626  64.450  1.00  0.00    -0.420 A  
BRANCH  11  16
HETATM   16  O   UNL     1      -9.593  16.476  65.822  1.00  0.00    -0.476 OA 
HETATM   17  C   UNL     1      -9.614  17.193  67.051  1.00  0.00    -0.260 C  
ENDBRANCH  11  16
ENDBRANCH   2   8
TORSDOF 5
ENDMDL
MODEL       15
REMARK 921   NORMALIZED FREE ENERGY PREDICTED BY IDOCK:   -5.18 KCAL/MOL
REMARK 922        TOTAL FREE ENERGY PREDICTED BY IDOCK:   -7.05 KCAL/MOL
REMARK 923 INTER-LIGAND FREE ENERGY PREDICTED BY IDOCK:   -6.74 KCAL/MOL
REMARK 924 INTRA-LIGAND FREE ENERGY PREDICTED BY IDOCK:   -0.32 KCAL/MOL
REMARK 927      BINDING AFFINITY PREDICTED BY RF-SCORE:    0.00 PKD
ROOT
HETATM    1  C   UNL     1     -12.354   9.512  71.478  1.00  0.00    -0.465 C  
HETATM    2  C   UNL     1     -13.120  10.537  71.882  1.00  0.00    -0.567 C  
ENDROOT
BRANCH   1   3
HETATM    3  C   UNL     1     -12.654   8.099  71.792  1.00  0.00    -0.330 C  
HETATM    4  O   UNL     1     -13.724   7.587  71.500  1.00  0.00    -0.378 OA 
BRANCH   3   5
HETATM    5  O   UNL     1     -11.660   7.534  72.518  1.00  0.00    -0.311 OA 
BRANCH   5   6
HETATM    6  C   UNL     1     -10.388   8.188  72.436  1.00  0.00    -0.311 C  
HETATM    7  C   UNL     1      -9.500   7.626  73.533  1.00  0.00    -0.347 C  
ENDBRANCH   5   6
ENDBRANCH   3   5
ENDBRANCH   1   3
BRANCH   2   8
HETATM    8  C   UNL     1     -12.936  11.933  71.465  1.00  0.00    -0.427 A  
HETATM    9  O   UNL     1     -12.802  15.889  70.212  1.00  0.00    -0.612 OA 
HETATM   10  C   UNL     1     -13.443  12.948  72.295  1.00  0.00    -0.631 A  
HETATM   11  C   UNL     1     -13.400  14.283  71.890  1.00  0.00    -0.388 A  
HETATM   12  C   UNL     1     -12.381  12.274  70.222  1.00  0.00    -0.267 A  
HETATM   13  C   UNL     1     -12.838  14.593  70.648  1.00  0.00    -0.342 A  
HETATM   14  H   UNL     1     -12.421  16.100  69.368  1.00  0.00     0.000 HD 
HETATM   15  C   UNL     1     -12.326  13.607  69.816  1.00  0.00    -0.285 A  
BRANCH  11  16
HETATM   16  O   UNL     1     -13.881  15.355  72.597  1.00  0.00    -0.508 OA 
HETATM   17  C   UNL     1     -13.034  15.875  73.616  1.00  0.00    -0.568 C  
ENDBRANCH  11  16
ENDBRANCH   2   8
TORSDOF 5
ENDMDL
MODEL       16
REMARK 921   NORMALIZED FREE ENERGY PREDICTED BY IDOCK:   -5.15 KCAL/MOL
REMARK 922        TOTAL FREE ENERGY PREDICTED BY IDOCK:   -7.02 KCAL/MOL
REMARK 923 INTER-LIGAND FREE ENERGY PREDICTED BY IDOCK:   -6.67 KCAL/MOL
REMARK 924 INTRA-LIGAND FREE ENERGY PREDICTED BY IDOCK:   -0.35 KCAL/MOL
REMARK 927      BINDING AFFINITY PREDICTED BY RF-SCORE:    0.00 PKD
ROOT
HETATM    1  C   UNL     1     -12.515  13.426  70.814  1.00  0.00    -0.418 C  
HETATM    2  C   UNL     1     -12.523  14.646  70.256  1.00  0.00    -0.401 C  
ENDROOT
BRANCH   1   3
HETATM    3  C   UNL     1     -13.329  13.067  71.995  1.00  0.00    -0.492 C  
HETATM    4  O   UNL     1     -13.778  13.914  72.751  1.00  0.00    -0.686 OA 
BRANCH   3   5
HETATM    5  O   UNL     1     -13.390  11.724  72.161  1.00  0.00    -0.497 OA 
BRANCH   5   6
HETATM    6  C   UNL     1     -12.586  10.954  71.258  1.00  0.00    -0.421 C  
HETATM    7  C   UNL     1     -12.932   9.489  71.455  1.00  0.00    -0.471 C  
ENDBRANCH   5   6
ENDBRANCH   3   5
ENDBRANCH   1   3
BRANCH   2   8
HETATM    8  C   UNL     1     -11.846  14.996  69.000  1.00  0.00    -0.330 A  
HETATM    9  O   UNL     1     -10.212  16.254  65.397  1.00  0.00    -0.518 OA 
HETATM   10  C   UNL     1     -11.159  16.220  68.933  1.00  0.00    -0.345 A  
HETATM   11  C   UNL     1     -10.599  16.654  67.731  1.00  0.00    -0.342 A  
HETATM   12  C   UNL     1     -11.963  14.208  67.845  1.00  0.00    -0.378 A  
HETATM   13  C   UNL     1     -10.728  15.847  66.596  1.00  0.00    -0.270 A  
HETATM   14  H   UNL     1     -10.300  15.707  64.626  1.00  0.00     0.000 HD 
HETATM   15  C   UNL     1     -11.397  14.631  66.643  1.00  0.00    -0.358 A  
BRANCH  11  16
HETATM   16  O   UNL     1      -9.929  17.834  67.533  1.00  0.00    -0.301 OA 
HETATM   17  C   UNL     1     -10.720  19.017  67.507  1.00  0.00    -0.446 C  
ENDBRANCH  11  16
ENDBRANCH   2   8
TORSDOF 5
ENDMDL
MODEL       17
REMARK 921   NORMALIZED FREE ENERGY PREDICTED BY IDOCK:   -5.13 KCAL/MOL
REMARK 922        TOTAL FREE ENERGY PREDICTED BY IDOCK:   -7.00 KCAL/MOL
REMARK 923 INTER-LIGAND FREE ENERGY PREDICTED BY IDOCK:   -6.67 KCAL/MOL
REMARK 924 INTRA-LIGAND FREE ENERGY PREDICTED BY IDOCK:   -0.33 KCAL/MOL
REMARK 927      BINDING AFFINITY PREDICTED BY RF-SCORE:    0.00 PKD
ROOT
HETATM    1  C   UNL     1     -11.800  13.959  67.107  1.00  0.00    -0.445 C  
HETATM    2  C   UNL     1     -11.223  13.563  68.251  1.00  0.00    -0.305 C  
ENDROOT
BRANCH   1   3
HETATM    3  C   UNL     1     -11.058  14.599  66.000  1.00  0.00    -0.332 C  
HETATM    4  O   UNL     1     -10.181  15.424  66.204  1.00  0.00    -0.274 OA 
BRANCH   3   5
HETATM    5  O   UNL     1     -11.560  14.235  64.795  1.00  0.00    -0.363 OA 
BRANCH   5   6
HETATM    6  C   UNL     1     -10.987  13.054  64.221  1.00  0.00    -0.399 C  
HETATM    7  C   UNL     1     -12.085  12.317  63.474  1.00  0.00    -0.649 C  
ENDBRANCH   5   6
ENDBRANCH   3   5
ENDBRANCH   1   3
BRANCH   2   8
HETATM    8  C   UNL     1     -11.896  12.794  69.306  1.00  0.00    -0.358 A  
HETATM    9  O   UNL     1     -13.494  10.703  72.517  1.00  0.00    -0.546 OA 
HETATM   10  C   UNL     1     -12.451  13.494  70.390  1.00  0.00    -0.345 A  
HETATM   11  C   UNL     1     -12.997  12.805  71.474  1.00  0.00    -0.292 A  
HETATM   12  C   UNL     1     -11.897  11.390  69.319  1.00  0.00    -0.417 A  
HETATM   13  C   UNL     1     -12.988  11.407  71.459  1.00  0.00    -0.399 A  
HETATM   14  H   UNL     1     -13.487   9.753  72.507  1.00  0.00     0.000 HD 
HETATM   15  C   UNL     1     -12.451  10.696  70.395  1.00  0.00    -0.421 A  
BRANCH  11  16
HETATM   16  O   UNL     1     -13.544  13.373  72.597  1.00  0.00    -0.635 OA 
HETATM   17  C   UNL     1     -13.276  14.755  72.804  1.00  0.00    -0.486 C  
ENDBRANCH  11  16
ENDBRANCH   2   8
TORSDOF 5
ENDMDL
MODEL       18
REMARK 921   NORMALIZED FREE ENERGY PREDICTED BY IDOCK:   -5.12 KCAL/MOL
REMARK 922        TOTAL FREE ENERGY PREDICTED BY IDOCK:   -6.99 KCAL/MOL
REMARK 923 INTER-LIGAND FREE ENERGY PREDICTED BY IDOCK:   -6.68 KCAL/MOL
REMARK 924 INTRA-LIGAND FREE ENERGY PREDICTED BY IDOCK:   -0.30 KCAL/MOL
REMARK 927      BINDING AFFINITY PREDICTED BY RF-SCORE:    0.00 PKD
ROOT
HETATM    1  C   UNL     1     -11.510  14.666  67.008  1.00  0.00    -0.379 C  
HETATM    2  C   UNL     1     -11.141  14.755  68.294  1.00  0.00    -0.284 C  
ENDROOT
BRANCH   1   3
HETATM    3  C   UNL     1     -10.651  15.094  65.884  1.00  0.00    -0.337 C  
HETATM    4  O   UNL     1     -10.003  16.128  65.925  1.00  0.00    -0.317 OA 
BRANCH   3   5
HETATM    5  O   UNL     1     -10.784  14.267  64.819  1.00  0.00    -0.407 OA 
BRANCH   5   6
HETATM    6  C   UNL     1     -12.077  13.668  64.662  1.00  0.00    -0.412 C  
HETATM    7  C   UNL     1     -11.919  12.436  63.789  1.00  0.00    -0.600 C  
ENDBRANCH   5   6
ENDBRANCH   3   5
ENDBRANCH   1   3
BRANCH   2   8
HETATM    8  C   UNL     1     -11.904  14.205  69.423  1.00  0.00    -0.378 A  
HETATM    9  O   UNL     1     -13.770  12.780  72.847  1.00  0.00    -0.676 OA 
HETATM   10  C   UNL     1     -12.531  15.103  70.303  1.00  0.00    -0.388 A  
HETATM   11  C   UNL     1     -13.168  14.639  71.455  1.00  0.00    -0.355 A  
HETATM   12  C   UNL     1     -11.924  12.831  69.711  1.00  0.00    -0.362 A  
HETATM   13  C   UNL     1     -13.175  13.265  71.715  1.00  0.00    -0.405 A  
HETATM   14  H   UNL     1     -13.775  11.847  73.023  1.00  0.00     0.000 HD 
HETATM   15  C   UNL     1     -12.567  12.360  70.855  1.00  0.00    -0.337 A  
BRANCH  11  16
HETATM   16  O   UNL     1     -13.792  15.413  72.399  1.00  0.00    -0.478 OA 
HETATM   17  C   UNL     1     -12.954  16.024  73.374  1.00  0.00    -0.570 C  
ENDBRANCH  11  16
ENDBRANCH   2   8
TORSDOF 5
ENDMDL
MODEL       19
REMARK 921   NORMALIZED FREE ENERGY PREDICTED BY IDOCK:   -5.12 KCAL/MOL
REMARK 922        TOTAL FREE ENERGY PREDICTED BY IDOCK:   -6.98 KCAL/MOL
REMARK 923 INTER-LIGAND FREE ENERGY PREDICTED BY IDOCK:   -6.61 KCAL/MOL
REMARK 924 INTRA-LIGAND FREE ENERGY PREDICTED BY IDOCK:   -0.37 KCAL/MOL
REMARK 927      BINDING AFFINITY PREDICTED BY RF-SCORE:    0.00 PKD
ROOT
HETATM    1  C   UNL     1     -10.658  16.006  67.371  1.00  0.00    -0.316 C  
HETATM    2  C   UNL     1     -11.256  14.997  68.023  1.00  0.00    -0.324 C  
ENDROOT
BRANCH   1   3
HETATM    3  C   UNL     1     -10.468  16.028  65.906  1.00  0.00    -0.359 C  
HETATM    4  O   UNL     1     -10.336  15.002  65.257  1.00  0.00    -0.354 OA 
BRANCH   3   5
HETATM    5  O   UNL     1     -10.349  17.295  65.443  1.00  0.00    -0.626 OA 
BRANCH   5   6
HETATM    6  C   UNL     1      -9.962  18.273  66.417  1.00  0.00    -0.380 C  
HETATM    7  C   UNL     1     -10.436  19.631  65.931  1.00  0.00    -0.591 C  
ENDBRANCH   5   6
ENDBRANCH   3   5
ENDBRANCH   1   3
BRANCH   2   8
HETATM    8  C   UNL     1     -11.594  15.008  69.452  1.00  0.00    -0.337 A  
HETATM    9  O   UNL     1     -12.920  15.120  73.385  1.00  0.00    -0.486 OA 
HETATM   10  C   UNL     1     -12.355  13.943  69.965  1.00  0.00    -0.378 A  
HETATM   11  C   UNL     1     -12.803  13.963  71.286  1.00  0.00    -0.360 A  
HETATM   12  C   UNL     1     -11.285  16.096  70.283  1.00  0.00    -0.389 A  
HETATM   13  C   UNL     1     -12.477  15.058  72.092  1.00  0.00    -0.344 A  
HETATM   14  H   UNL     1     -12.699  15.863  73.933  1.00  0.00     0.000 HD 
HETATM   15  C   UNL     1     -11.721  16.117  71.608  1.00  0.00    -0.558 A  
BRANCH  11  16
HETATM   16  O   UNL     1     -13.568  13.001  71.893  1.00  0.00    -0.427 OA 
HETATM   17  C   UNL     1     -13.128  11.655  71.747  1.00  0.00    -0.382 C  
ENDBRANCH  11  16
ENDBRANCH   2   8
TORSDOF 5
ENDMDL
MODEL       20
REMARK 921   NORMALIZED FREE ENERGY PREDICTED BY IDOCK:   -5.11 KCAL/MOL
REMARK 922        TOTAL FREE ENERGY PREDICTED BY IDOCK:   -6.97 KCAL/MOL
REMARK 923 INTER-LIGAND FREE ENERGY PREDICTED BY IDOCK:   -6.63 KCAL/MOL
REMARK 924 INTRA-LIGAND FREE ENERGY PREDICTED BY IDOCK:   -0.34 KCAL/MOL
REMARK 927      BINDING AFFINITY PREDICTED BY RF-SCORE:    0.00 PKD
ROOT
HETATM    1  C   UNL     1     -12.065  13.505  66.436  1.00  0.00    -0.467 C  
HETATM    2  C   UNL     1     -11.529  13.203  67.628  1.00  0.00    -0.366 C  
ENDROOT
BRANCH   1   3
HETATM    3  C   UNL     1     -12.147  12.545  65.314  1.00  0.00    -0.444 C  
HETATM    4  O   UNL     1     -13.170  12.400  64.663  1.00  0.00    -0.822 OA 
BRANCH   3   5
HETATM    5  O   UNL     1     -11.013  11.812  65.210  1.00  0.00    -0.298 OA 
BRANCH   5   6
HETATM    6  C   UNL     1     -10.117  12.209  64.165  1.00  0.00    -0.308 C  
HETATM    7  C   UNL     1      -9.955  11.036  63.214  1.00  0.00    -0.414 C  
ENDBRANCH   5   6
ENDBRANCH   3   5
ENDBRANCH   1   3
BRANCH   2   8
HETATM    8  C   UNL     1     -11.566  14.078  68.807  1.00  0.00    -0.366 A  
HETATM    9  O   UNL     1     -12.016  16.680  72.011  1.00  0.00    -0.635 OA 
HETATM   10  C   UNL     1     -12.469  13.768  69.838  1.00  0.00    -0.259 A  
HETATM   11  C   UNL     1     -12.628  14.630  70.925  1.00  0.00    -0.342 A  
HETATM   12  C   UNL     1     -10.818  15.263  68.880  1.00  0.00    -0.247 A  
HETATM   13  C   UNL     1     -11.867  15.803  70.972  1.00  0.00    -0.420 A  
HETATM   14  H   UNL     1     -11.500  17.476  72.044  1.00  0.00     0.000 HD 
HETATM   15  C   UNL     1     -10.964  16.123  69.968  1.00  0.00    -0.364 A  
BRANCH  11  16
HETATM   16  O   UNL     1     -13.490  14.452  71.976  1.00  0.00    -0.341 OA 
HETATM   17  C   UNL     1     -13.779  13.106  72.338  1.00  0.00    -0.540 C  
ENDBRANCH  11  16
ENDBRANCH   2   8
TORSDOF 5
ENDMDL
MODEL       21
REMARK 921   NORMALIZED FREE ENERGY PREDICTED BY IDOCK:   -5.11 KCAL/MOL
REMARK 922        TOTAL FREE ENERGY PREDICTED BY IDOCK:   -6.97 KCAL/MOL
REMARK 923 INTER-LIGAND FREE ENERGY PREDICTED BY IDOCK:   -6.66 KCAL/MOL
REMARK 924 INTRA-LIGAND FREE ENERGY PREDICTED BY IDOCK:   -0.30 KCAL/MOL
REMARK 927      BINDING AFFINITY PREDICTED BY RF-SCORE:    0.00 PKD
ROOT
HETATM    1  C   UNL     1     -12.676  13.340  70.847  1.00  0.00    -0.332 C  
HETATM    2  C   UNL     1     -12.389  13.969  69.697  1.00  0.00    -0.309 C  
ENDROOT
BRANCH   1   3
HETATM    3  C   UNL     1     -13.345  13.999  71.989  1.00  0.00    -0.427 C  
HETATM    4  O   UNL     1     -14.141  13.405  72.700  1.00  0.00    -0.767 OA 
BRANCH   3   5
HETATM    5  O   UNL     1     -13.046  15.319  72.041  1.00  0.00    -0.331 OA 
BRANCH   5   6
HETATM    6  C   UNL     1     -11.920  15.663  72.857  1.00  0.00    -0.479 C  
HETATM    7  C   UNL     1     -12.409  15.831  74.285  1.00  0.00    -0.790 C  
ENDBRANCH   5   6
ENDBRANCH   3   5
ENDBRANCH   1   3
BRANCH   2   8
HETATM    8  C   UNL     1     -11.863  13.312  68.494  1.00  0.00    -0.384 A  
HETATM    9  O   UNL     1     -10.739  11.473  64.945  1.00  0.00    -0.287 OA 
HETATM   10  C   UNL     1     -11.736  14.075  67.320  1.00  0.00    -0.420 A  
HETATM   11  C   UNL     1     -11.353  13.472  66.121  1.00  0.00    -0.308 A  
HETATM   12  C   UNL     1     -11.598  11.934  68.451  1.00  0.00    -0.376 A  
HETATM   13  C   UNL     1     -11.093  12.098  66.109  1.00  0.00    -0.312 A  
HETATM   14  H   UNL     1     -10.563  10.540  64.936  1.00  0.00     0.000 HD 
HETATM   15  C   UNL     1     -11.206  11.328  67.258  1.00  0.00    -0.364 A  
BRANCH  11  16
HETATM   16  O   UNL     1     -11.218  14.102  64.910  1.00  0.00    -0.340 OA 
HETATM   17  C   UNL     1     -10.938  15.497  64.948  1.00  0.00    -0.436 C  
ENDBRANCH  11  16
ENDBRANCH   2   8
TORSDOF 5
ENDMDL
MODEL       22
REMARK 921   NORMALIZED FREE ENERGY PREDICTED BY IDOCK:   -5.10 KCAL/MOL
REMARK 922        TOTAL FREE ENERGY PREDICTED BY IDOCK:   -6.95 KCAL/MOL
REMARK 923 INTER-LIGAND FREE ENERGY PREDICTED BY IDOCK:   -6.61 KCAL/MOL
REMARK 924 INTRA-LIGAND FREE ENERGY PREDICTED BY IDOCK:   -0.34 KCAL/MOL
REMARK 927      BINDING AFFINITY PREDICTED BY RF-SCORE:    0.00 PKD
ROOT
HETATM    1  C   UNL     1     -12.443  13.363  70.936  1.00  0.00    -0.439 C  
HETATM    2  C   UNL     1     -12.115  12.227  70.301  1.00  0.00    -0.376 C  
ENDROOT
BRANCH   1   3
HETATM    3  C   UNL     1     -12.461  14.686  70.278  1.00  0.00    -0.346 C  
HETATM    4  O   UNL     1     -11.993  14.858  69.163  1.00  0.00    -0.304 OA 
BRANCH   3   5
HETATM    5  O   UNL     1     -12.938  15.643  71.109  1.00  0.00    -0.480 OA 
BRANCH   5   6
HETATM    6  C   UNL     1     -12.086  15.985  72.210  1.00  0.00    -0.527 C  
HETATM    7  C   UNL     1     -12.925  15.962  73.476  1.00  0.00    -0.707 C  
ENDBRANCH   5   6
ENDBRANCH   3   5
ENDBRANCH   1   3
BRANCH   2   8
HETATM    8  C   UNL     1     -12.231  10.882  70.880  1.00  0.00    -0.485 A  
HETATM    9  O   UNL     1     -12.714   6.967  72.174  1.00  0.00    -0.517 OA 
HETATM   10  C   UNL     1     -11.369   9.878  70.407  1.00  0.00    -0.376 A  
HETATM   11  C   UNL     1     -11.515   8.558  70.837  1.00  0.00    -0.267 A  
HETATM   12  C   UNL     1     -13.243  10.547  71.793  1.00  0.00    -0.522 A  
HETATM   13  C   UNL     1     -12.530   8.254  71.751  1.00  0.00    -0.332 A  
HETATM   14  H   UNL     1     -13.403   6.760  72.793  1.00  0.00     0.000 HD 
HETATM   15  C   UNL     1     -13.387   9.233  72.235  1.00  0.00    -0.547 A  
BRANCH  11  16
HETATM   16  O   UNL     1     -10.756   7.490  70.434  1.00  0.00    -0.229 OA 
HETATM   17  C   UNL     1      -9.357   7.721  70.299  1.00  0.00    -0.156 C  
ENDBRANCH  11  16
ENDBRANCH   2   8
TORSDOF 5
ENDMDL
MODEL       23
REMARK 921   NORMALIZED FREE ENERGY PREDICTED BY IDOCK:   -5.09 KCAL/MOL
REMARK 922        TOTAL FREE ENERGY PREDICTED BY IDOCK:   -6.95 KCAL/MOL
REMARK 923 INTER-LIGAND FREE ENERGY PREDICTED BY IDOCK:   -6.64 KCAL/MOL
REMARK 924 INTRA-LIGAND FREE ENERGY PREDICTED BY IDOCK:   -0.31 KCAL/MOL
REMARK 927      BINDING AFFINITY PREDICTED BY RF-SCORE:    0.00 PKD
ROOT
HETATM    1  C   UNL     1     -11.492  13.895  68.229  1.00  0.00    -0.346 C  
HETATM    2  C   UNL     1     -12.107  13.987  67.040  1.00  0.00    -0.455 C  
ENDROOT
BRANCH   1   3
HETATM    3  C   UNL     1     -11.909  14.662  69.422  1.00  0.00    -0.329 C  
HETATM    4  O   UNL     1     -11.665  15.852  69.541  1.00  0.00    -0.342 OA 
BRANCH   3   5
HETATM    5  O   UNL     1     -12.464  13.854  70.357  1.00  0.00    -0.336 OA 
BRANCH   5   6
HETATM    6  C   UNL     1     -12.759  14.478  71.613  1.00  0.00    -0.342 C  
HETATM    7  C   UNL     1     -14.254  14.740  71.666  1.00  0.00    -0.618 C  
ENDBRANCH   5   6
ENDBRANCH   3   5
ENDBRANCH   1   3
BRANCH   2   8
HETATM    8  C   UNL     1     -11.817  13.135  65.879  1.00  0.00    -0.453 A  
HETATM    9  O   UNL     1     -10.640  10.891  62.591  1.00  0.00    -0.761 OA 
HETATM   10  C   UNL     1     -10.923  12.064  66.047  1.00  0.00    -0.346 A  
HETATM   11  C   UNL     1     -10.523  11.297  64.952  1.00  0.00    -0.314 A  
HETATM   12  C   UNL     1     -12.308  13.428  64.598  1.00  0.00    -0.433 A  
HETATM   13  C   UNL     1     -11.031  11.609  63.688  1.00  0.00    -0.431 A  
HETATM   14  H   UNL     1     -10.984  11.103  61.732  1.00  0.00     0.000 HD 
HETATM   15  C   UNL     1     -11.920  12.659  63.501  1.00  0.00    -0.630 A  
BRANCH  11  16
HETATM   16  O   UNL     1      -9.642  10.246  64.983  1.00  0.00    -0.237 OA 
HETATM   17  C   UNL     1      -9.749   9.361  66.093  1.00  0.00    -0.265 C  
ENDBRANCH  11  16
ENDBRANCH   2   8
TORSDOF 5
ENDMDL
MODEL       24
REMARK 921   NORMALIZED FREE ENERGY PREDICTED BY IDOCK:   -5.08 KCAL/MOL
REMARK 922        TOTAL FREE ENERGY PREDICTED BY IDOCK:   -6.93 KCAL/MOL
REMARK 923 INTER-LIGAND FREE ENERGY PREDICTED BY IDOCK:   -6.62 KCAL/MOL
REMARK 924 INTRA-LIGAND FREE ENERGY PREDICTED BY IDOCK:   -0.31 KCAL/MOL
REMARK 927      BINDING AFFINITY PREDICTED BY RF-SCORE:    0.00 PKD
ROOT
HETATM    1  C   UNL     1     -11.095  15.010  65.572  1.00  0.00    -0.358 C  
HETATM    2  C   UNL     1     -10.378  13.911  65.289  1.00  0.00    -0.396 C  
ENDROOT
BRANCH   1   3
HETATM    3  C   UNL     1     -10.951  16.285  64.839  1.00  0.00    -0.307 C  
HETATM    4  O   UNL     1     -11.546  16.498  63.793  1.00  0.00    -1.109 OA 
BRANCH   3   5
HETATM    5  O   UNL     1     -10.019  17.082  65.413  1.00  0.00    -0.556 OA 
BRANCH   5   6
HETATM    6  C   UNL     1     -10.514  18.304  65.975  1.00  0.00    -0.361 C  
HETATM    7  C   UNL     1     -10.502  18.163  67.487  1.00  0.00    -0.425 C  
ENDBRANCH   5   6
ENDBRANCH   3   5
ENDBRANCH   1   3
BRANCH   2   8
HETATM    8  C   UNL     1     -10.598  12.590  65.894  1.00  0.00    -0.292 A  
HETATM    9  O   UNL     1     -11.003   8.982  67.907  1.00  0.00    -0.488 OA 
HETATM   10  C   UNL     1     -11.457  12.500  67.002  1.00  0.00    -0.419 A  
HETATM   11  C   UNL     1     -11.608  11.293  67.686  1.00  0.00    -0.210 A  
HETATM   12  C   UNL     1      -9.892  11.452  65.475  1.00  0.00    -0.271 A  
HETATM   13  C   UNL     1     -10.895  10.174  67.244  1.00  0.00    -0.230 A  
HETATM   14  H   UNL     1     -10.519   8.222  67.607  1.00  0.00     0.000 HD 
HETATM   15  C   UNL     1     -10.047  10.240  66.148  1.00  0.00    -0.307 A  
BRANCH  11  16
HETATM   16  O   UNL     1     -12.394  11.085  68.790  1.00  0.00    -0.533 OA 
HETATM   17  C   UNL     1     -11.837  11.460  70.045  1.00  0.00    -0.359 C  
ENDBRANCH  11  16
ENDBRANCH   2   8
TORSDOF 5
ENDMDL
MODEL       25
REMARK 921   NORMALIZED FREE ENERGY PREDICTED BY IDOCK:   -5.06 KCAL/MOL
REMARK 922        TOTAL FREE ENERGY PREDICTED BY IDOCK:   -6.91 KCAL/MOL
REMARK 923 INTER-LIGAND FREE ENERGY PREDICTED BY IDOCK:   -6.53 KCAL/MOL
REMARK 924 INTRA-LIGAND FREE ENERGY PREDICTED BY IDOCK:   -0.38 KCAL/MOL
REMARK 927      BINDING AFFINITY PREDICTED BY RF-SCORE:    0.00 PKD
ROOT
HETATM    1  C   UNL     1     -12.730  13.657  70.728  1.00  0.00    -0.338 C  
HETATM    2  C   UNL     1     -12.306  14.903  70.466  1.00  0.00    -0.400 C  
ENDROOT
BRANCH   1   3
HETATM    3  C   UNL     1     -13.395  13.272  71.990  1.00  0.00    -0.489 C  
HETATM    4  O   UNL     1     -13.820  14.105  72.775  1.00  0.00    -0.645 OA 
BRANCH   3   5
HETATM    5  O   UNL     1     -13.351  11.932  72.182  1.00  0.00    -0.503 OA 
BRANCH   5   6
HETATM    6  C   UNL     1     -12.569  11.199  71.231  1.00  0.00    -0.398 C  
HETATM    7  C   UNL     1     -13.017   9.748  71.275  1.00  0.00    -0.470 C  
ENDBRANCH   5   6
ENDBRANCH   3   5
ENDBRANCH   1   3
BRANCH   2   8
HETATM    8  C   UNL     1     -11.779  15.353  69.171  1.00  0.00    -0.364 A  
HETATM    9  O   UNL     1     -10.004  16.360  65.556  1.00  0.00    -0.518 OA 
HETATM   10  C   UNL     1     -11.906  14.494  68.066  1.00  0.00    -0.350 A  
HETATM   11  C   UNL     1     -11.320  14.821  66.843  1.00  0.00    -0.355 A  
HETATM   12  C   UNL     1     -11.058  16.549  69.035  1.00  0.00    -0.284 A  
HETATM   13  C   UNL     1     -10.610  16.021  66.735  1.00  0.00    -0.297 A  
HETATM   14  H   UNL     1      -9.521  17.175  65.482  1.00  0.00     0.000 HD 
HETATM   15  C   UNL     1     -10.479  16.887  67.812  1.00  0.00    -0.340 A  
BRANCH  11  16
HETATM   16  O   UNL     1     -11.352  14.058  65.703  1.00  0.00    -0.306 OA 
HETATM   17  C   UNL     1     -12.641  13.708  65.211  1.00  0.00    -0.469 C  
ENDBRANCH  11  16
ENDBRANCH   2   8
TORSDOF 5
ENDMDL
MODEL       26
REMARK 921   NORMALIZED FREE ENERGY PREDICTED BY IDOCK:   -5.05 KCAL/MOL
REMARK 922        TOTAL FREE ENERGY PREDICTED BY IDOCK:   -6.89 KCAL/MOL
REMARK 923 INTER-LIGAND FREE ENERGY PREDICTED BY IDOCK:   -6.57 KCAL/MOL
REMARK 924 INTRA-LIGAND FREE ENERGY PREDICTED BY IDOCK:   -0.32 KCAL/MOL
REMARK 927      BINDING AFFINITY PREDICTED BY RF-SCORE:    0.00 PKD
ROOT
HETATM    1  C   UNL     1     -10.772  15.511  66.052  1.00  0.00    -0.331 C  
HETATM    2  C   UNL     1     -11.815  14.733  66.380  1.00  0.00    -0.231 C  
ENDROOT
BRANCH   1   3
HETATM    3  C   UNL     1     -10.871  16.652  65.118  1.00  0.00    -0.186 C  
HETATM    4  O   UNL     1     -11.487  16.573  64.066  1.00  0.00    -1.137 OA 
BRANCH   3   5
HETATM    5  O   UNL     1     -10.115  17.696  65.534  1.00  0.00    -0.566 OA 
BRANCH   5   6
HETATM    6  C   UNL     1     -10.461  18.236  66.815  1.00  0.00    -0.365 C  
HETATM    7  C   UNL     1     -10.532  19.747  66.683  1.00  0.00    -0.615 C  
ENDBRANCH   5   6
ENDBRANCH   3   5
ENDBRANCH   1   3
BRANCH   2   8
HETATM    8  C   UNL     1     -11.787  13.689  67.413  1.00  0.00    -0.429 A  
HETATM    9  O   UNL     1     -11.358  10.878  70.439  1.00  0.00    -0.388 OA 
HETATM   10  C   UNL     1     -11.948  14.075  68.755  1.00  0.00    -0.382 A  
HETATM   11  C   UNL     1     -11.813  13.141  69.783  1.00  0.00    -0.316 A  
HETATM   12  C   UNL     1     -11.490  12.350  67.113  1.00  0.00    -0.423 A  
HETATM   13  C   UNL     1     -11.520  11.813  69.454  1.00  0.00    -0.307 A  
HETATM   14  H   UNL     1     -11.159   9.977  70.216  1.00  0.00     0.000 HD 
HETATM   15  C   UNL     1     -11.364  11.410  68.135  1.00  0.00    -0.374 A  
BRANCH  11  16
HETATM   16  O   UNL     1     -11.923  13.398  71.125  1.00  0.00    -0.150 OA 
HETATM   17  C   UNL     1     -13.244  13.473  71.650  1.00  0.00    -0.366 C  
ENDBRANCH  11  16
ENDBRANCH   2   8
TORSDOF 5
ENDMDL
MODEL       27
REMARK 921   NORMALIZED FREE ENERGY PREDICTED BY IDOCK:   -5.03 KCAL/MOL
REMARK 922        TOTAL FREE ENERGY PREDICTED BY IDOCK:   -6.87 KCAL/MOL
REMARK 923 INTER-LIGAND FREE ENERGY PREDICTED BY IDOCK:   -6.52 KCAL/MOL
REMARK 924 INTRA-LIGAND FREE ENERGY PREDICTED BY IDOCK:   -0.35 KCAL/MOL
REMARK 927      BINDING AFFINITY PREDICTED BY RF-SCORE:    0.00 PKD
ROOT
HETATM    1  C   UNL     1     -11.438  15.088  67.410  1.00  0.00    -0.326 C  
HETATM    2  C   UNL     1     -11.960  13.874  67.175  1.00  0.00    -0.455 C  
ENDROOT
BRANCH   1   3
HETATM    3  C   UNL     1     -11.582  15.800  68.697  1.00  0.00    -0.386 C  
HETATM    4  O   UNL     1     -12.312  15.386  69.585  1.00  0.00    -0.304 OA 
BRANCH   3   5
HETATM    5  O   UNL     1     -10.912  16.977  68.687  1.00  0.00    -0.312 OA 
BRANCH   5   6
HETATM    6  C   UNL     1     -10.517  17.450  67.394  1.00  0.00    -0.336 C  
HETATM    7  C   UNL     1     -10.756  18.949  67.350  1.00  0.00    -0.519 C  
ENDBRANCH   5   6
ENDBRANCH   3   5
ENDBRANCH   1   3
BRANCH   2   8
HETATM    8  C   UNL     1     -11.711  13.076  65.967  1.00  0.00    -0.442 A  
HETATM    9  O   UNL     1     -10.634  10.928  62.582  1.00  0.00    -0.761 OA 
HETATM   10  C   UNL     1     -11.008  11.867  66.101  1.00  0.00    -0.352 A  
HETATM   11  C   UNL     1     -10.644  11.131  64.973  1.00  0.00    -0.273 A  
HETATM   12  C   UNL     1     -12.049  13.539  64.686  1.00  0.00    -0.450 A  
HETATM   13  C   UNL     1     -10.996  11.614  63.708  1.00  0.00    -0.422 A  
HETATM   14  H   UNL     1     -10.872  11.256  61.723  1.00  0.00     0.000 HD 
HETATM   15  C   UNL     1     -11.697  12.803  63.555  1.00  0.00    -0.597 A  
BRANCH  11  16
HETATM   16  O   UNL     1      -9.939   9.954  64.971  1.00  0.00    -0.316 OA 
HETATM   17  C   UNL     1     -10.032   9.158  66.147  1.00  0.00    -0.268 C  
ENDBRANCH  11  16
ENDBRANCH   2   8
TORSDOF 5
ENDMDL
MODEL       28
REMARK 921   NORMALIZED FREE ENERGY PREDICTED BY IDOCK:   -5.03 KCAL/MOL
REMARK 922        TOTAL FREE ENERGY PREDICTED BY IDOCK:   -6.87 KCAL/MOL
REMARK 923 INTER-LIGAND FREE ENERGY PREDICTED BY IDOCK:   -6.46 KCAL/MOL
REMARK 924 INTRA-LIGAND FREE ENERGY PREDICTED BY IDOCK:   -0.40 KCAL/MOL
REMARK 927      BINDING AFFINITY PREDICTED BY RF-SCORE:    0.00 PKD
ROOT
HETATM    1  C   UNL     1     -11.409  14.808  66.698  1.00  0.00    -0.347 C  
HETATM    2  C   UNL     1     -11.036  13.722  67.392  1.00  0.00    -0.312 C  
ENDROOT
BRANCH   1   3
HETATM    3  C   UNL     1     -10.979  15.073  65.308  1.00  0.00    -0.382 C  
HETATM    4  O   UNL     1     -10.733  16.202  64.913  1.00  0.00    -0.612 OA 
BRANCH   3   5
HETATM    5  O   UNL     1     -11.018  13.946  64.558  1.00  0.00    -0.388 OA 
BRANCH   5   6
HETATM    6  C   UNL     1     -12.276  13.664  63.933  1.00  0.00    -0.374 C  
HETATM    7  C   UNL     1     -12.320  12.180  63.614  1.00  0.00    -0.673 C  
ENDBRANCH   5   6
ENDBRANCH   3   5
ENDBRANCH   1   3
BRANCH   2   8
HETATM    8  C   UNL     1     -11.560  13.354  68.713  1.00  0.00    -0.363 A  
HETATM    9  O   UNL     1     -13.366  12.189  72.266  1.00  0.00    -0.562 OA 
HETATM   10  C   UNL     1     -11.659  11.989  69.033  1.00  0.00    -0.370 A  
HETATM   11  C   UNL     1     -12.258  11.582  70.226  1.00  0.00    -0.332 A  
HETATM   12  C   UNL     1     -12.068  14.309  69.607  1.00  0.00    -0.396 A  
HETATM   13  C   UNL     1     -12.752  12.556  71.100  1.00  0.00    -0.245 A  
HETATM   14  H   UNL     1     -13.702  12.851  72.859  1.00  0.00     0.000 HD 
HETATM   15  C   UNL     1     -12.659  13.910  70.805  1.00  0.00    -0.424 A  
BRANCH  11  16
HETATM   16  O   UNL     1     -12.434  10.286  70.639  1.00  0.00    -0.307 OA 
HETATM   17  C   UNL     1     -11.269   9.596  71.078  1.00  0.00    -0.375 C  
ENDBRANCH  11  16
ENDBRANCH   2   8
TORSDOF 5
ENDMDL
MODEL       29
REMARK 921   NORMALIZED FREE ENERGY PREDICTED BY IDOCK:   -5.02 KCAL/MOL
REMARK 922        TOTAL FREE ENERGY PREDICTED BY IDOCK:   -6.86 KCAL/MOL
REMARK 923 INTER-LIGAND FREE ENERGY PREDICTED BY IDOCK:   -6.48 KCAL/MOL
REMARK 924 INTRA-LIGAND FREE ENERGY PREDICTED BY IDOCK:   -0.38 KCAL/MOL
REMARK 927      BINDING AFFINITY PREDICTED BY RF-SCORE:    0.00 PKD
ROOT
HETATM    1  C   UNL     1     -12.727   9.424  71.905  1.00  0.00    -0.484 C  
HETATM    2  C   UNL     1     -12.148  10.347  71.122  1.00  0.00    -0.487 C  
ENDROOT
BRANCH   1   3
HETATM    3  C   UNL     1     -12.199   8.054  72.075  1.00  0.00    -0.331 C  
HETATM    4  O   UNL     1     -12.405   7.177  71.250  1.00  0.00    -0.344 OA 
BRANCH   3   5
HETATM    5  O   UNL     1     -11.592   7.906  73.276  1.00  0.00    -0.252 OA 
BRANCH   5   6
HETATM    6  C   UNL     1     -10.434   7.062  73.281  1.00  0.00    -0.330 C  
HETATM    7  C   UNL     1      -9.208   7.949  73.411  1.00  0.00    -0.351 C  
ENDBRANCH   5   6
ENDBRANCH   3   5
ENDBRANCH   1   3
BRANCH   2   8
HETATM    8  C   UNL     1     -12.557  11.756  71.045  1.00  0.00    -0.409 A  
HETATM    9  O   UNL     1     -13.351  15.830  70.950  1.00  0.00    -0.669 OA 
HETATM   10  C   UNL     1     -12.028  12.547  70.012  1.00  0.00    -0.372 A  
HETATM   11  C   UNL     1     -12.290  13.917  69.963  1.00  0.00    -0.316 A  
HETATM   12  C   UNL     1     -13.358  12.354  72.030  1.00  0.00    -0.511 A  
HETATM   13  C   UNL     1     -13.094  14.486  70.956  1.00  0.00    -0.366 A  
HETATM   14  H   UNL     1     -13.897  16.216  71.624  1.00  0.00     0.000 HD 
HETATM   15  C   UNL     1     -13.632  13.720  71.981  1.00  0.00    -0.569 A  
BRANCH  11  16
HETATM   16  O   UNL     1     -11.815  14.796  69.024  1.00  0.00    -0.298 OA 
HETATM   17  C   UNL     1     -11.737  14.315  67.686  1.00  0.00    -0.389 C  
ENDBRANCH  11  16
ENDBRANCH   2   8
TORSDOF 5
ENDMDL
MODEL       30
REMARK 921   NORMALIZED FREE ENERGY PREDICTED BY IDOCK:   -5.01 KCAL/MOL
REMARK 922        TOTAL FREE ENERGY PREDICTED BY IDOCK:   -6.84 KCAL/MOL
REMARK 923 INTER-LIGAND FREE ENERGY PREDICTED BY IDOCK:   -6.52 KCAL/MOL
REMARK 924 INTRA-LIGAND FREE ENERGY PREDICTED BY IDOCK:   -0.32 KCAL/MOL
REMARK 927      BINDING AFFINITY PREDICTED BY RF-SCORE:    0.00 PKD
ROOT
HETATM    1  C   UNL     1     -11.408  11.727  68.048  1.00  0.00    -0.355 C  
HETATM    2  C   UNL     1     -10.868  11.019  69.051  1.00  0.00    -0.274 C  
ENDROOT
BRANCH   1   3
HETATM    3  C   UNL     1     -10.676  12.076  66.812  1.00  0.00    -0.243 C  
HETATM    4  O   UNL     1      -9.566  11.628  66.572  1.00  0.00    -0.198 OA 
BRANCH   3   5
HETATM    5  O   UNL     1     -11.343  13.009  66.091  1.00  0.00    -0.295 OA 
BRANCH   5   6
HETATM    6  C   UNL     1     -12.293  12.497  65.148  1.00  0.00    -0.429 C  
HETATM    7  C   UNL     1     -11.651  12.527  63.772  1.00  0.00    -0.552 C  
ENDBRANCH   5   6
ENDBRANCH   3   5
ENDBRANCH   1   3
BRANCH   2   8
HETATM    8  C   UNL     1     -11.607  10.529  70.222  1.00  0.00    -0.417 A  
HETATM    9  O   UNL     1     -13.907   8.925  73.283  1.00  0.00    -1.163 OA 
HETATM   10  C   UNL     1     -11.391   9.204  70.638  1.00  0.00    -0.323 A  
HETATM   11  C   UNL     1     -12.152   8.652  71.670  1.00  0.00    -0.326 A  
HETATM   12  C   UNL     1     -12.596  11.297  70.855  1.00  0.00    -0.467 A  
HETATM   13  C   UNL     1     -13.129   9.443  72.285  1.00  0.00    -0.428 A  
HETATM   14  H   UNL     1     -14.570   9.461  73.701  1.00  0.00     0.000 HD 
HETATM   15  C   UNL     1     -13.353  10.755  71.893  1.00  0.00    -0.445 A  
BRANCH  11  16
HETATM   16  O   UNL     1     -12.053   7.371  72.148  1.00  0.00    -0.288 OA 
HETATM   17  C   UNL     1     -10.978   7.109  73.043  1.00  0.00    -0.317 C  
ENDBRANCH  11  16
ENDBRANCH   2   8
TORSDOF 5
ENDMDL
MODEL       31
REMARK 921   NORMALIZED FREE ENERGY PREDICTED BY IDOCK:   -4.98 KCAL/MOL
REMARK 922        TOTAL FREE ENERGY PREDICTED BY IDOCK:   -6.81 KCAL/MOL
REMARK 923 INTER-LIGAND FREE ENERGY PREDICTED BY IDOCK:   -6.48 KCAL/MOL
REMARK 924 INTRA-LIGAND FREE ENERGY PREDICTED BY IDOCK:   -0.33 KCAL/MOL
REMARK 927      BINDING AFFINITY PREDICTED BY RF-SCORE:    0.00 PKD
ROOT
HETATM    1  C   UNL     1     -10.929  15.798  67.767  1.00  0.00    -0.314 C  
HETATM    2  C   UNL     1     -11.289  16.073  69.030  1.00  0.00    -0.363 C  
ENDROOT
BRANCH   1   3
HETATM    3  C   UNL     1     -10.135  16.719  66.928  1.00  0.00    -0.286 C  
HETATM    4  O   UNL     1      -9.099  16.367  66.385  1.00  0.00    -0.256 OA 
BRANCH   3   5
HETATM    5  O   UNL     1     -10.644  17.974  66.956  1.00  0.00    -0.366 OA 
BRANCH   5   6
HETATM    6  C   UNL     1      -9.962  18.934  66.140  1.00  0.00    -0.356 C  
HETATM    7  C   UNL     1      -9.829  20.219  66.939  1.00  0.00    -0.597 C  
ENDBRANCH   5   6
ENDBRANCH   3   5
ENDBRANCH   1   3
BRANCH   2   8
HETATM    8  C   UNL     1     -11.946  15.124  69.938  1.00  0.00    -0.372 A  
HETATM    9  O   UNL     1     -13.487  12.471  72.736  1.00  0.00    -0.564 OA 
HETATM   10  C   UNL     1     -12.432  15.606  71.166  1.00  0.00    -0.505 A  
HETATM   11  C   UNL     1     -12.958  14.728  72.114  1.00  0.00    -0.336 A  
HETATM   12  C   UNL     1     -11.996  13.748  69.671  1.00  0.00    -0.399 A  
HETATM   13  C   UNL     1     -12.999  13.361  71.819  1.00  0.00    -0.342 A  
HETATM   14  H   UNL     1     -13.514  11.544  72.536  1.00  0.00     0.000 HD 
HETATM   15  C   UNL     1     -12.530  12.866  70.609  1.00  0.00    -0.333 A  
BRANCH  11  16
HETATM   16  O   UNL     1     -13.440  15.071  73.351  1.00  0.00    -0.487 OA 
HETATM   17  C   UNL     1     -12.612  15.917  74.142  1.00  0.00    -0.604 C  
ENDBRANCH  11  16
ENDBRANCH   2   8
TORSDOF 5
ENDMDL
MODEL       32
REMARK 921   NORMALIZED FREE ENERGY PREDICTED BY IDOCK:   -4.98 KCAL/MOL
REMARK 922        TOTAL FREE ENERGY PREDICTED BY IDOCK:   -6.80 KCAL/MOL
REMARK 923 INTER-LIGAND FREE ENERGY PREDICTED BY IDOCK:   -6.46 KCAL/MOL
REMARK 924 INTRA-LIGAND FREE ENERGY PREDICTED BY IDOCK:   -0.34 KCAL/MOL
REMARK 927      BINDING AFFINITY PREDICTED BY RF-SCORE:    0.00 PKD
ROOT
HETATM    1  C   UNL     1     -12.637   9.328  71.805  1.00  0.00    -0.461 C  
HETATM    2  C   UNL     1     -12.055  10.325  71.122  1.00  0.00    -0.494 C  
ENDROOT
BRANCH   1   3
HETATM    3  C   UNL     1     -12.047   7.979  71.938  1.00  0.00    -0.317 C  
HETATM    4  O   UNL     1     -11.407   7.650  72.925  1.00  0.00    -0.369 OA 
BRANCH   3   5
HETATM    5  O   UNL     1     -12.215   7.254  70.806  1.00  0.00    -0.296 OA 
BRANCH   5   6
HETATM    6  C   UNL     1     -11.056   6.544  70.352  1.00  0.00    -0.332 C  
HETATM    7  C   UNL     1     -11.259   6.204  68.886  1.00  0.00    -0.338 C  
ENDBRANCH   5   6
ENDBRANCH   3   5
ENDBRANCH   1   3
BRANCH   2   8
HETATM    8  C   UNL     1     -12.536  11.713  71.094  1.00  0.00    -0.439 A  
HETATM    9  O   UNL     1     -13.543  15.740  71.148  1.00  0.00    -0.591 OA 
HETATM   10  C   UNL     1     -12.025  12.575  70.109  1.00  0.00    -0.377 A  
HETATM   11  C   UNL     1     -12.359  13.930  70.110  1.00  0.00    -0.334 A  
HETATM   12  C   UNL     1     -13.390  12.226  72.083  1.00  0.00    -0.473 A  
HETATM   13  C   UNL     1     -13.215  14.413  71.105  1.00  0.00    -0.350 A  
HETATM   14  H   UNL     1     -14.124  16.068  71.824  1.00  0.00     0.000 HD 
HETATM   15  C   UNL     1     -13.736  13.577  72.083  1.00  0.00    -0.654 A  
BRANCH  11  16
HETATM   16  O   UNL     1     -11.908  14.872  69.221  1.00  0.00    -0.299 OA 
HETATM   17  C   UNL     1     -11.908  14.498  67.848  1.00  0.00    -0.336 C  
ENDBRANCH  11  16
ENDBRANCH   2   8
TORSDOF 5
ENDMDL
MODEL       33
REMARK 921   NORMALIZED FREE ENERGY PREDICTED BY IDOCK:   -4.96 KCAL/MOL
REMARK 922        TOTAL FREE ENERGY PREDICTED BY IDOCK:   -6.78 KCAL/MOL
REMARK 923 INTER-LIGAND FREE ENERGY PREDICTED BY IDOCK:   -6.36 KCAL/MOL
REMARK 924 INTRA-LIGAND FREE ENERGY PREDICTED BY IDOCK:   -0.42 KCAL/MOL
REMARK 927      BINDING AFFINITY PREDICTED BY RF-SCORE:    0.00 PKD
ROOT
HETATM    1  C   UNL     1     -11.416   9.735  70.916  1.00  0.00    -0.447 C  
HETATM    2  C   UNL     1     -12.385  10.423  71.538  1.00  0.00    -0.468 C  
ENDROOT
BRANCH   1   3
HETATM    3  C   UNL     1     -11.193   8.286  71.111  1.00  0.00    -0.258 C  
HETATM    4  O   UNL     1     -10.469   7.640  70.370  1.00  0.00    -0.212 OA 
BRANCH   3   5
HETATM    5  O   UNL     1     -11.969   7.798  72.108  1.00  0.00    -0.299 OA 
BRANCH   5   6
HETATM    6  C   UNL     1     -12.868   6.748  71.731  1.00  0.00    -0.259 C  
HETATM    7  C   UNL     1     -14.232   7.366  71.483  1.00  0.00    -0.571 C  
ENDBRANCH   5   6
ENDBRANCH   3   5
ENDBRANCH   1   3
BRANCH   2   8
HETATM    8  C   UNL     1     -12.729  11.823  71.257  1.00  0.00    -0.420 A  
HETATM    9  O   UNL     1     -13.339  15.873  70.578  1.00  0.00    -0.739 OA 
HETATM   10  C   UNL     1     -12.147  12.440  70.137  1.00  0.00    -0.366 A  
HETATM   11  C   UNL     1     -12.347  13.799  69.892  1.00  0.00    -0.275 A  
HETATM   12  C   UNL     1     -13.519  12.586  72.131  1.00  0.00    -0.523 A  
HETATM   13  C   UNL     1     -13.142  14.534  70.777  1.00  0.00    -0.306 A  
HETATM   14  H   UNL     1     -13.878  16.372  71.180  1.00  0.00     0.000 HD 
HETATM   15  C   UNL     1     -13.732  13.942  71.886  1.00  0.00    -0.521 A  
BRANCH  11  16
HETATM   16  O   UNL     1     -11.817  14.517  68.851  1.00  0.00    -0.310 OA 
HETATM   17  C   UNL     1     -11.965  13.955  67.552  1.00  0.00    -0.386 C  
ENDBRANCH  11  16
ENDBRANCH   2   8
TORSDOF 5
ENDMDL
MODEL       34
REMARK 921   NORMALIZED FREE ENERGY PREDICTED BY IDOCK:   -4.95 KCAL/MOL
REMARK 922        TOTAL FREE ENERGY PREDICTED BY IDOCK:   -6.76 KCAL/MOL
REMARK 923 INTER-LIGAND FREE ENERGY PREDICTED BY IDOCK:   -6.48 KCAL/MOL
REMARK 924 INTRA-LIGAND FREE ENERGY PREDICTED BY IDOCK:   -0.28 KCAL/MOL
REMARK 927      BINDING AFFINITY PREDICTED BY RF-SCORE:    0.00 PKD
ROOT
HETATM    1  C   UNL     1     -11.606  10.725  69.353  1.00  0.00    -0.380 C  
HETATM    2  C   UNL     1     -11.786  11.838  68.625  1.00  0.00    -0.389 C  
ENDROOT
BRANCH   1   3
HETATM    3  C   UNL     1     -12.014  10.604  70.769  1.00  0.00    -0.374 C  
HETATM    4  O   UNL     1     -12.846  11.348  71.266  1.00  0.00    -0.403 OA 
BRANCH   3   5
HETATM    5  O   UNL     1     -11.273   9.674  71.418  1.00  0.00    -0.365 OA 
BRANCH   5   6
HETATM    6  C   UNL     1     -12.018   8.647  72.083  1.00  0.00    -0.379 C  
HETATM    7  C   UNL     1     -11.035   7.767  72.835  1.00  0.00    -0.467 C  
ENDBRANCH   5   6
ENDBRANCH   3   5
ENDBRANCH   1   3
BRANCH   2   8
HETATM    8  C   UNL     1     -11.531  11.944  67.183  1.00  0.00    -0.386 A  
HETATM    9  O   UNL     1     -11.181  12.119  63.050  1.00  0.00    -0.681 OA 
HETATM   10  C   UNL     1     -12.158  12.981  66.471  1.00  0.00    -0.410 A  
HETATM   11  C   UNL     1     -12.044  13.057  65.082  1.00  0.00    -0.433 A  
HETATM   12  C   UNL     1     -10.786  10.982  66.484  1.00  0.00    -0.298 A  
HETATM   13  C   UNL     1     -11.292  12.086  64.413  1.00  0.00    -0.345 A  
HETATM   14  H   UNL     1     -10.670  11.460  62.595  1.00  0.00     0.000 HD 
HETATM   15  C   UNL     1     -10.660  11.058  65.098  1.00  0.00    -0.295 A  
BRANCH  11  16
HETATM   16  O   UNL     1     -12.625  14.002  64.276  1.00  0.00    -0.670 OA 
HETATM   17  C   UNL     1     -12.058  15.307  64.318  1.00  0.00    -0.208 C  
ENDBRANCH  11  16
ENDBRANCH   2   8
TORSDOF 5
ENDMDL
MODEL       35
REMARK 921   NORMALIZED FREE ENERGY PREDICTED BY IDOCK:   -4.94 KCAL/MOL
REMARK 922        TOTAL FREE ENERGY PREDICTED BY IDOCK:   -6.75 KCAL/MOL
REMARK 923 INTER-LIGAND FREE ENERGY PREDICTED BY IDOCK:   -6.44 KCAL/MOL
REMARK 924 INTRA-LIGAND FREE ENERGY PREDICTED BY IDOCK:   -0.32 KCAL/MOL
REMARK 927      BINDING AFFINITY PREDICTED BY RF-SCORE:    0.00 PKD
ROOT
HETATM    1  C   UNL     1     -11.869  12.403  67.936  1.00  0.00    -0.370 C  
HETATM    2  C   UNL     1     -11.811  12.537  69.269  1.00  0.00    -0.360 C  
ENDROOT
BRANCH   1   3
HETATM    3  C   UNL     1     -11.594  13.509  66.995  1.00  0.00    -0.359 C  
HETATM    4  O   UNL     1     -11.743  14.679  67.314  1.00  0.00    -0.381 OA 
BRANCH   3   5
HETATM    5  O   UNL     1     -11.288  13.042  65.761  1.00  0.00    -0.289 OA 
BRANCH   5   6
HETATM    6  C   UNL     1     -12.404  12.616  64.969  1.00  0.00    -0.497 C  
HETATM    7  C   UNL     1     -12.037  12.799  63.506  1.00  0.00    -0.642 C  
ENDBRANCH   5   6
ENDBRANCH   3   5
ENDBRANCH   1   3
BRANCH   2   8
HETATM    8  C   UNL     1     -11.931  11.429  70.227  1.00  0.00    -0.460 A  
HETATM    9  O   UNL     1     -12.445   8.096  72.648  1.00  0.00    -0.577 OA 
HETATM   10  C   UNL     1     -11.118  10.298  70.041  1.00  0.00    -0.373 A  
HETATM   11  C   UNL     1     -11.275   9.172  70.851  1.00  0.00    -0.295 A  
HETATM   12  C   UNL     1     -12.904  11.420  71.238  1.00  0.00    -0.481 A  
HETATM   13  C   UNL     1     -12.250   9.192  71.853  1.00  0.00    -0.379 A  
HETATM   14  H   UNL     1     -13.107   8.109  73.328  1.00  0.00     0.000 HD 
HETATM   15  C   UNL     1     -13.059  10.302  72.057  1.00  0.00    -0.529 A  
BRANCH  11  16
HETATM   16  O   UNL     1     -10.563   8.004  70.754  1.00  0.00    -0.209 OA 
HETATM   17  C   UNL     1     -10.650   7.309  69.515  1.00  0.00    -0.234 C  
ENDBRANCH  11  16
ENDBRANCH   2   8
TORSDOF 5
ENDMDL
MODEL       36
REMARK 921   NORMALIZED FREE ENERGY PREDICTED BY IDOCK:   -4.94 KCAL/MOL
REMARK 922        TOTAL FREE ENERGY PREDICTED BY IDOCK:   -6.75 KCAL/MOL
REMARK 923 INTER-LIGAND FREE ENERGY PREDICTED BY IDOCK:   -6.34 KCAL/MOL
REMARK 924 INTRA-LIGAND FREE ENERGY PREDICTED BY IDOCK:   -0.41 KCAL/MOL
REMARK 927      BINDING AFFINITY PREDICTED BY RF-SCORE:    0.00 PKD
ROOT
HETATM    1  C   UNL     1     -10.907  16.104  69.531  1.00  0.00    -0.329 C  
HETATM    2  C   UNL     1     -11.032  16.710  68.341  1.00  0.00    -0.345 C  
ENDROOT
BRANCH   1   3
HETATM    3  C   UNL     1     -11.619  14.859  69.889  1.00  0.00    -0.289 C  
HETATM    4  O   UNL     1     -12.014  14.075  69.040  1.00  0.00    -0.332 OA 
BRANCH   3   5
HETATM    5  O   UNL     1     -11.857  14.793  71.221  1.00  0.00    -0.322 OA 
BRANCH   5   6
HETATM    6  C   UNL     1     -12.726  15.805  71.743  1.00  0.00    -0.456 C  
HETATM    7  C   UNL     1     -14.133  15.236  71.792  1.00  0.00    -0.654 C  
ENDBRANCH   5   6
ENDBRANCH   3   5
ENDBRANCH   1   3
BRANCH   2   8
HETATM    8  C   UNL     1     -10.230  17.858  67.898  1.00  0.00    -0.375 A  
HETATM    9  O   UNL     1      -7.988  21.239  67.015  1.00  0.00    -0.691 OA 
HETATM   10  C   UNL     1      -8.898  17.948  68.337  1.00  0.00    -0.293 A  
HETATM   11  C   UNL     1      -8.130  19.076  68.043  1.00  0.00    -0.295 A  
HETATM   12  C   UNL     1     -10.785  18.914  67.158  1.00  0.00    -0.506 A  
HETATM   13  C   UNL     1      -8.707  20.111  67.300  1.00  0.00    -0.348 A  
HETATM   14  H   UNL     1      -8.380  21.942  66.511  1.00  0.00     0.000 HD 
HETATM   15  C   UNL     1     -10.019  20.038  66.852  1.00  0.00    -0.584 A  
BRANCH  11  16
HETATM   16  O   UNL     1      -6.833  19.291  68.432  1.00  0.00    -0.256 OA 
HETATM   17  C   UNL     1      -6.616  19.521  69.820  1.00  0.00    -0.264 C  
ENDBRANCH  11  16
ENDBRANCH   2   8
TORSDOF 5
ENDMDL
MODEL       37
REMARK 921   NORMALIZED FREE ENERGY PREDICTED BY IDOCK:   -4.91 KCAL/MOL
REMARK 922        TOTAL FREE ENERGY PREDICTED BY IDOCK:   -6.71 KCAL/MOL
REMARK 923 INTER-LIGAND FREE ENERGY PREDICTED BY IDOCK:   -6.31 KCAL/MOL
REMARK 924 INTRA-LIGAND FREE ENERGY PREDICTED BY IDOCK:   -0.41 KCAL/MOL
REMARK 927      BINDING AFFINITY PREDICTED BY RF-SCORE:    0.00 PKD
ROOT
HETATM    1  C   UNL     1     -12.853  10.397  71.235  1.00  0.00    -0.533 C  
HETATM    2  C   UNL     1     -12.720  11.650  71.696  1.00  0.00    -0.375 C  
ENDROOT
BRANCH   1   3
HETATM    3  C   UNL     1     -13.230   9.252  72.089  1.00  0.00    -0.461 C  
HETATM    4  O   UNL     1     -14.380   9.076  72.462  1.00  0.00    -0.570 OA 
BRANCH   3   5
HETATM    5  O   UNL     1     -12.141   8.541  72.470  1.00  0.00    -0.389 OA 
BRANCH   5   6
HETATM    6  C   UNL     1     -11.266   8.140  71.408  1.00  0.00    -0.254 C  
HETATM    7  C   UNL     1     -11.843   6.888  70.773  1.00  0.00    -0.427 C  
ENDBRANCH   5   6
ENDBRANCH   3   5
ENDBRANCH   1   3
BRANCH   2   8
HETATM    8  C   UNL     1     -12.495  12.832  70.854  1.00  0.00    -0.373 A  
HETATM    9  O   UNL     1     -11.472  16.107  68.515  1.00  0.00    -0.376 OA 
HETATM   10  C   UNL     1     -12.023  12.637  69.545  1.00  0.00    -0.332 A  
HETATM   11  C   UNL     1     -11.680  13.728  68.745  1.00  0.00    -0.356 A  
HETATM   12  C   UNL     1     -12.622  14.138  71.352  1.00  0.00    -0.445 A  
HETATM   13  C   UNL     1     -11.821  15.017  69.266  1.00  0.00    -0.315 A  
HETATM   14  H   UNL     1     -11.567  16.983  68.869  1.00  0.00     0.000 HD 
HETATM   15  C   UNL     1     -12.292  15.233  70.554  1.00  0.00    -0.434 A  
BRANCH  11  16
HETATM   16  O   UNL     1     -11.189  13.666  67.466  1.00  0.00    -0.276 OA 
HETATM   17  C   UNL     1     -12.003  13.004  66.504  1.00  0.00    -0.391 C  
ENDBRANCH  11  16
ENDBRANCH   2   8
TORSDOF 5
ENDMDL
MODEL       38
REMARK 921   NORMALIZED FREE ENERGY PREDICTED BY IDOCK:   -4.90 KCAL/MOL
REMARK 922        TOTAL FREE ENERGY PREDICTED BY IDOCK:   -6.69 KCAL/MOL
REMARK 923 INTER-LIGAND FREE ENERGY PREDICTED BY IDOCK:   -6.36 KCAL/MOL
REMARK 924 INTRA-LIGAND FREE ENERGY PREDICTED BY IDOCK:   -0.34 KCAL/MOL
REMARK 927      BINDING AFFINITY PREDICTED BY RF-SCORE:    0.00 PKD
ROOT
HETATM    1  C   UNL     1     -10.981  15.387  66.941  1.00  0.00    -0.294 C  
HETATM    2  C   UNL     1     -10.970  16.470  67.732  1.00  0.00    -0.252 C  
ENDROOT
BRANCH   1   3
HETATM    3  C   UNL     1     -11.904  14.248  67.132  1.00  0.00    -0.425 C  
HETATM    4  O   UNL     1     -12.057  13.717  68.221  1.00  0.00    -0.362 OA 
BRANCH   3   5
HETATM    5  O   UNL     1     -12.430  13.837  65.953  1.00  0.00    -0.457 OA 
BRANCH   5   6
HETATM    6  C   UNL     1     -11.685  14.202  64.785  1.00  0.00    -0.410 C  
HETATM    7  C   UNL     1     -12.135  13.308  63.643  1.00  0.00    -0.551 C  
ENDBRANCH   5   6
ENDBRANCH   3   5
ENDBRANCH   1   3
BRANCH   2   8
HETATM    8  C   UNL     1     -10.174  17.679  67.485  1.00  0.00    -0.348 A  
HETATM    9  O   UNL     1      -8.092  21.251  67.106  1.00  0.00    -0.655 OA 
HETATM   10  C   UNL     1      -9.105  17.961  68.352  1.00  0.00    -0.292 A  
HETATM   11  C   UNL     1      -8.392  19.154  68.234  1.00  0.00    -0.335 A  
HETATM   12  C   UNL     1     -10.520  18.609  66.493  1.00  0.00    -0.465 A  
HETATM   13  C   UNL     1      -8.756  20.061  67.234  1.00  0.00    -0.343 A  
HETATM   14  H   UNL     1      -8.339  21.867  66.427  1.00  0.00     0.000 HD 
HETATM   15  C   UNL     1      -9.804  19.799  66.363  1.00  0.00    -0.556 A  
BRANCH  11  16
HETATM   16  O   UNL     1      -7.349  19.553  69.030  1.00  0.00    -0.356 OA 
HETATM   17  C   UNL     1      -6.262  18.642  69.155  1.00  0.00    -0.255 C  
ENDBRANCH  11  16
ENDBRANCH   2   8
TORSDOF 5
ENDMDL
MODEL       39
REMARK 921   NORMALIZED FREE ENERGY PREDICTED BY IDOCK:   -4.88 KCAL/MOL
REMARK 922        TOTAL FREE ENERGY PREDICTED BY IDOCK:   -6.67 KCAL/MOL
REMARK 923 INTER-LIGAND FREE ENERGY PREDICTED BY IDOCK:   -6.28 KCAL/MOL
REMARK 924 INTRA-LIGAND FREE ENERGY PREDICTED BY IDOCK:   -0.39 KCAL/MOL
REMARK 927      BINDING AFFINITY PREDICTED BY RF-SCORE:    0.00 PKD
ROOT
HETATM    1  C   UNL     1     -10.622  16.867  68.823  1.00  0.00    -0.355 C  
HETATM    2  C   UNL     1     -11.335  15.753  68.595  1.00  0.00    -0.369 C  
ENDROOT
BRANCH   1   3
HETATM    3  C   UNL     1     -10.119  17.744  67.745  1.00  0.00    -0.345 C  
HETATM    4  O   UNL     1     -10.851  18.518  67.148  1.00  0.00    -0.391 OA 
BRANCH   3   5
HETATM    5  O   UNL     1      -8.820  17.481  67.461  1.00  0.00    -0.226 OA 
BRANCH   5   6
HETATM    6  C   UNL     1      -7.881  17.845  68.481  1.00  0.00    -0.298 C  
HETATM    7  C   UNL     1      -7.670  19.347  68.410  1.00  0.00    -0.363 C  
ENDBRANCH   5   6
ENDBRANCH   3   5
ENDBRANCH   1   3
BRANCH   2   8
HETATM    8  C   UNL     1     -11.975  14.942  69.639  1.00  0.00    -0.360 A  
HETATM    9  O   UNL     1     -13.492  12.756  72.826  1.00  0.00    -0.608 OA 
HETATM   10  C   UNL     1     -12.599  15.606  70.709  1.00  0.00    -0.482 A  
HETATM   11  C   UNL     1     -13.119  14.885  71.785  1.00  0.00    -0.339 A  
HETATM   12  C   UNL     1     -11.881  13.542  69.659  1.00  0.00    -0.398 A  
HETATM   13  C   UNL     1     -13.014  13.490  71.776  1.00  0.00    -0.348 A  
HETATM   14  H   UNL     1     -13.420  11.809  72.821  1.00  0.00     0.000 HD 
HETATM   15  C   UNL     1     -12.407  12.815  70.726  1.00  0.00    -0.375 A  
BRANCH  11  16
HETATM   16  O   UNL     1     -13.727  15.416  72.893  1.00  0.00    -0.499 OA 
HETATM   17  C   UNL     1     -12.876  16.057  73.837  1.00  0.00    -0.528 C  
ENDBRANCH  11  16
ENDBRANCH   2   8
TORSDOF 5
ENDMDL
MODEL       40
REMARK 921   NORMALIZED FREE ENERGY PREDICTED BY IDOCK:   -4.88 KCAL/MOL
REMARK 922        TOTAL FREE ENERGY PREDICTED BY IDOCK:   -6.67 KCAL/MOL
REMARK 923 INTER-LIGAND FREE ENERGY PREDICTED BY IDOCK:   -6.33 KCAL/MOL
REMARK 924 INTRA-LIGAND FREE ENERGY PREDICTED BY IDOCK:   -0.34 KCAL/MOL
REMARK 927      BINDING AFFINITY PREDICTED BY RF-SCORE:    0.00 PKD
ROOT
HETATM    1  C   UNL     1     -10.910  15.901  64.994  1.00  0.00    -0.444 C  
HETATM    2  C   UNL     1     -10.607  16.496  66.157  1.00  0.00    -0.239 C  
ENDROOT
BRANCH   1   3
HETATM    3  C   UNL     1     -11.779  14.709  64.893  1.00  0.00    -0.403 C  
HETATM    4  O   UNL     1     -12.537  14.542  63.950  1.00  0.00    -0.827 OA 
BRANCH   3   5
HETATM    5  O   UNL     1     -11.693  13.941  66.005  1.00  0.00    -0.338 OA 
BRANCH   5   6
HETATM    6  C   UNL     1     -11.796  12.528  65.787  1.00  0.00    -0.437 C  
HETATM    7  C   UNL     1     -10.576  11.868  66.405  1.00  0.00    -0.284 C  
ENDBRANCH   5   6
ENDBRANCH   3   5
ENDBRANCH   1   3
BRANCH   2   8
HETATM    8  C   UNL     1      -9.873  17.763  66.282  1.00  0.00    -0.301 A  
HETATM    9  O   UNL     1      -7.722  21.239  67.005  1.00  0.00    -0.733 OA 
HETATM   10  C   UNL     1      -8.471  17.716  66.350  1.00  0.00    -0.279 A  
HETATM   11  C   UNL     1      -7.733  18.877  66.587  1.00  0.00    -0.248 A  
HETATM   12  C   UNL     1     -10.530  18.991  66.452  1.00  0.00    -0.524 A  
HETATM   13  C   UNL     1      -8.414  20.087  66.749  1.00  0.00    -0.324 A  
HETATM   14  H   UNL     1      -8.184  22.061  67.116  1.00  0.00     0.000 HD 
HETATM   15  C   UNL     1      -9.799  20.156  66.679  1.00  0.00    -0.588 A  
BRANCH  11  16
HETATM   16  O   UNL     1      -6.368  18.956  66.698  1.00  0.00    -0.183 OA 
HETATM   17  C   UNL     1      -5.649  17.736  66.560  1.00  0.00    -0.179 C  
ENDBRANCH  11  16
ENDBRANCH   2   8
TORSDOF 5
ENDMDL
MODEL       41
REMARK 921   NORMALIZED FREE ENERGY PREDICTED BY IDOCK:   -4.85 KCAL/MOL
REMARK 922        TOTAL FREE ENERGY PREDICTED BY IDOCK:   -6.63 KCAL/MOL
REMARK 923 INTER-LIGAND FREE ENERGY PREDICTED BY IDOCK:   -6.24 KCAL/MOL
REMARK 924 INTRA-LIGAND FREE ENERGY PREDICTED BY IDOCK:   -0.39 KCAL/MOL
REMARK 927      BINDING AFFINITY PREDICTED BY RF-SCORE:    0.00 PKD
ROOT
HETATM    1  C   UNL     1     -12.314  13.811  70.580  1.00  0.00    -0.445 C  
HETATM    2  C   UNL     1     -11.762  12.970  69.692  1.00  0.00    -0.364 C  
ENDROOT
BRANCH   1   3
HETATM    3  C   UNL     1     -12.598  15.231  70.287  1.00  0.00    -0.347 C  
HETATM    4  O   UNL     1     -12.024  15.833  69.393  1.00  0.00    -0.370 OA 
BRANCH   3   5
HETATM    5  O   UNL     1     -13.457  15.759  71.191  1.00  0.00    -0.575 OA 
BRANCH   5   6
HETATM    6  C   UNL     1     -13.564  15.045  72.429  1.00  0.00    -0.460 C  
HETATM    7  C   UNL     1     -13.074  15.957  73.540  1.00  0.00    -0.676 C  
ENDBRANCH   5   6
ENDBRANCH   3   5
ENDBRANCH   1   3
BRANCH   2   8
HETATM    8  C   UNL     1     -11.603  11.524  69.897  1.00  0.00    -0.387 A  
HETATM    9  O   UNL     1     -10.955   7.524  70.801  1.00  0.00    -0.242 OA 
HETATM   10  C   UNL     1     -12.332  10.914  70.931  1.00  0.00    -0.501 A  
HETATM   11  C   UNL     1     -12.130   9.569  71.243  1.00  0.00    -0.360 A  
HETATM   12  C   UNL     1     -10.667  10.767  69.174  1.00  0.00    -0.265 A  
HETATM   13  C   UNL     1     -11.194   8.838  70.505  1.00  0.00    -0.247 A  
HETATM   14  H   UNL     1     -10.319   7.028  70.300  1.00  0.00     0.000 HD 
HETATM   15  C   UNL     1     -10.468   9.420  69.475  1.00  0.00    -0.229 A  
BRANCH  11  16
HETATM   16  O   UNL     1     -12.760   8.869  72.241  1.00  0.00    -0.376 OA 
HETATM   17  C   UNL     1     -14.181   8.939  72.264  1.00  0.00    -0.397 C  
ENDBRANCH  11  16
ENDBRANCH   2   8
TORSDOF 5
ENDMDL
MODEL       42
REMARK 921   NORMALIZED FREE ENERGY PREDICTED BY IDOCK:   -4.84 KCAL/MOL
REMARK 922        TOTAL FREE ENERGY PREDICTED BY IDOCK:   -6.61 KCAL/MOL
REMARK 923 INTER-LIGAND FREE ENERGY PREDICTED BY IDOCK:   -6.29 KCAL/MOL
REMARK 924 INTRA-LIGAND FREE ENERGY PREDICTED BY IDOCK:   -0.32 KCAL/MOL
REMARK 927      BINDING AFFINITY PREDICTED BY RF-SCORE:    0.00 PKD
ROOT
HETATM    1  C   UNL     1     -11.539  11.972  66.851  1.00  0.00    -0.389 C  
HETATM    2  C   UNL     1     -11.029  12.367  68.028  1.00  0.00    -0.262 C  
ENDROOT
BRANCH   1   3
HETATM    3  C   UNL     1     -10.708  11.657  65.670  1.00  0.00    -0.278 C  
HETATM    4  O   UNL     1     -10.370  10.514  65.405  1.00  0.00    -0.278 OA 
BRANCH   3   5
HETATM    5  O   UNL     1     -10.305  12.784  65.036  1.00  0.00    -0.293 OA 
BRANCH   5   6
HETATM    6  C   UNL     1     -11.357  13.647  64.585  1.00  0.00    -0.366 C  
HETATM    7  C   UNL     1     -12.120  12.923  63.491  1.00  0.00    -0.633 C  
ENDBRANCH   5   6
ENDBRANCH   3   5
ENDBRANCH   1   3
BRANCH   2   8
HETATM    8  C   UNL     1     -11.809  12.543  69.260  1.00  0.00    -0.360 A  
HETATM    9  O   UNL     1     -13.679  13.152  72.917  1.00  0.00    -0.648 OA 
HETATM   10  C   UNL     1     -12.055  13.852  69.711  1.00  0.00    -0.404 A  
HETATM   11  C   UNL     1     -12.688  14.072  70.935  1.00  0.00    -0.350 A  
HETATM   12  C   UNL     1     -12.208  11.456  70.052  1.00  0.00    -0.377 A  
HETATM   13  C   UNL     1     -13.078  12.970  71.702  1.00  0.00    -0.347 A  
HETATM   14  H   UNL     1     -13.943  12.404  73.438  1.00  0.00     0.000 HD 
HETATM   15  C   UNL     1     -12.850  11.670  71.271  1.00  0.00    -0.430 A  
BRANCH  11  16
HETATM   16  O   UNL     1     -12.961  15.295  71.492  1.00  0.00    -0.346 OA 
HETATM   17  C   UNL     1     -11.858  15.997  72.055  1.00  0.00    -0.533 C  
ENDBRANCH  11  16
ENDBRANCH   2   8
TORSDOF 5
ENDMDL
MODEL       43
REMARK 921   NORMALIZED FREE ENERGY PREDICTED BY IDOCK:   -4.82 KCAL/MOL
REMARK 922        TOTAL FREE ENERGY PREDICTED BY IDOCK:   -6.59 KCAL/MOL
REMARK 923 INTER-LIGAND FREE ENERGY PREDICTED BY IDOCK:   -6.28 KCAL/MOL
REMARK 924 INTRA-LIGAND FREE ENERGY PREDICTED BY IDOCK:   -0.30 KCAL/MOL
REMARK 927      BINDING AFFINITY PREDICTED BY RF-SCORE:    0.00 PKD
ROOT
HETATM    1  C   UNL     1     -11.898  12.491  67.424  1.00  0.00    -0.381 C  
HETATM    2  C   UNL     1     -11.901  12.484  68.766  1.00  0.00    -0.347 C  
ENDROOT
BRANCH   1   3
HETATM    3  C   UNL     1     -12.031  13.722  66.617  1.00  0.00    -0.431 C  
HETATM    4  O   UNL     1     -11.767  14.824  67.073  1.00  0.00    -0.368 OA 
BRANCH   3   5
HETATM    5  O   UNL     1     -12.576  13.460  65.405  1.00  0.00    -0.473 OA 
BRANCH   5   6
HETATM    6  C   UNL     1     -11.677  12.917  64.430  1.00  0.00    -0.372 C  
HETATM    7  C   UNL     1     -12.470  11.987  63.529  1.00  0.00    -0.654 C  
ENDBRANCH   5   6
ENDBRANCH   3   5
ENDBRANCH   1   3
BRANCH   2   8
HETATM    8  C   UNL     1     -11.622  11.306  69.597  1.00  0.00    -0.401 A  
HETATM    9  O   UNL     1     -10.776   8.222  72.244  1.00  0.00    -0.279 OA 
HETATM   10  C   UNL     1     -12.571  10.935  70.565  1.00  0.00    -0.409 A  
HETATM   11  C   UNL     1     -12.303   9.896  71.458  1.00  0.00    -0.412 A  
HETATM   12  C   UNL     1     -10.400  10.620  69.532  1.00  0.00    -0.214 A  
HETATM   13  C   UNL     1     -11.078   9.228  71.369  1.00  0.00    -0.367 A  
HETATM   14  H   UNL     1      -9.944   7.768  72.184  1.00  0.00     0.000 HD 
HETATM   15  C   UNL     1     -10.131   9.574  70.415  1.00  0.00    -0.329 A  
BRANCH  11  16
HETATM   16  O   UNL     1     -13.134   9.459  72.458  1.00  0.00    -0.404 OA 
HETATM   17  C   UNL     1     -14.206   8.609  72.066  1.00  0.00    -0.443 C  
ENDBRANCH  11  16
ENDBRANCH   2   8
TORSDOF 5
ENDMDL
MODEL       44
REMARK 921   NORMALIZED FREE ENERGY PREDICTED BY IDOCK:   -4.80 KCAL/MOL
REMARK 922        TOTAL FREE ENERGY PREDICTED BY IDOCK:   -6.57 KCAL/MOL
REMARK 923 INTER-LIGAND FREE ENERGY PREDICTED BY IDOCK:   -6.22 KCAL/MOL
REMARK 924 INTRA-LIGAND FREE ENERGY PREDICTED BY IDOCK:   -0.35 KCAL/MOL
REMARK 927      BINDING AFFINITY PREDICTED BY RF-SCORE:    0.00 PKD
ROOT
HETATM    1  C   UNL     1     -11.659  12.316  66.742  1.00  0.00    -0.434 C  
HETATM    2  C   UNL     1     -11.211  13.016  67.795  1.00  0.00    -0.313 C  
ENDROOT
BRANCH   1   3
HETATM    3  C   UNL     1     -10.977  12.292  65.431  1.00  0.00    -0.301 C  
HETATM    4  O   UNL     1     -10.858  11.263  64.785  1.00  0.00    -0.302 OA 
BRANCH   3   5
HETATM    5  O   UNL     1     -10.430  13.496  65.138  1.00  0.00    -0.327 OA 
BRANCH   5   6
HETATM    6  C   UNL     1     -11.331  14.462  64.581  1.00  0.00    -0.371 C  
HETATM    7  C   UNL     1     -10.855  15.842  65.000  1.00  0.00    -0.444 C  
ENDBRANCH   5   6
ENDBRANCH   3   5
ENDBRANCH   1   3
BRANCH   2   8
HETATM    8  C   UNL     1     -11.777  12.945  69.149  1.00  0.00    -0.376 A  
HETATM    9  O   UNL     1     -13.703  12.603  72.811  1.00  0.00    -0.680 OA 
HETATM   10  C   UNL     1     -11.947  11.679  69.734  1.00  0.00    -0.402 A  
HETATM   11  C   UNL     1     -12.587  11.548  70.967  1.00  0.00    -0.357 A  
HETATM   12  C   UNL     1     -12.256  14.083  69.817  1.00  0.00    -0.396 A  
HETATM   13  C   UNL     1     -13.051  12.699  71.612  1.00  0.00    -0.323 A  
HETATM   14  H   UNL     1     -14.019  13.384  73.249  1.00  0.00     0.000 HD 
HETATM   15  C   UNL     1     -12.887  13.960  71.054  1.00  0.00    -0.394 A  
BRANCH  11  16
HETATM   16  O   UNL     1     -12.833  10.371  71.627  1.00  0.00    -0.404 OA 
HETATM   17  C   UNL     1     -11.784   9.409  71.620  1.00  0.00    -0.398 C  
ENDBRANCH  11  16
ENDBRANCH   2   8
TORSDOF 5
ENDMDL
MODEL       45
REMARK 921   NORMALIZED FREE ENERGY PREDICTED BY IDOCK:   -4.80 KCAL/MOL
REMARK 922        TOTAL FREE ENERGY PREDICTED BY IDOCK:   -6.57 KCAL/MOL
REMARK 923 INTER-LIGAND FREE ENERGY PREDICTED BY IDOCK:   -6.30 KCAL/MOL
REMARK 924 INTRA-LIGAND FREE ENERGY PREDICTED BY IDOCK:   -0.27 KCAL/MOL
REMARK 927      BINDING AFFINITY PREDICTED BY RF-SCORE:    0.00 PKD
ROOT
HETATM    1  C   UNL     1     -12.491  13.953  69.921  1.00  0.00    -0.285 C  
HETATM    2  C   UNL     1     -11.868  12.971  69.252  1.00  0.00    -0.370 C  
ENDROOT
BRANCH   1   3
HETATM    3  C   UNL     1     -12.706  13.931  71.383  1.00  0.00    -0.365 C  
HETATM    4  O   UNL     1     -13.632  13.316  71.889  1.00  0.00    -0.421 OA 
BRANCH   3   5
HETATM    5  O   UNL     1     -11.838  14.752  72.021  1.00  0.00    -0.339 OA 
BRANCH   5   6
HETATM    6  C   UNL     1     -12.424  15.894  72.657  1.00  0.00    -0.477 C  
HETATM    7  C   UNL     1     -12.462  15.630  74.152  1.00  0.00    -0.804 C  
ENDBRANCH   5   6
ENDBRANCH   3   5
ENDBRANCH   1   3
BRANCH   2   8
HETATM    8  C   UNL     1     -11.506  13.027  67.829  1.00  0.00    -0.359 A  
HETATM    9  O   UNL     1     -10.132  13.322  63.923  1.00  0.00    -0.754 OA 
HETATM   10  C   UNL     1     -10.579  12.090  67.341  1.00  0.00    -0.253 A  
HETATM   11  C   UNL     1     -10.112  12.173  66.028  1.00  0.00    -0.235 A  
HETATM   12  C   UNL     1     -11.963  14.049  66.983  1.00  0.00    -0.472 A  
HETATM   13  C   UNL     1     -10.587  13.199  65.207  1.00  0.00    -0.313 A  
HETATM   14  H   UNL     1     -10.454  14.019  63.364  1.00  0.00     0.000 HD 
HETATM   15  C   UNL     1     -11.508  14.131  65.667  1.00  0.00    -0.325 A  
BRANCH  11  16
HETATM   16  O   UNL     1      -9.195  11.337  65.445  1.00  0.00    -0.212 OA 
HETATM   17  C   UNL     1      -9.683  10.081  64.986  1.00  0.00    -0.317 C  
ENDBRANCH  11  16
ENDBRANCH   2   8
TORSDOF 5
ENDMDL
MODEL       46
REMARK 921   NORMALIZED FREE ENERGY PREDICTED BY IDOCK:   -4.79 KCAL/MOL
REMARK 922        TOTAL FREE ENERGY PREDICTED BY IDOCK:   -6.56 KCAL/MOL
REMARK 923 INTER-LIGAND FREE ENERGY PREDICTED BY IDOCK:   -6.20 KCAL/MOL
REMARK 924 INTRA-LIGAND FREE ENERGY PREDICTED BY IDOCK:   -0.36 KCAL/MOL
REMARK 927      BINDING AFFINITY PREDICTED BY RF-SCORE:    0.00 PKD
ROOT
HETATM    1  C   UNL     1     -11.812  12.559  68.154  1.00  0.00    -0.371 C  
HETATM    2  C   UNL     1     -11.167  11.614  68.854  1.00  0.00    -0.306 C  
ENDROOT
BRANCH   1   3
HETATM    3  C   UNL     1     -11.312  13.108  66.876  1.00  0.00    -0.318 C  
HETATM    4  O   UNL     1     -10.496  12.510  66.192  1.00  0.00    -0.242 OA 
BRANCH   3   5
HETATM    5  O   UNL     1     -11.782  14.360  66.660  1.00  0.00    -0.371 OA 
BRANCH   5   6
HETATM    6  C   UNL     1     -10.832  15.416  66.848  1.00  0.00    -0.313 C  
HETATM    7  C   UNL     1     -11.239  16.197  68.085  1.00  0.00    -0.311 C  
ENDBRANCH   5   6
ENDBRANCH   3   5
ENDBRANCH   1   3
BRANCH   2   8
HETATM    8  C   UNL     1     -11.704  10.941  70.044  1.00  0.00    -0.427 A  
HETATM    9  O   UNL     1     -13.452   8.833  73.165  1.00  0.00    -0.953 OA 
HETATM   10  C   UNL     1     -11.347   9.601  70.269  1.00  0.00    -0.311 A  
HETATM   11  C   UNL     1     -11.921   8.880  71.318  1.00  0.00    -0.307 A  
HETATM   12  C   UNL     1     -12.645  11.554  70.886  1.00  0.00    -0.438 A  
HETATM   13  C   UNL     1     -12.853   9.518  72.143  1.00  0.00    -0.389 A  
HETATM   14  H   UNL     1     -14.085   9.265  73.725  1.00  0.00     0.000 HD 
HETATM   15  C   UNL     1     -13.215  10.843  71.942  1.00  0.00    -0.508 A  
BRANCH  11  16
HETATM   16  O   UNL     1     -11.673   7.567  71.624  1.00  0.00    -0.265 OA 
HETATM   17  C   UNL     1     -11.879   6.622  70.580  1.00  0.00    -0.370 C  
ENDBRANCH  11  16
ENDBRANCH   2   8
TORSDOF 5
ENDMDL
MODEL       47
REMARK 921   NORMALIZED FREE ENERGY PREDICTED BY IDOCK:   -4.78 KCAL/MOL
REMARK 922        TOTAL FREE ENERGY PREDICTED BY IDOCK:   -6.55 KCAL/MOL
REMARK 923 INTER-LIGAND FREE ENERGY PREDICTED BY IDOCK:   -6.13 KCAL/MOL
REMARK 924 INTRA-LIGAND FREE ENERGY PREDICTED BY IDOCK:   -0.42 KCAL/MOL
REMARK 927      BINDING AFFINITY PREDICTED BY RF-SCORE:    0.00 PKD
ROOT
HETATM    1  C   UNL     1     -12.373  12.981  70.682  1.00  0.00    -0.391 C  
HETATM    2  C   UNL     1     -11.929  11.797  70.233  1.00  0.00    -0.429 C  
ENDROOT
BRANCH   1   3
HETATM    3  C   UNL     1     -12.180  14.252  69.952  1.00  0.00    -0.352 C  
HETATM    4  O   UNL     1     -12.778  15.271  70.263  1.00  0.00    -0.366 OA 
BRANCH   3   5
HETATM    5  O   UNL     1     -11.376  14.085  68.875  1.00  0.00    -0.248 OA 
BRANCH   5   6
HETATM    6  C   UNL     1     -11.962  14.418  67.611  1.00  0.00    -0.343 C  
HETATM    7  C   UNL     1     -11.623  13.309  66.631  1.00  0.00    -0.408 C  
ENDBRANCH   5   6
ENDBRANCH   3   5
ENDBRANCH   1   3
BRANCH   2   8
HETATM    8  C   UNL     1     -12.231  10.500  70.853  1.00  0.00    -0.490 A  
HETATM    9  O   UNL     1     -13.208   6.716  72.253  1.00  0.00    -0.545 OA 
HETATM   10  C   UNL     1     -11.411   9.404  70.535  1.00  0.00    -0.317 A  
HETATM   11  C   UNL     1     -11.723   8.127  71.003  1.00  0.00    -0.274 A  
HETATM   12  C   UNL     1     -13.369  10.302  71.649  1.00  0.00    -0.451 A  
HETATM   13  C   UNL     1     -12.862   7.959  71.798  1.00  0.00    -0.328 A  
HETATM   14  H   UNL     1     -13.981   6.602  72.792  1.00  0.00     0.000 HD 
HETATM   15  C   UNL     1     -13.681   9.030  72.128  1.00  0.00    -0.536 A  
BRANCH  11  16
HETATM   16  O   UNL     1     -11.019   6.979  70.744  1.00  0.00    -0.239 OA 
HETATM   17  C   UNL     1     -11.219   6.387  69.466  1.00  0.00    -0.412 C  
ENDBRANCH  11  16
ENDBRANCH   2   8
TORSDOF 5
ENDMDL
MODEL       48
REMARK 921   NORMALIZED FREE ENERGY PREDICTED BY IDOCK:   -4.77 KCAL/MOL
REMARK 922        TOTAL FREE ENERGY PREDICTED BY IDOCK:   -6.52 KCAL/MOL
REMARK 923 INTER-LIGAND FREE ENERGY PREDICTED BY IDOCK:   -6.21 KCAL/MOL
REMARK 924 INTRA-LIGAND FREE ENERGY PREDICTED BY IDOCK:   -0.31 KCAL/MOL
REMARK 927      BINDING AFFINITY PREDICTED BY RF-SCORE:    0.00 PKD
ROOT
HETATM    1  C   UNL     1     -11.289  10.995  69.232  1.00  0.00    -0.350 C  
HETATM    2  C   UNL     1     -11.864  12.190  69.026  1.00  0.00    -0.361 C  
ENDROOT
BRANCH   1   3
HETATM    3  C   UNL     1     -11.606  10.128  70.386  1.00  0.00    -0.316 C  
HETATM    4  O   UNL     1     -10.789   9.347  70.850  1.00  0.00    -0.267 OA 
BRANCH   3   5
HETATM    5  O   UNL     1     -12.907  10.243  70.747  1.00  0.00    -0.353 OA 
BRANCH   5   6
HETATM    6  C   UNL     1     -13.229   9.752  72.054  1.00  0.00    -0.460 C  
HETATM    7  C   UNL     1     -14.009   8.459  71.890  1.00  0.00    -0.483 C  
ENDBRANCH   5   6
ENDBRANCH   3   5
ENDBRANCH   1   3
BRANCH   2   8
HETATM    8  C   UNL     1     -11.686  13.008  67.819  1.00  0.00    -0.405 A  
HETATM    9  O   UNL     1     -10.809  15.195  64.401  1.00  0.00    -0.631 OA 
HETATM   10  C   UNL     1     -11.551  12.351  66.584  1.00  0.00    -0.447 A  
HETATM   11  C   UNL     1     -11.262  13.073  65.425  1.00  0.00    -0.289 A  
HETATM   12  C   UNL     1     -11.530  14.401  67.879  1.00  0.00    -0.346 A  
HETATM   13  C   UNL     1     -11.115  14.461  65.514  1.00  0.00    -0.326 A  
HETATM   14  H   UNL     1     -10.709  16.137  64.461  1.00  0.00     0.000 HD 
HETATM   15  C   UNL     1     -11.251  15.129  66.723  1.00  0.00    -0.285 A  
BRANCH  11  16
HETATM   16  O   UNL     1     -11.084  12.547  64.171  1.00  0.00    -0.324 OA 
HETATM   17  C   UNL     1     -12.265  12.202  63.455  1.00  0.00    -0.567 C  
ENDBRANCH  11  16
ENDBRANCH   2   8
TORSDOF 5
ENDMDL
MODEL       49
REMARK 921   NORMALIZED FREE ENERGY PREDICTED BY IDOCK:   -4.76 KCAL/MOL
REMARK 922        TOTAL FREE ENERGY PREDICTED BY IDOCK:   -6.52 KCAL/MOL
REMARK 923 INTER-LIGAND FREE ENERGY PREDICTED BY IDOCK:   -6.16 KCAL/MOL
REMARK 924 INTRA-LIGAND FREE ENERGY PREDICTED BY IDOCK:   -0.36 KCAL/MOL
REMARK 927      BINDING AFFINITY PREDICTED BY RF-SCORE:    0.00 PKD
ROOT
HETATM    1  C   UNL     1     -12.771  13.601  71.102  1.00  0.00    -0.432 C  
HETATM    2  C   UNL     1     -12.174  13.664  69.902  1.00  0.00    -0.367 C  
ENDROOT
BRANCH   1   3
HETATM    3  C   UNL     1     -13.421  14.760  71.749  1.00  0.00    -0.380 C  
HETATM    4  O   UNL     1     -13.761  15.746  71.114  1.00  0.00    -0.560 OA 
BRANCH   3   5
HETATM    5  O   UNL     1     -13.464  14.614  73.095  1.00  0.00    -0.581 OA 
BRANCH   5   6
HETATM    6  C   UNL     1     -12.250  14.931  73.788  1.00  0.00    -0.422 C  
HETATM    7  C   UNL     1     -12.421  16.296  74.431  1.00  0.00    -0.597 C  
ENDBRANCH   5   6
ENDBRANCH   3   5
ENDBRANCH   1   3
BRANCH   2   8
HETATM    8  C   UNL     1     -11.652  12.505  69.166  1.00  0.00    -0.375 A  
HETATM    9  O   UNL     1     -10.535   9.191  66.929  1.00  0.00    -0.253 OA 
HETATM   10  C   UNL     1     -11.459  12.630  67.779  1.00  0.00    -0.375 A  
HETATM   11  C   UNL     1     -11.078  11.526  67.015  1.00  0.00    -0.307 A  
HETATM   12  C   UNL     1     -11.455  11.259  69.779  1.00  0.00    -0.386 A  
HETATM   13  C   UNL     1     -10.886  10.297  67.653  1.00  0.00    -0.307 A  
HETATM   14  H   UNL     1     -10.405   8.356  67.362  1.00  0.00     0.000 HD 
HETATM   15  C   UNL     1     -11.065  10.154  69.023  1.00  0.00    -0.249 A  
BRANCH  11  16
HETATM   16  O   UNL     1     -10.882  11.515  65.657  1.00  0.00    -0.276 OA 
HETATM   17  C   UNL     1     -10.318  12.691  65.088  1.00  0.00    -0.292 C  
ENDBRANCH  11  16
ENDBRANCH   2   8
TORSDOF 5
ENDMDL
MODEL       50
REMARK 921   NORMALIZED FREE ENERGY PREDICTED BY IDOCK:   -4.75 KCAL/MOL
REMARK 922        TOTAL FREE ENERGY PREDICTED BY IDOCK:   -6.51 KCAL/MOL
REMARK 923 INTER-LIGAND FREE ENERGY PREDICTED BY IDOCK:   -6.06 KCAL/MOL
REMARK 924 INTRA-LIGAND FREE ENERGY PREDICTED BY IDOCK:   -0.45 KCAL/MOL
REMARK 927      BINDING AFFINITY PREDICTED BY RF-SCORE:    0.00 PKD
ROOT
HETATM    1  C   UNL     1      -9.689  16.087  66.771  1.00  0.00    -0.253 C  
HETATM    2  C   UNL     1     -10.899  15.647  66.393  1.00  0.00    -0.252 C  
ENDROOT
BRANCH   1   3
HETATM    3  C   UNL     1      -9.490  17.199  67.723  1.00  0.00    -0.253 C  
HETATM    4  O   UNL     1      -8.484  17.288  68.410  1.00  0.00    -0.238 OA 
BRANCH   3   5
HETATM    5  O   UNL     1     -10.588  17.990  67.796  1.00  0.00    -0.401 OA 
BRANCH   5   6
HETATM    6  C   UNL     1     -10.351  19.391  67.610  1.00  0.00    -0.437 C  
HETATM    7  C   UNL     1     -10.400  19.681  66.120  1.00  0.00    -0.627 C  
ENDBRANCH   5   6
ENDBRANCH   3   5
ENDBRANCH   1   3
BRANCH   2   8
HETATM    8  C   UNL     1     -11.136  14.454  65.569  1.00  0.00    -0.326 A  
HETATM    9  O   UNL     1     -11.475  11.171  63.051  1.00  0.00    -0.812 OA 
HETATM   10  C   UNL     1     -10.301  13.340  65.757  1.00  0.00    -0.290 A  
HETATM   11  C   UNL     1     -10.407  12.226  64.922  1.00  0.00    -0.290 A  
HETATM   12  C   UNL     1     -12.083  14.439  64.534  1.00  0.00    -0.498 A  
HETATM   13  C   UNL     1     -11.362  12.237  63.901  1.00  0.00    -0.429 A  
HETATM   14  H   UNL     1     -12.123  11.178  62.357  1.00  0.00     0.000 HD 
HETATM   15  C   UNL     1     -12.201  13.325  63.703  1.00  0.00    -0.522 A  
BRANCH  11  16
HETATM   16  O   UNL     1      -9.637  11.093  64.988  1.00  0.00    -0.222 OA 
HETATM   17  C   UNL     1      -9.773  10.302  66.164  1.00  0.00    -0.211 C  
ENDBRANCH  11  16
ENDBRANCH   2   8
TORSDOF 5
ENDMDL
MODEL       51
REMARK 921   NORMALIZED FREE ENERGY PREDICTED BY IDOCK:   -4.75 KCAL/MOL
REMARK 922        TOTAL FREE ENERGY PREDICTED BY IDOCK:   -6.51 KCAL/MOL
REMARK 923 INTER-LIGAND FREE ENERGY PREDICTED BY IDOCK:   -6.22 KCAL/MOL
REMARK 924 INTRA-LIGAND FREE ENERGY PREDICTED BY IDOCK:   -0.28 KCAL/MOL
REMARK 927      BINDING AFFINITY PREDICTED BY RF-SCORE:    0.00 PKD
ROOT
HETATM    1  C   UNL     1     -11.198   9.666  71.237  1.00  0.00    -0.446 C  
HETATM    2  C   UNL     1     -12.198  10.549  71.089  1.00  0.00    -0.496 C  
ENDROOT
BRANCH   1   3
HETATM    3  C   UNL     1     -11.399   8.282  71.714  1.00  0.00    -0.288 C  
HETATM    4  O   UNL     1     -12.146   8.023  72.645  1.00  0.00    -0.328 OA 
BRANCH   3   5
HETATM    5  O   UNL     1     -10.580   7.415  71.071  1.00  0.00    -0.222 OA 
BRANCH   5   6
HETATM    6  C   UNL     1     -11.108   6.096  70.880  1.00  0.00    -0.307 C  
HETATM    7  C   UNL     1     -10.703   5.627  69.493  1.00  0.00    -0.380 C  
ENDBRANCH   5   6
ENDBRANCH   3   5
ENDBRANCH   1   3
BRANCH   2   8
HETATM    8  C   UNL     1     -12.057  11.878  70.479  1.00  0.00    -0.422 A  
HETATM    9  O   UNL     1     -12.041  15.612  68.664  1.00  0.00    -0.547 OA 
HETATM   10  C   UNL     1     -12.642  12.975  71.133  1.00  0.00    -0.388 A  
HETATM   11  C   UNL     1     -12.639  14.238  70.538  1.00  0.00    -0.353 A  
HETATM   12  C   UNL     1     -11.466  12.061  69.219  1.00  0.00    -0.361 A  
HETATM   13  C   UNL     1     -12.040  14.392  69.284  1.00  0.00    -0.299 A  
HETATM   14  H   UNL     1     -11.634  15.717  67.813  1.00  0.00     0.000 HD 
HETATM   15  C   UNL     1     -11.451  13.322  68.625  1.00  0.00    -0.339 A  
BRANCH  11  16
HETATM   16  O   UNL     1     -13.195  15.377  71.062  1.00  0.00    -0.471 OA 
HETATM   17  C   UNL     1     -14.193  15.194  72.061  1.00  0.00    -0.577 C  
ENDBRANCH  11  16
ENDBRANCH   2   8
TORSDOF 5
ENDMDL
MODEL       52
REMARK 921   NORMALIZED FREE ENERGY PREDICTED BY IDOCK:   -4.73 KCAL/MOL
REMARK 922        TOTAL FREE ENERGY PREDICTED BY IDOCK:   -6.48 KCAL/MOL
REMARK 923 INTER-LIGAND FREE ENERGY PREDICTED BY IDOCK:   -6.12 KCAL/MOL
REMARK 924 INTRA-LIGAND FREE ENERGY PREDICTED BY IDOCK:   -0.37 KCAL/MOL
REMARK 927      BINDING AFFINITY PREDICTED BY RF-SCORE:    0.00 PKD
ROOT
HETATM    1  C   UNL     1     -11.064  14.981  67.017  1.00  0.00    -0.334 C  
HETATM    2  C   UNL     1     -11.220  13.741  67.505  1.00  0.00    -0.316 C  
ENDROOT
BRANCH   1   3
HETATM    3  C   UNL     1     -10.595  15.261  65.643  1.00  0.00    -0.362 C  
HETATM    4  O   UNL     1     -10.713  14.444  64.743  1.00  0.00    -0.408 OA 
BRANCH   3   5
HETATM    5  O   UNL     1      -9.945  16.447  65.576  1.00  0.00    -0.518 OA 
BRANCH   5   6
HETATM    6  C   UNL     1     -10.120  17.310  66.707  1.00  0.00    -0.302 C  
HETATM    7  C   UNL     1     -10.310  18.725  66.191  1.00  0.00    -0.494 C  
ENDBRANCH   5   6
ENDBRANCH   3   5
ENDBRANCH   1   3
BRANCH   2   8
HETATM    8  C   UNL     1     -11.822  13.425  68.807  1.00  0.00    -0.386 A  
HETATM    9  O   UNL     1     -13.209  12.692  72.651  1.00  0.00    -0.454 OA 
HETATM   10  C   UNL     1     -12.326  14.483  69.582  1.00  0.00    -0.284 A  
HETATM   11  C   UNL     1     -12.801  14.252  70.874  1.00  0.00    -0.347 A  
HETATM   12  C   UNL     1     -11.803  12.127  69.342  1.00  0.00    -0.370 A  
HETATM   13  C   UNL     1     -12.773  12.948  71.380  1.00  0.00    -0.270 A  
HETATM   14  H   UNL     1     -13.189  11.808  72.995  1.00  0.00     0.000 HD 
HETATM   15  C   UNL     1     -12.285  11.888  70.628  1.00  0.00    -0.424 A  
BRANCH  11  16
HETATM   16  O   UNL     1     -13.293  15.200  71.734  1.00  0.00    -0.349 OA 
HETATM   17  C   UNL     1     -12.334  16.031  72.378  1.00  0.00    -0.497 C  
ENDBRANCH  11  16
ENDBRANCH   2   8
TORSDOF 5
ENDMDL
MODEL       53
REMARK 921   NORMALIZED FREE ENERGY PREDICTED BY IDOCK:   -4.73 KCAL/MOL
REMARK 922        TOTAL FREE ENERGY PREDICTED BY IDOCK:   -6.47 KCAL/MOL
REMARK 923 INTER-LIGAND FREE ENERGY PREDICTED BY IDOCK:   -6.02 KCAL/MOL
REMARK 924 INTRA-LIGAND FREE ENERGY PREDICTED BY IDOCK:   -0.45 KCAL/MOL
REMARK 927      BINDING AFFINITY PREDICTED BY RF-SCORE:    0.00 PKD
ROOT
HETATM    1  C   UNL     1     -10.900  15.008  65.682  1.00  0.00    -0.356 C  
HETATM    2  C   UNL     1     -10.935  14.720  66.992  1.00  0.00    -0.324 C  
ENDROOT
BRANCH   1   3
HETATM    3  C   UNL     1     -10.767  16.382  65.154  1.00  0.00    -0.291 C  
HETATM    4  O   UNL     1     -11.330  16.737  64.130  1.00  0.00    -1.194 OA 
BRANCH   3   5
HETATM    5  O   UNL     1      -9.878  17.104  65.878  1.00  0.00    -0.486 OA 
BRANCH   5   6
HETATM    6  C   UNL     1     -10.224  18.479  66.083  1.00  0.00    -0.398 C  
HETATM    7  C   UNL     1     -10.798  18.615  67.483  1.00  0.00    -0.373 C  
ENDBRANCH   5   6
ENDBRANCH   3   5
ENDBRANCH   1   3
BRANCH   2   8
HETATM    8  C   UNL     1     -10.916  13.362  67.551  1.00  0.00    -0.284 A  
HETATM    9  O   UNL     1     -11.065   9.410  68.815  1.00  0.00    -0.436 OA 
HETATM   10  C   UNL     1     -10.106  12.397  66.928  1.00  0.00    -0.230 A  
HETATM   11  C   UNL     1     -10.141  11.066  67.345  1.00  0.00    -0.186 A  
HETATM   12  C   UNL     1     -11.761  12.976  68.603  1.00  0.00    -0.359 A  
HETATM   13  C   UNL     1     -10.990  10.711  68.398  1.00  0.00    -0.251 A  
HETATM   14  H   UNL     1     -11.642   9.169  69.530  1.00  0.00     0.000 HD 
HETATM   15  C   UNL     1     -11.793  11.650  69.031  1.00  0.00    -0.391 A  
BRANCH  11  16
HETATM   16  O   UNL     1      -9.420  10.032  66.804  1.00  0.00    -0.159 OA 
HETATM   17  C   UNL     1      -9.755   9.653  65.474  1.00  0.00    -0.301 C  
ENDBRANCH  11  16
ENDBRANCH   2   8
TORSDOF 5
ENDMDL
MODEL       54
REMARK 921   NORMALIZED FREE ENERGY PREDICTED BY IDOCK:   -4.72 KCAL/MOL
REMARK 922        TOTAL FREE ENERGY PREDICTED BY IDOCK:   -6.47 KCAL/MOL
REMARK 923 INTER-LIGAND FREE ENERGY PREDICTED BY IDOCK:   -6.09 KCAL/MOL
REMARK 924 INTRA-LIGAND FREE ENERGY PREDICTED BY IDOCK:   -0.37 KCAL/MOL
REMARK 927      BINDING AFFINITY PREDICTED BY RF-SCORE:    0.00 PKD
ROOT
HETATM    1  C   UNL     1     -10.968  16.171  67.964  1.00  0.00    -0.338 C  
HETATM    2  C   UNL     1     -10.924  14.982  68.584  1.00  0.00    -0.261 C  
ENDROOT
BRANCH   1   3
HETATM    3  C   UNL     1     -10.254  16.458  66.702  1.00  0.00    -0.294 C  
HETATM    4  O   UNL     1      -9.196  17.067  66.683  1.00  0.00    -0.235 OA 
BRANCH   3   5
HETATM    5  O   UNL     1     -10.979  16.066  65.626  1.00  0.00    -0.272 OA 
BRANCH   5   6
HETATM    6  C   UNL     1     -10.604  14.807  65.056  1.00  0.00    -0.429 C  
HETATM    7  C   UNL     1     -11.874  14.072  64.666  1.00  0.00    -0.433 C  
ENDBRANCH   5   6
ENDBRANCH   3   5
ENDBRANCH   1   3
BRANCH   2   8
HETATM    8  C   UNL     1     -11.735  14.617  69.753  1.00  0.00    -0.361 A  
HETATM    9  O   UNL     1     -14.298  13.456  72.805  1.00  0.00    -0.633 OA 
HETATM   10  C   UNL     1     -11.883  13.254  70.061  1.00  0.00    -0.365 A  
HETATM   11  C   UNL     1     -12.736  12.849  71.088  1.00  0.00    -0.276 A  
HETATM   12  C   UNL     1     -12.452  15.572  70.490  1.00  0.00    -0.472 A  
HETATM   13  C   UNL     1     -13.436  13.822  71.808  1.00  0.00    -0.376 A  
HETATM   14  H   UNL     1     -14.774  14.116  73.294  1.00  0.00     0.000 HD 
HETATM   15  C   UNL     1     -13.299  15.174  71.524  1.00  0.00    -0.533 A  
BRANCH  11  16
HETATM   16  O   UNL     1     -12.982  11.554  71.468  1.00  0.00    -0.431 OA 
HETATM   17  C   UNL     1     -12.056  10.573  71.014  1.00  0.00    -0.387 C  
ENDBRANCH  11  16
ENDBRANCH   2   8
TORSDOF 5
ENDMDL
MODEL       55
REMARK 921   NORMALIZED FREE ENERGY PREDICTED BY IDOCK:   -4.68 KCAL/MOL
REMARK 922        TOTAL FREE ENERGY PREDICTED BY IDOCK:   -6.42 KCAL/MOL
REMARK 923 INTER-LIGAND FREE ENERGY PREDICTED BY IDOCK:   -6.00 KCAL/MOL
REMARK 924 INTRA-LIGAND FREE ENERGY PREDICTED BY IDOCK:   -0.42 KCAL/MOL
REMARK 927      BINDING AFFINITY PREDICTED BY RF-SCORE:    0.00 PKD
ROOT
HETATM    1  C   UNL     1     -11.650  12.205  67.003  1.00  0.00    -0.406 C  
HETATM    2  C   UNL     1     -11.076  12.707  68.107  1.00  0.00    -0.285 C  
ENDROOT
BRANCH   1   3
HETATM    3  C   UNL     1     -10.894  11.841  65.786  1.00  0.00    -0.291 C  
HETATM    4  O   UNL     1     -11.285  12.143  64.670  1.00  0.00    -0.305 OA 
BRANCH   3   5
HETATM    5  O   UNL     1      -9.827  11.062  66.084  1.00  0.00    -0.209 OA 
BRANCH   5   6
HETATM    6  C   UNL     1      -9.818   9.768  65.467  1.00  0.00    -0.308 C  
HETATM    7  C   UNL     1     -10.115   8.736  66.540  1.00  0.00    -0.349 C  
ENDBRANCH   5   6
ENDBRANCH   3   5
ENDBRANCH   1   3
BRANCH   2   8
HETATM    8  C   UNL     1     -11.771  12.938  69.380  1.00  0.00    -0.382 A  
HETATM    9  O   UNL     1     -14.054  13.435  72.812  1.00  0.00    -0.715 OA 
HETATM   10  C   UNL     1     -12.082  11.826  70.181  1.00  0.00    -0.398 A  
HETATM   11  C   UNL     1     -12.843  11.977  71.340  1.00  0.00    -0.288 A  
HETATM   12  C   UNL     1     -12.232  14.209  69.758  1.00  0.00    -0.397 A  
HETATM   13  C   UNL     1     -13.286  13.256  71.694  1.00  0.00    -0.359 A  
HETATM   14  H   UNL     1     -14.355  14.303  73.053  1.00  0.00     0.000 HD 
HETATM   15  C   UNL     1     -12.984  14.368  70.921  1.00  0.00    -0.413 A  
BRANCH  11  16
HETATM   16  O   UNL     1     -13.231  10.971  72.188  1.00  0.00    -0.481 OA 
HETATM   17  C   UNL     1     -13.104   9.642  71.694  1.00  0.00    -0.412 C  
ENDBRANCH  11  16
ENDBRANCH   2   8
TORSDOF 5
ENDMDL
MODEL       56
REMARK 921   NORMALIZED FREE ENERGY PREDICTED BY IDOCK:   -4.67 KCAL/MOL
REMARK 922        TOTAL FREE ENERGY PREDICTED BY IDOCK:   -6.40 KCAL/MOL
REMARK 923 INTER-LIGAND FREE ENERGY PREDICTED BY IDOCK:   -6.07 KCAL/MOL
REMARK 924 INTRA-LIGAND FREE ENERGY PREDICTED BY IDOCK:   -0.33 KCAL/MOL
REMARK 927      BINDING AFFINITY PREDICTED BY RF-SCORE:    0.00 PKD
ROOT
HETATM    1  C   UNL     1      -8.630  16.832  66.091  1.00  0.00    -0.299 C  
HETATM    2  C   UNL     1      -9.407  16.014  66.817  1.00  0.00    -0.260 C  
ENDROOT
BRANCH   1   3
HETATM    3  C   UNL     1      -7.457  17.543  66.642  1.00  0.00    -0.245 C  
HETATM    4  O   UNL     1      -6.513  17.870  65.941  1.00  0.00    -0.242 OA 
BRANCH   3   5
HETATM    5  O   UNL     1      -7.539  17.656  67.990  1.00  0.00    -0.213 OA 
BRANCH   5   6
HETATM    6  C   UNL     1      -8.013  18.919  68.474  1.00  0.00    -0.346 C  
HETATM    7  C   UNL     1      -6.817  19.706  68.980  1.00  0.00    -0.378 C  
ENDBRANCH   5   6
ENDBRANCH   3   5
ENDBRANCH   1   3
BRANCH   2   8
HETATM    8  C   UNL     1     -10.485  15.180  66.270  1.00  0.00    -0.312 A  
HETATM    9  O   UNL     1     -13.254  12.569  64.612  1.00  0.00    -0.848 OA 
HETATM   10  C   UNL     1     -10.800  13.981  66.932  1.00  0.00    -0.290 A  
HETATM   11  C   UNL     1     -11.733  13.096  66.391  1.00  0.00    -0.379 A  
HETATM   12  C   UNL     1     -11.120  15.484  65.056  1.00  0.00    -0.411 A  
HETATM   13  C   UNL     1     -12.353  13.426  65.181  1.00  0.00    -0.456 A  
HETATM   14  H   UNL     1     -13.675  12.793  63.791  1.00  0.00     0.000 HD 
HETATM   15  C   UNL     1     -12.061  14.608  64.515  1.00  0.00    -0.490 A  
BRANCH  11  16
HETATM   16  O   UNL     1     -12.106  11.890  66.927  1.00  0.00    -0.599 OA 
HETATM   17  C   UNL     1     -11.296  11.388  67.984  1.00  0.00    -0.303 C  
ENDBRANCH  11  16
ENDBRANCH   2   8
TORSDOF 5
ENDMDL
MODEL       57
REMARK 921   NORMALIZED FREE ENERGY PREDICTED BY IDOCK:   -4.67 KCAL/MOL
REMARK 922        TOTAL FREE ENERGY PREDICTED BY IDOCK:   -6.40 KCAL/MOL
REMARK 923 INTER-LIGAND FREE ENERGY PREDICTED BY IDOCK:   -6.06 KCAL/MOL
REMARK 924 INTRA-LIGAND FREE ENERGY PREDICTED BY IDOCK:   -0.34 KCAL/MOL
REMARK 927      BINDING AFFINITY PREDICTED BY RF-SCORE:    0.00 PKD
ROOT
HETATM    1  C   UNL     1     -12.140  11.392  69.834  1.00  0.00    -0.404 C  
HETATM    2  C   UNL     1     -11.940  12.702  69.630  1.00  0.00    -0.352 C  
ENDROOT
BRANCH   1   3
HETATM    3  C   UNL     1     -12.554  10.825  71.135  1.00  0.00    -0.428 C  
HETATM    4  O   UNL     1     -13.145  11.492  71.970  1.00  0.00    -0.486 OA 
BRANCH   3   5
HETATM    5  O   UNL     1     -12.092   9.561  71.291  1.00  0.00    -0.313 OA 
BRANCH   5   6
HETATM    6  C   UNL     1     -10.704   9.371  70.991  1.00  0.00    -0.337 C  
HETATM    7  C   UNL     1     -10.072   8.623  72.152  1.00  0.00    -0.388 C  
ENDBRANCH   5   6
ENDBRANCH   3   5
ENDBRANCH   1   3
BRANCH   2   8
HETATM    8  C   UNL     1     -11.675  13.314  68.321  1.00  0.00    -0.388 A  
HETATM    9  O   UNL     1     -10.577  14.870  64.631  1.00  0.00    -0.571 OA 
HETATM   10  C   UNL     1     -11.655  12.482  67.189  1.00  0.00    -0.437 A  
HETATM   11  C   UNL     1     -11.294  12.991  65.941  1.00  0.00    -0.313 A  
HETATM   12  C   UNL     1     -11.330  14.668  68.186  1.00  0.00    -0.321 A  
HETATM   13  C   UNL     1     -10.958  14.345  65.836  1.00  0.00    -0.312 A  
HETATM   14  H   UNL     1     -10.348  15.789  64.560  1.00  0.00     0.000 HD 
HETATM   15  C   UNL     1     -10.978  15.186  66.940  1.00  0.00    -0.323 A  
BRANCH  11  16
HETATM   16  O   UNL     1     -11.213  12.279  64.772  1.00  0.00    -0.301 OA 
HETATM   17  C   UNL     1     -12.437  12.057  64.079  1.00  0.00    -0.388 C  
ENDBRANCH  11  16
ENDBRANCH   2   8
TORSDOF 5
ENDMDL
MODEL       58
REMARK 921   NORMALIZED FREE ENERGY PREDICTED BY IDOCK:   -4.64 KCAL/MOL
REMARK 922        TOTAL FREE ENERGY PREDICTED BY IDOCK:   -6.36 KCAL/MOL
REMARK 923 INTER-LIGAND FREE ENERGY PREDICTED BY IDOCK:   -6.01 KCAL/MOL
REMARK 924 INTRA-LIGAND FREE ENERGY PREDICTED BY IDOCK:   -0.35 KCAL/MOL
REMARK 927      BINDING AFFINITY PREDICTED BY RF-SCORE:    0.00 PKD
ROOT
HETATM    1  C   UNL     1     -11.364   9.502  71.454  1.00  0.00    -0.462 C  
HETATM    2  C   UNL     1     -12.293  10.442  71.225  1.00  0.00    -0.507 C  
ENDROOT
BRANCH   1   3
HETATM    3  C   UNL     1     -11.626   8.272  72.230  1.00  0.00    -0.383 C  
HETATM    4  O   UNL     1     -12.652   8.123  72.876  1.00  0.00    -0.092 OA 
BRANCH   3   5
HETATM    5  O   UNL     1     -10.558   7.438  72.208  1.00  0.00    -0.215 OA 
BRANCH   5   6
HETATM    6  C   UNL     1     -10.065   7.036  73.492  1.00  0.00    -0.310 C  
HETATM    7  C   UNL     1      -8.870   7.909  73.830  1.00  0.00    -0.332 C  
ENDBRANCH   5   6
ENDBRANCH   3   5
ENDBRANCH   1   3
BRANCH   2   8
HETATM    8  C   UNL     1     -12.111  11.599  70.338  1.00  0.00    -0.462 A  
HETATM    9  O   UNL     1     -11.989  14.895  67.817  1.00  0.00    -0.495 OA 
HETATM   10  C   UNL     1     -12.401  12.878  70.844  1.00  0.00    -0.365 A  
HETATM   11  C   UNL     1     -12.358  13.996  70.010  1.00  0.00    -0.337 A  
HETATM   12  C   UNL     1     -11.775  11.454  68.983  1.00  0.00    -0.409 A  
HETATM   13  C   UNL     1     -12.017  13.823  68.665  1.00  0.00    -0.366 A  
HETATM   14  H   UNL     1     -11.758  14.778  66.903  1.00  0.00     0.000 HD 
HETATM   15  C   UNL     1     -11.721  12.569  68.147  1.00  0.00    -0.400 A  
BRANCH  11  16
HETATM   16  O   UNL     1     -12.641  15.287  70.378  1.00  0.00    -0.370 OA 
HETATM   17  C   UNL     1     -13.678  15.460  71.338  1.00  0.00    -0.504 C  
ENDBRANCH  11  16
ENDBRANCH   2   8
TORSDOF 5
ENDMDL
MODEL       59
REMARK 921   NORMALIZED FREE ENERGY PREDICTED BY IDOCK:   -4.62 KCAL/MOL
REMARK 922        TOTAL FREE ENERGY PREDICTED BY IDOCK:   -6.34 KCAL/MOL
REMARK 923 INTER-LIGAND FREE ENERGY PREDICTED BY IDOCK:   -5.98 KCAL/MOL
REMARK 924 INTRA-LIGAND FREE ENERGY PREDICTED BY IDOCK:   -0.35 KCAL/MOL
REMARK 927      BINDING AFFINITY PREDICTED BY RF-SCORE:    0.00 PKD
ROOT
HETATM    1  C   UNL     1      -9.658  16.415  67.529  1.00  0.00    -0.227 C  
HETATM    2  C   UNL     1      -9.426  15.508  66.568  1.00  0.00    -0.299 C  
ENDROOT
BRANCH   1   3
HETATM    3  C   UNL     1      -8.669  17.435  67.941  1.00  0.00    -0.237 C  
HETATM    4  O   UNL     1      -7.488  17.164  68.092  1.00  0.00    -0.191 OA 
BRANCH   3   5
HETATM    5  O   UNL     1      -9.269  18.616  68.224  1.00  0.00    -0.302 OA 
BRANCH   5   6
HETATM    6  C   UNL     1      -8.782  19.745  67.488  1.00  0.00    -0.330 C  
HETATM    7  C   UNL     1      -9.931  20.300  66.666  1.00  0.00    -0.561 C  
ENDBRANCH   5   6
ENDBRANCH   3   5
ENDBRANCH   1   3
BRANCH   2   8
HETATM    8  C   UNL     1     -10.432  14.582  66.032  1.00  0.00    -0.315 A  
HETATM    9  O   UNL     1     -13.303  12.202  64.207  1.00  0.00    -0.761 OA 
HETATM   10  C   UNL     1     -10.080  13.781  64.932  1.00  0.00    -0.297 A  
HETATM   11  C   UNL     1     -11.033  12.971  64.312  1.00  0.00    -0.399 A  
HETATM   12  C   UNL     1     -11.753  14.559  66.506  1.00  0.00    -0.380 A  
HETATM   13  C   UNL     1     -12.340  12.966  64.808  1.00  0.00    -0.459 A  
HETATM   14  H   UNL     1     -14.191  12.198  64.544  1.00  0.00     0.000 HD 
HETATM   15  C   UNL     1     -12.706  13.745  65.897  1.00  0.00    -0.452 A  
BRANCH  11  16
HETATM   16  O   UNL     1     -10.820  12.167  63.222  1.00  0.00    -0.415 OA 
HETATM   17  C   UNL     1      -9.537  11.557  63.124  1.00  0.00    -0.360 C  
ENDBRANCH  11  16
ENDBRANCH   2   8
TORSDOF 5
ENDMDL
MODEL       60
REMARK 921   NORMALIZED FREE ENERGY PREDICTED BY IDOCK:   -4.62 KCAL/MOL
REMARK 922        TOTAL FREE ENERGY PREDICTED BY IDOCK:   -6.33 KCAL/MOL
REMARK 923 INTER-LIGAND FREE ENERGY PREDICTED BY IDOCK:   -6.00 KCAL/MOL
REMARK 924 INTRA-LIGAND FREE ENERGY PREDICTED BY IDOCK:   -0.34 KCAL/MOL
REMARK 927      BINDING AFFINITY PREDICTED BY RF-SCORE:    0.00 PKD
ROOT
HETATM    1  C   UNL     1     -10.399   9.550  67.125  1.00  0.00    -0.320 C  
HETATM    2  C   UNL     1     -10.244   9.910  65.841  1.00  0.00    -0.264 C  
ENDROOT
BRANCH   1   3
HETATM    3  C   UNL     1      -9.751   8.362  67.719  1.00  0.00    -0.162 C  
HETATM    4  O   UNL     1      -8.572   8.362  68.040  1.00  0.00    -0.133 OA 
BRANCH   3   5
HETATM    5  O   UNL     1     -10.591   7.299  67.737  1.00  0.00    -0.217 OA 
BRANCH   5   6
HETATM    6  C   UNL     1     -10.317   6.314  68.741  1.00  0.00    -0.205 C  
HETATM    7  C   UNL     1     -11.242   6.573  69.917  1.00  0.00    -0.456 C  
ENDBRANCH   5   6
ENDBRANCH   3   5
ENDBRANCH   1   3
BRANCH   2   8
HETATM    8  C   UNL     1     -10.749  11.159  65.257  1.00  0.00    -0.271 A  
HETATM    9  O   UNL     1     -12.536  14.551  63.665  1.00  0.00    -1.017 OA 
HETATM   10  C   UNL     1     -11.356  12.096  66.110  1.00  0.00    -0.414 A  
HETATM   11  C   UNL     1     -11.956  13.244  65.591  1.00  0.00    -0.412 A  
HETATM   12  C   UNL     1     -10.748  11.388  63.872  1.00  0.00    -0.462 A  
HETATM   13  C   UNL     1     -11.936  13.448  64.207  1.00  0.00    -0.430 A  
HETATM   14  H   UNL     1     -12.523  14.690  62.725  1.00  0.00     0.000 HD 
HETATM   15  C   UNL     1     -11.336  12.539  63.348  1.00  0.00    -0.489 A  
BRANCH  11  16
HETATM   16  O   UNL     1     -12.598  14.216  66.314  1.00  0.00    -0.449 OA 
HETATM   17  C   UNL     1     -11.856  14.813  67.373  1.00  0.00    -0.295 C  
ENDBRANCH  11  16
ENDBRANCH   2   8
TORSDOF 5
ENDMDL
MODEL       61
REMARK 921   NORMALIZED FREE ENERGY PREDICTED BY IDOCK:   -4.59 KCAL/MOL
REMARK 922        TOTAL FREE ENERGY PREDICTED BY IDOCK:   -6.30 KCAL/MOL
REMARK 923 INTER-LIGAND FREE ENERGY PREDICTED BY IDOCK:   -5.95 KCAL/MOL
REMARK 924 INTRA-LIGAND FREE ENERGY PREDICTED BY IDOCK:   -0.35 KCAL/MOL
REMARK 927      BINDING AFFINITY PREDICTED BY RF-SCORE:    0.00 PKD
ROOT
HETATM    1  C   UNL     1     -11.411  10.701  69.977  1.00  0.00    -0.400 C  
HETATM    2  C   UNL     1     -11.973  11.615  69.173  1.00  0.00    -0.378 C  
ENDROOT
BRANCH   1   3
HETATM    3  C   UNL     1     -12.098  10.114  71.147  1.00  0.00    -0.388 C  
HETATM    4  O   UNL     1     -13.238  10.429  71.450  1.00  0.00    -0.380 OA 
BRANCH   3   5
HETATM    5  O   UNL     1     -11.267   9.311  71.855  1.00  0.00    -0.370 OA 
BRANCH   5   6
HETATM    6  C   UNL     1     -11.857   8.108  72.362  1.00  0.00    -0.388 C  
HETATM    7  C   UNL     1     -11.696   7.027  71.307  1.00  0.00    -0.356 C  
ENDBRANCH   5   6
ENDBRANCH   3   5
ENDBRANCH   1   3
BRANCH   2   8
HETATM    8  C   UNL     1     -11.381  12.108  67.922  1.00  0.00    -0.361 A  
HETATM    9  O   UNL     1     -10.071  13.564  64.261  1.00  0.00    -0.705 OA 
HETATM   10  C   UNL     1     -11.429  13.487  67.661  1.00  0.00    -0.351 A  
HETATM   11  C   UNL     1     -10.987  13.993  66.437  1.00  0.00    -0.308 A  
HETATM   12  C   UNL     1     -10.880  11.237  66.941  1.00  0.00    -0.333 A  
HETATM   13  C   UNL     1     -10.490  13.103  65.479  1.00  0.00    -0.288 A  
HETATM   14  H   UNL     1      -9.734  12.960  63.611  1.00  0.00     0.000 HD 
HETATM   15  C   UNL     1     -10.428  11.737  65.721  1.00  0.00    -0.302 A  
BRANCH  11  16
HETATM   16  O   UNL     1     -11.005  15.310  66.055  1.00  0.00    -0.332 OA 
HETATM   17  C   UNL     1     -10.509  16.251  67.000  1.00  0.00    -0.306 C  
ENDBRANCH  11  16
ENDBRANCH   2   8
TORSDOF 5
ENDMDL
MODEL       62
REMARK 921   NORMALIZED FREE ENERGY PREDICTED BY IDOCK:   -4.59 KCAL/MOL
REMARK 922        TOTAL FREE ENERGY PREDICTED BY IDOCK:   -6.29 KCAL/MOL
REMARK 923 INTER-LIGAND FREE ENERGY PREDICTED BY IDOCK:   -5.99 KCAL/MOL
REMARK 924 INTRA-LIGAND FREE ENERGY PREDICTED BY IDOCK:   -0.31 KCAL/MOL
REMARK 927      BINDING AFFINITY PREDICTED BY RF-SCORE:    0.00 PKD
ROOT
HETATM    1  C   UNL     1     -10.455  17.318  66.572  1.00  0.00    -0.260 C  
HETATM    2  C   UNL     1     -10.851  16.580  67.620  1.00  0.00    -0.269 C  
ENDROOT
BRANCH   1   3
HETATM    3  C   UNL     1     -10.132  18.757  66.666  1.00  0.00    -0.378 C  
HETATM    4  O   UNL     1     -11.000  19.616  66.627  1.00  0.00    -0.424 OA 
BRANCH   3   5
HETATM    5  O   UNL     1      -8.794  18.962  66.680  1.00  0.00    -0.295 OA 
BRANCH   5   6
HETATM    6  C   UNL     1      -8.300  19.732  67.783  1.00  0.00    -0.306 C  
HETATM    7  C   UNL     1      -7.220  20.663  67.258  1.00  0.00    -0.388 C  
ENDBRANCH   5   6
ENDBRANCH   3   5
ENDBRANCH   1   3
BRANCH   2   8
HETATM    8  C   UNL     1     -11.035  15.123  67.596  1.00  0.00    -0.308 A  
HETATM    9  O   UNL     1     -11.936  11.070  67.594  1.00  0.00    -0.619 OA 
HETATM   10  C   UNL     1     -11.696  14.554  66.494  1.00  0.00    -0.380 A  
HETATM   11  C   UNL     1     -12.001  13.192  66.476  1.00  0.00    -0.398 A  
HETATM   12  C   UNL     1     -10.679  14.308  68.682  1.00  0.00    -0.256 A  
HETATM   13  C   UNL     1     -11.631  12.403  67.570  1.00  0.00    -0.365 A  
HETATM   14  H   UNL     1     -11.685  10.534  68.337  1.00  0.00     0.000 HD 
HETATM   15  C   UNL     1     -10.971  12.945  68.665  1.00  0.00    -0.295 A  
BRANCH  11  16
HETATM   16  O   UNL     1     -12.661  12.526  65.475  1.00  0.00    -0.642 OA 
HETATM   17  C   UNL     1     -11.923  12.284  64.281  1.00  0.00    -0.407 C  
ENDBRANCH  11  16
ENDBRANCH   2   8
TORSDOF 5
ENDMDL
MODEL       63
REMARK 921   NORMALIZED FREE ENERGY PREDICTED BY IDOCK:   -4.59 KCAL/MOL
REMARK 922        TOTAL FREE ENERGY PREDICTED BY IDOCK:   -6.29 KCAL/MOL
REMARK 923 INTER-LIGAND FREE ENERGY PREDICTED BY IDOCK:   -5.94 KCAL/MOL
REMARK 924 INTRA-LIGAND FREE ENERGY PREDICTED BY IDOCK:   -0.35 KCAL/MOL
REMARK 927      BINDING AFFINITY PREDICTED BY RF-SCORE:    0.00 PKD
ROOT
HETATM    1  C   UNL     1     -12.359  12.617  70.538  1.00  0.00    -0.350 C  
HETATM    2  C   UNL     1     -12.187  13.618  69.661  1.00  0.00    -0.326 C  
ENDROOT
BRANCH   1   3
HETATM    3  C   UNL     1     -13.222  12.722  71.733  1.00  0.00    -0.374 C  
HETATM    4  O   UNL     1     -13.550  13.802  72.199  1.00  0.00    -0.427 OA 
BRANCH   3   5
HETATM    5  O   UNL     1     -13.475  11.503  72.267  1.00  0.00    -0.368 OA 
BRANCH   5   6
HETATM    6  C   UNL     1     -12.932  10.390  71.545  1.00  0.00    -0.458 C  
HETATM    7  C   UNL     1     -13.592   9.126  72.068  1.00  0.00    -0.520 C  
ENDBRANCH   5   6
ENDBRANCH   3   5
ENDBRANCH   1   3
BRANCH   2   8
HETATM    8  C   UNL     1     -11.461  13.502  68.390  1.00  0.00    -0.346 A  
HETATM    9  O   UNL     1      -9.726  12.999  64.652  1.00  0.00    -0.559 OA 
HETATM   10  C   UNL     1     -11.859  14.319  67.318  1.00  0.00    -0.444 A  
HETATM   11  C   UNL     1     -11.281  14.166  66.057  1.00  0.00    -0.319 A  
HETATM   12  C   UNL     1     -10.471  12.529  68.183  1.00  0.00    -0.238 A  
HETATM   13  C   UNL     1     -10.295  13.190  65.881  1.00  0.00    -0.290 A  
HETATM   14  H   UNL     1      -9.057  12.336  64.532  1.00  0.00     0.000 HD 
HETATM   15  C   UNL     1      -9.883  12.377  66.928  1.00  0.00    -0.219 A  
BRANCH  11  16
HETATM   16  O   UNL     1     -11.600  14.882  64.932  1.00  0.00    -0.382 OA 
HETATM   17  C   UNL     1     -11.094  16.211  64.861  1.00  0.00    -0.325 C  
ENDBRANCH  11  16
ENDBRANCH   2   8
TORSDOF 5
ENDMDL
MODEL       64
REMARK 921   NORMALIZED FREE ENERGY PREDICTED BY IDOCK:   -4.58 KCAL/MOL
REMARK 922        TOTAL FREE ENERGY PREDICTED BY IDOCK:   -6.28 KCAL/MOL
REMARK 923 INTER-LIGAND FREE ENERGY PREDICTED BY IDOCK:   -5.94 KCAL/MOL
REMARK 924 INTRA-LIGAND FREE ENERGY PREDICTED BY IDOCK:   -0.34 KCAL/MOL
REMARK 927      BINDING AFFINITY PREDICTED BY RF-SCORE:    0.00 PKD
ROOT
HETATM    1  C   UNL     1     -12.822  12.522  71.483  1.00  0.00    -0.367 C  
HETATM    2  C   UNL     1     -13.303  11.385  72.009  1.00  0.00    -0.388 C  
ENDROOT
BRANCH   1   3
HETATM    3  C   UNL     1     -13.240  13.866  71.933  1.00  0.00    -0.397 C  
HETATM    4  O   UNL     1     -14.409  14.219  71.912  1.00  0.00    -0.490 OA 
BRANCH   3   5
HETATM    5  O   UNL     1     -12.170  14.639  72.237  1.00  0.00    -0.321 OA 
BRANCH   5   6
HETATM    6  C   UNL     1     -12.099  15.893  71.546  1.00  0.00    -0.470 C  
HETATM    7  C   UNL     1     -11.614  15.622  70.133  1.00  0.00    -0.366 C  
ENDBRANCH   5   6
ENDBRANCH   3   5
ENDBRANCH   1   3
BRANCH   2   8
HETATM    8  C   UNL     1     -12.803  10.040  71.693  1.00  0.00    -0.543 A  
HETATM    9  O   UNL     1     -11.497   6.308  70.427  1.00  0.00    -0.364 OA 
HETATM   10  C   UNL     1     -11.610   9.929  70.959  1.00  0.00    -0.470 A  
HETATM   11  C   UNL     1     -11.154   8.681  70.532  1.00  0.00    -0.242 A  
HETATM   12  C   UNL     1     -13.536   8.882  71.996  1.00  0.00    -0.489 A  
HETATM   13  C   UNL     1     -11.903   7.544  70.851  1.00  0.00    -0.267 A  
HETATM   14  H   UNL     1     -12.005   5.536  70.643  1.00  0.00     0.000 HD 
HETATM   15  C   UNL     1     -13.081   7.631  71.580  1.00  0.00    -0.392 A  
BRANCH  11  16
HETATM   16  O   UNL     1     -10.023   8.445  69.793  1.00  0.00    -0.185 OA 
HETATM   17  C   UNL     1     -10.056   8.861  68.432  1.00  0.00    -0.189 C  
ENDBRANCH  11  16
ENDBRANCH   2   8
TORSDOF 5
ENDMDL
MODEL       65
REMARK 921   NORMALIZED FREE ENERGY PREDICTED BY IDOCK:   -4.56 KCAL/MOL
REMARK 922        TOTAL FREE ENERGY PREDICTED BY IDOCK:   -6.26 KCAL/MOL
REMARK 923 INTER-LIGAND FREE ENERGY PREDICTED BY IDOCK:   -5.94 KCAL/MOL
REMARK 924 INTRA-LIGAND FREE ENERGY PREDICTED BY IDOCK:   -0.32 KCAL/MOL
REMARK 927      BINDING AFFINITY PREDICTED BY RF-SCORE:    0.00 PKD
ROOT
HETATM    1  C   UNL     1      -9.696  10.434  65.654  1.00  0.00    -0.294 C  
HETATM    2  C   UNL     1     -10.849  11.104  65.805  1.00  0.00    -0.218 C  
ENDROOT
BRANCH   1   3
HETATM    3  C   UNL     1      -9.477   9.066  66.168  1.00  0.00    -0.253 C  
HETATM    4  O   UNL     1      -8.474   8.426  65.892  1.00  0.00    -0.130 OA 
BRANCH   3   5
HETATM    5  O   UNL     1     -10.556   8.618  66.854  1.00  0.00    -0.287 OA 
BRANCH   5   6
HETATM    6  C   UNL     1     -10.331   7.462  67.670  1.00  0.00    -0.231 C  
HETATM    7  C   UNL     1     -10.996   6.275  66.994  1.00  0.00    -0.442 C  
ENDBRANCH   5   6
ENDBRANCH   3   5
ENDBRANCH   1   3
BRANCH   2   8
HETATM    8  C   UNL     1     -11.152  12.399  65.182  1.00  0.00    -0.348 A  
HETATM    9  O   UNL     1     -12.195  16.154  63.751  1.00  0.00    -1.281 OA 
HETATM   10  C   UNL     1     -10.481  13.539  65.656  1.00  0.00    -0.296 A  
HETATM   11  C   UNL     1     -10.816  14.808  65.180  1.00  0.00    -0.404 A  
HETATM   12  C   UNL     1     -12.164  12.545  64.221  1.00  0.00    -0.535 A  
HETATM   13  C   UNL     1     -11.827  14.923  64.220  1.00  0.00    -0.297 A  
HETATM   14  H   UNL     1     -12.881  16.233  63.100  1.00  0.00     0.000 HD 
HETATM   15  C   UNL     1     -12.497  13.809  63.734  1.00  0.00    -0.219 A  
BRANCH  11  16
HETATM   16  O   UNL     1     -10.254  15.993  65.580  1.00  0.00    -0.362 OA 
HETATM   17  C   UNL     1      -8.992  15.908  66.233  1.00  0.00    -0.346 C  
ENDBRANCH  11  16
ENDBRANCH   2   8
TORSDOF 5
ENDMDL
MODEL       66
REMARK 921   NORMALIZED FREE ENERGY PREDICTED BY IDOCK:   -4.56 KCAL/MOL
REMARK 922        TOTAL FREE ENERGY PREDICTED BY IDOCK:   -6.26 KCAL/MOL
REMARK 923 INTER-LIGAND FREE ENERGY PREDICTED BY IDOCK:   -5.81 KCAL/MOL
REMARK 924 INTRA-LIGAND FREE ENERGY PREDICTED BY IDOCK:   -0.44 KCAL/MOL
REMARK 927      BINDING AFFINITY PREDICTED BY RF-SCORE:    0.00 PKD
ROOT
HETATM    1  C   UNL     1     -11.815  11.553  68.475  1.00  0.00    -0.365 C  
HETATM    2  C   UNL     1     -11.926  11.613  69.811  1.00  0.00    -0.402 C  
ENDROOT
BRANCH   1   3
HETATM    3  C   UNL     1     -11.744  12.750  67.610  1.00  0.00    -0.367 C  
HETATM    4  O   UNL     1     -12.312  12.800  66.530  1.00  0.00    -0.476 OA 
BRANCH   3   5
HETATM    5  O   UNL     1     -10.899  13.677  68.122  1.00  0.00    -0.235 OA 
BRANCH   5   6
HETATM    6  C   UNL     1     -11.437  15.000  68.244  1.00  0.00    -0.332 C  
HETATM    7  C   UNL     1     -11.723  15.255  69.713  1.00  0.00    -0.347 C  
ENDBRANCH   5   6
ENDBRANCH   3   5
ENDBRANCH   1   3
BRANCH   2   8
HETATM    8  C   UNL     1     -11.850  10.453  70.709  1.00  0.00    -0.466 A  
HETATM    9  O   UNL     1     -11.690   6.950  72.932  1.00  0.00    -0.501 OA 
HETATM   10  C   UNL     1     -10.708   9.638  70.648  1.00  0.00    -0.388 A  
HETATM   11  C   UNL     1     -10.636   8.460  71.394  1.00  0.00    -0.234 A  
HETATM   12  C   UNL     1     -12.923  10.075  71.531  1.00  0.00    -0.535 A  
HETATM   13  C   UNL     1     -11.719   8.110  72.207  1.00  0.00    -0.379 A  
HETATM   14  H   UNL     1     -12.425   6.712  73.484  1.00  0.00     0.000 HD 
HETATM   15  C   UNL     1     -12.854   8.905  72.286  1.00  0.00    -0.475 A  
BRANCH  11  16
HETATM   16  O   UNL     1      -9.591   7.573  71.401  1.00  0.00    -0.156 OA 
HETATM   17  C   UNL     1      -9.359   6.855  70.194  1.00  0.00    -0.159 C  
ENDBRANCH  11  16
ENDBRANCH   2   8
TORSDOF 5
ENDMDL
MODEL       67
REMARK 921   NORMALIZED FREE ENERGY PREDICTED BY IDOCK:   -4.54 KCAL/MOL
REMARK 922        TOTAL FREE ENERGY PREDICTED BY IDOCK:   -6.23 KCAL/MOL
REMARK 923 INTER-LIGAND FREE ENERGY PREDICTED BY IDOCK:   -5.90 KCAL/MOL
REMARK 924 INTRA-LIGAND FREE ENERGY PREDICTED BY IDOCK:   -0.33 KCAL/MOL
REMARK 927      BINDING AFFINITY PREDICTED BY RF-SCORE:    0.00 PKD
ROOT
HETATM    1  C   UNL     1     -10.463  15.483  66.848  1.00  0.00    -0.301 C  
HETATM    2  C   UNL     1     -11.614  14.937  67.270  1.00  0.00    -0.337 C  
ENDROOT
BRANCH   1   3
HETATM    3  C   UNL     1     -10.401  16.668  65.966  1.00  0.00    -0.340 C  
HETATM    4  O   UNL     1     -10.831  16.644  64.823  1.00  0.00    -0.732 OA 
BRANCH   3   5
HETATM    5  O   UNL     1      -9.722  17.683  66.552  1.00  0.00    -0.280 OA 
BRANCH   5   6
HETATM    6  C   UNL     1     -10.533  18.700  67.153  1.00  0.00    -0.415 C  
HETATM    7  C   UNL     1     -10.590  19.879  66.197  1.00  0.00    -0.526 C  
ENDBRANCH   5   6
ENDBRANCH   3   5
ENDBRANCH   1   3
BRANCH   2   8
HETATM    8  C   UNL     1     -11.713  13.857  68.261  1.00  0.00    -0.396 A  
HETATM    9  O   UNL     1     -12.342  10.716  70.902  1.00  0.00    -0.331 OA 
HETATM   10  C   UNL     1     -11.570  12.531  67.818  1.00  0.00    -0.401 A  
HETATM   11  C   UNL     1     -11.772  11.465  68.695  1.00  0.00    -0.329 A  
HETATM   12  C   UNL     1     -12.060  14.103  69.598  1.00  0.00    -0.400 A  
HETATM   13  C   UNL     1     -12.114  11.739  70.023  1.00  0.00    -0.310 A  
HETATM   14  H   UNL     1     -12.574  10.902  71.804  1.00  0.00     0.000 HD 
HETATM   15  C   UNL     1     -12.254  13.042  70.482  1.00  0.00    -0.392 A  
BRANCH  11  16
HETATM   16  O   UNL     1     -11.685  10.133  68.379  1.00  0.00    -0.147 OA 
HETATM   17  C   UNL     1     -10.498   9.715  67.715  1.00  0.00    -0.256 C  
ENDBRANCH  11  16
ENDBRANCH   2   8
TORSDOF 5
ENDMDL
MODEL       68
REMARK 921   NORMALIZED FREE ENERGY PREDICTED BY IDOCK:   -4.53 KCAL/MOL
REMARK 922        TOTAL FREE ENERGY PREDICTED BY IDOCK:   -6.22 KCAL/MOL
REMARK 923 INTER-LIGAND FREE ENERGY PREDICTED BY IDOCK:   -5.93 KCAL/MOL
REMARK 924 INTRA-LIGAND FREE ENERGY PREDICTED BY IDOCK:   -0.29 KCAL/MOL
REMARK 927      BINDING AFFINITY PREDICTED BY RF-SCORE:    0.00 PKD
ROOT
HETATM    1  C   UNL     1     -10.295  17.428  66.672  1.00  0.00    -0.306 C  
HETATM    2  C   UNL     1     -10.407  16.313  65.935  1.00  0.00    -0.381 C  
ENDROOT
BRANCH   1   3
HETATM    3  C   UNL     1      -9.878  18.732  66.115  1.00  0.00    -0.299 C  
HETATM    4  O   UNL     1     -10.685  19.612  65.858  1.00  0.00    -0.492 OA 
BRANCH   3   5
HETATM    5  O   UNL     1      -8.552  18.749  65.839  1.00  0.00    -0.478 OA 
BRANCH   5   6
HETATM    6  C   UNL     1      -7.865  19.957  66.187  1.00  0.00    -0.326 C  
HETATM    7  C   UNL     1      -6.774  20.189  65.157  1.00  0.00    -0.333 C  
ENDBRANCH   5   6
ENDBRANCH   3   5
ENDBRANCH   1   3
BRANCH   2   8
HETATM    8  C   UNL     1     -10.960  15.041  66.420  1.00  0.00    -0.336 A  
HETATM    9  O   UNL     1     -12.153  11.337  67.866  1.00  0.00    -0.634 OA 
HETATM   10  C   UNL     1     -10.932  14.788  67.802  1.00  0.00    -0.294 A  
HETATM   11  C   UNL     1     -11.335  13.549  68.304  1.00  0.00    -0.294 A  
HETATM   12  C   UNL     1     -11.401  14.037  65.544  1.00  0.00    -0.313 A  
HETATM   13  C   UNL     1     -11.773  12.569  67.408  1.00  0.00    -0.366 A  
HETATM   14  H   UNL     1     -12.450  10.671  67.258  1.00  0.00     0.000 HD 
HETATM   15  C   UNL     1     -11.815  12.802  66.040  1.00  0.00    -0.495 A  
BRANCH  11  16
HETATM   16  O   UNL     1     -11.331  13.174  69.623  1.00  0.00    -0.212 OA 
HETATM   17  C   UNL     1     -12.243  13.853  70.478  1.00  0.00    -0.373 C  
ENDBRANCH  11  16
ENDBRANCH   2   8
TORSDOF 5
ENDMDL
MODEL       69
REMARK 921   NORMALIZED FREE ENERGY PREDICTED BY IDOCK:   -4.52 KCAL/MOL
REMARK 922        TOTAL FREE ENERGY PREDICTED BY IDOCK:   -6.20 KCAL/MOL
REMARK 923 INTER-LIGAND FREE ENERGY PREDICTED BY IDOCK:   -5.87 KCAL/MOL
REMARK 924 INTRA-LIGAND FREE ENERGY PREDICTED BY IDOCK:   -0.34 KCAL/MOL
REMARK 927      BINDING AFFINITY PREDICTED BY RF-SCORE:    0.00 PKD
ROOT
HETATM    1  C   UNL     1      -9.452  11.289  67.207  1.00  0.00    -0.184 C  
HETATM    2  C   UNL     1      -9.518  12.620  67.360  1.00  0.00    -0.189 C  
ENDROOT
BRANCH   1   3
HETATM    3  C   UNL     1      -8.853  10.384  68.210  1.00  0.00    -0.135 C  
HETATM    4  O   UNL     1      -8.057   9.511  67.898  1.00  0.00    -0.105 OA 
BRANCH   3   5
HETATM    5  O   UNL     1      -9.388  10.586  69.438  1.00  0.00    -0.190 OA 
BRANCH   5   6
HETATM    6  C   UNL     1     -10.147   9.491  69.967  1.00  0.00    -0.242 C  
HETATM    7  C   UNL     1      -9.424   8.970  71.196  1.00  0.00    -0.348 C  
ENDBRANCH   5   6
ENDBRANCH   3   5
ENDBRANCH   1   3
BRANCH   2   8
HETATM    8  C   UNL     1     -10.235  13.532  66.459  1.00  0.00    -0.283 A  
HETATM    9  O   UNL     1     -12.014  15.994  63.629  1.00  0.00    -1.344 OA 
HETATM   10  C   UNL     1     -11.054  12.974  65.462  1.00  0.00    -0.300 A  
HETATM   11  C   UNL     1     -11.663  13.789  64.507  1.00  0.00    -0.407 A  
HETATM   12  C   UNL     1     -10.036  14.921  66.489  1.00  0.00    -0.277 A  
HETATM   13  C   UNL     1     -11.450  15.170  64.564  1.00  0.00    -0.316 A  
HETATM   14  H   UNL     1     -11.869  16.932  63.667  1.00  0.00     0.000 HD 
HETATM   15  C   UNL     1     -10.650  15.742  65.544  1.00  0.00    -0.424 A  
BRANCH  11  16
HETATM   16  O   UNL     1     -12.461  13.365  63.476  1.00  0.00    -0.738 OA 
HETATM   17  C   UNL     1     -12.523  11.959  63.258  1.00  0.00    -0.384 C  
ENDBRANCH  11  16
ENDBRANCH   2   8
TORSDOF 5
ENDMDL
MODEL       70
REMARK 921   NORMALIZED FREE ENERGY PREDICTED BY IDOCK:   -4.51 KCAL/MOL
REMARK 922        TOTAL FREE ENERGY PREDICTED BY IDOCK:   -6.19 KCAL/MOL
REMARK 923 INTER-LIGAND FREE ENERGY PREDICTED BY IDOCK:   -5.77 KCAL/MOL
REMARK 924 INTRA-LIGAND FREE ENERGY PREDICTED BY IDOCK:   -0.43 KCAL/MOL
REMARK 927      BINDING AFFINITY PREDICTED BY RF-SCORE:    0.00 PKD
ROOT
HETATM    1  C   UNL     1      -9.732  16.839  66.439  1.00  0.00    -0.309 C  
HETATM    2  C   UNL     1      -9.453  15.608  65.982  1.00  0.00    -0.390 C  
ENDROOT
BRANCH   1   3
HETATM    3  C   UNL     1      -8.697  17.855  66.722  1.00  0.00    -0.254 C  
HETATM    4  O   UNL     1      -8.041  18.374  65.832  1.00  0.00    -0.502 OA 
BRANCH   3   5
HETATM    5  O   UNL     1      -8.519  18.019  68.055  1.00  0.00    -0.248 OA 
BRANCH   5   6
HETATM    6  C   UNL     1      -7.248  17.595  68.564  1.00  0.00    -0.242 C  
HETATM    7  C   UNL     1      -7.422  16.209  69.162  1.00  0.00    -0.221 C  
ENDBRANCH   5   6
ENDBRANCH   3   5
ENDBRANCH   1   3
BRANCH   2   8
HETATM    8  C   UNL     1     -10.458  14.628  65.550  1.00  0.00    -0.374 A  
HETATM    9  O   UNL     1     -13.310  12.049  63.985  1.00  0.00    -0.703 OA 
HETATM   10  C   UNL     1     -10.083  13.666  64.597  1.00  0.00    -0.228 A  
HETATM   11  C   UNL     1     -11.029  12.788  64.066  1.00  0.00    -0.415 A  
HETATM   12  C   UNL     1     -11.796  14.699  65.968  1.00  0.00    -0.280 A  
HETATM   13  C   UNL     1     -12.354  12.879  64.503  1.00  0.00    -0.417 A  
HETATM   14  H   UNL     1     -14.210  12.111  64.282  1.00  0.00     0.000 HD 
HETATM   15  C   UNL     1     -12.744  13.818  65.449  1.00  0.00    -0.513 A  
BRANCH  11  16
HETATM   16  O   UNL     1     -10.793  11.825  63.118  1.00  0.00    -0.323 OA 
HETATM   17  C   UNL     1      -9.905  10.776  63.488  1.00  0.00    -0.347 C  
ENDBRANCH  11  16
ENDBRANCH   2   8
TORSDOF 5
ENDMDL
MODEL       71
REMARK 921   NORMALIZED FREE ENERGY PREDICTED BY IDOCK:   -4.50 KCAL/MOL
REMARK 922        TOTAL FREE ENERGY PREDICTED BY IDOCK:   -6.18 KCAL/MOL
REMARK 923 INTER-LIGAND FREE ENERGY PREDICTED BY IDOCK:   -5.82 KCAL/MOL
REMARK 924 INTRA-LIGAND FREE ENERGY PREDICTED BY IDOCK:   -0.36 KCAL/MOL
REMARK 927      BINDING AFFINITY PREDICTED BY RF-SCORE:    0.00 PKD
ROOT
HETATM    1  C   UNL     1     -11.101  15.888  68.331  1.00  0.00    -0.345 C  
HETATM    2  C   UNL     1     -10.854  14.590  68.562  1.00  0.00    -0.256 C  
ENDROOT
BRANCH   1   3
HETATM    3  C   UNL     1     -10.388  16.682  67.309  1.00  0.00    -0.298 C  
HETATM    4  O   UNL     1      -9.415  17.366  67.586  1.00  0.00    -0.246 OA 
BRANCH   3   5
HETATM    5  O   UNL     1     -11.023  16.630  66.113  1.00  0.00    -0.084 OA 
BRANCH   5   6
HETATM    6  C   UNL     1     -10.563  15.611  65.216  1.00  0.00    -0.426 C  
HETATM    7  C   UNL     1     -11.770  14.813  64.755  1.00  0.00    -0.422 C  
ENDBRANCH   5   6
ENDBRANCH   3   5
ENDBRANCH   1   3
BRANCH   2   8
HETATM    8  C   UNL     1     -11.641  13.735  69.461  1.00  0.00    -0.355 A  
HETATM    9  O   UNL     1     -13.583  11.374  72.269  1.00  0.00    -0.537 OA 
HETATM   10  C   UNL     1     -12.294  14.338  70.550  1.00  0.00    -0.430 A  
HETATM   11  C   UNL     1     -12.956  13.558  71.499  1.00  0.00    -0.355 A  
HETATM   12  C   UNL     1     -11.661  12.338  69.333  1.00  0.00    -0.392 A  
HETATM   13  C   UNL     1     -12.963  12.168  71.344  1.00  0.00    -0.257 A  
HETATM   14  H   UNL     1     -13.588  10.430  72.165  1.00  0.00     0.000 HD 
HETATM   15  C   UNL     1     -12.330  11.554  70.272  1.00  0.00    -0.355 A  
BRANCH  11  16
HETATM   16  O   UNL     1     -13.608  14.023  72.612  1.00  0.00    -0.536 OA 
HETATM   17  C   UNL     1     -13.281  15.344  73.033  1.00  0.00    -0.531 C  
ENDBRANCH  11  16
ENDBRANCH   2   8
TORSDOF 5
ENDMDL
MODEL       72
REMARK 921   NORMALIZED FREE ENERGY PREDICTED BY IDOCK:   -4.49 KCAL/MOL
REMARK 922        TOTAL FREE ENERGY PREDICTED BY IDOCK:   -6.16 KCAL/MOL
REMARK 923 INTER-LIGAND FREE ENERGY PREDICTED BY IDOCK:   -5.83 KCAL/MOL
REMARK 924 INTRA-LIGAND FREE ENERGY PREDICTED BY IDOCK:   -0.34 KCAL/MOL
REMARK 927      BINDING AFFINITY PREDICTED BY RF-SCORE:    0.00 PKD
ROOT
HETATM    1  C   UNL     1     -11.812  15.594  70.186  1.00  0.00    -0.381 C  
HETATM    2  C   UNL     1     -10.679  16.221  69.837  1.00  0.00    -0.322 C  
ENDROOT
BRANCH   1   3
HETATM    3  C   UNL     1     -11.937  14.749  71.392  1.00  0.00    -0.345 C  
HETATM    4  O   UNL     1     -11.364  15.025  72.435  1.00  0.00    -0.344 OA 
BRANCH   3   5
HETATM    5  O   UNL     1     -12.646  13.624  71.135  1.00  0.00    -0.350 OA 
BRANCH   5   6
HETATM    6  C   UNL     1     -12.106  12.776  70.113  1.00  0.00    -0.298 C  
HETATM    7  C   UNL     1     -12.217  11.339  70.590  1.00  0.00    -0.489 C  
ENDBRANCH   5   6
ENDBRANCH   3   5
ENDBRANCH   1   3
BRANCH   2   8
HETATM    8  C   UNL     1     -10.560  17.184  68.734  1.00  0.00    -0.336 A  
HETATM    9  O   UNL     1      -9.895  19.718  65.514  1.00  0.00    -0.322 OA 
HETATM   10  C   UNL     1     -10.798  16.729  67.426  1.00  0.00    -0.176 A  
HETATM   11  C   UNL     1     -10.585  17.571  66.333  1.00  0.00    -0.195 A  
HETATM   12  C   UNL     1     -10.107  18.497  68.936  1.00  0.00    -0.348 A  
HETATM   13  C   UNL     1     -10.136  18.876  66.564  1.00  0.00    -0.398 A  
HETATM   14  H   UNL     1      -9.591  20.604  65.670  1.00  0.00     0.000 HD 
HETATM   15  C   UNL     1      -9.902  19.346  67.849  1.00  0.00    -0.460 A  
BRANCH  11  16
HETATM   16  O   UNL     1     -10.757  17.239  65.014  1.00  0.00    -0.708 OA 
HETATM   17  C   UNL     1     -11.222  15.920  64.747  1.00  0.00    -0.355 C  
ENDBRANCH  11  16
ENDBRANCH   2   8
TORSDOF 5
ENDMDL
MODEL       73
REMARK 921   NORMALIZED FREE ENERGY PREDICTED BY IDOCK:   -4.47 KCAL/MOL
REMARK 922        TOTAL FREE ENERGY PREDICTED BY IDOCK:   -6.15 KCAL/MOL
REMARK 923 INTER-LIGAND FREE ENERGY PREDICTED BY IDOCK:   -5.66 KCAL/MOL
REMARK 924 INTRA-LIGAND FREE ENERGY PREDICTED BY IDOCK:   -0.49 KCAL/MOL
REMARK 927      BINDING AFFINITY PREDICTED BY RF-SCORE:    0.00 PKD
ROOT
HETATM    1  C   UNL     1      -9.993  12.203  66.596  1.00  0.00    -0.222 C  
HETATM    2  C   UNL     1     -11.178  12.310  67.217  1.00  0.00    -0.358 C  
ENDROOT
BRANCH   1   3
HETATM    3  C   UNL     1      -9.725  11.228  65.518  1.00  0.00    -0.229 C  
HETATM    4  O   UNL     1      -8.645  10.669  65.408  1.00  0.00    -0.177 OA 
BRANCH   3   5
HETATM    5  O   UNL     1     -10.764  11.153  64.652  1.00  0.00    -0.325 OA 
BRANCH   5   6
HETATM    6  C   UNL     1     -10.692  12.033  63.524  1.00  0.00    -0.455 C  
HETATM    7  C   UNL     1     -11.914  12.933  63.552  1.00  0.00    -0.629 C  
ENDBRANCH   5   6
ENDBRANCH   3   5
ENDBRANCH   1   3
BRANCH   2   8
HETATM    8  C   UNL     1     -11.525  13.360  68.183  1.00  0.00    -0.339 A  
HETATM    9  O   UNL     1     -12.118  16.375  70.975  1.00  0.00    -0.524 OA 
HETATM   10  C   UNL     1     -11.269  14.697  67.834  1.00  0.00    -0.318 A  
HETATM   11  C   UNL     1     -11.470  15.722  68.759  1.00  0.00    -0.388 A  
HETATM   12  C   UNL     1     -11.987  13.062  69.475  1.00  0.00    -0.350 A  
HETATM   13  C   UNL     1     -11.934  15.396  70.037  1.00  0.00    -0.356 A  
HETATM   14  H   UNL     1     -12.433  16.154  71.843  1.00  0.00     0.000 HD 
HETATM   15  C   UNL     1     -12.199  14.083  70.400  1.00  0.00    -0.433 A  
BRANCH  11  16
HETATM   16  O   UNL     1     -11.235  17.057  68.547  1.00  0.00    -0.250 OA 
HETATM   17  C   UNL     1      -9.913  17.415  68.161  1.00  0.00    -0.308 C  
ENDBRANCH  11  16
ENDBRANCH   2   8
TORSDOF 5
ENDMDL
MODEL       74
REMARK 921   NORMALIZED FREE ENERGY PREDICTED BY IDOCK:   -4.47 KCAL/MOL
REMARK 922        TOTAL FREE ENERGY PREDICTED BY IDOCK:   -6.14 KCAL/MOL
REMARK 923 INTER-LIGAND FREE ENERGY PREDICTED BY IDOCK:   -5.73 KCAL/MOL
REMARK 924 INTRA-LIGAND FREE ENERGY PREDICTED BY IDOCK:   -0.41 KCAL/MOL
REMARK 927      BINDING AFFINITY PREDICTED BY RF-SCORE:    0.00 PKD
ROOT
HETATM    1  C   UNL     1     -10.194   9.161  68.900  1.00  0.00    -0.221 C  
HETATM    2  C   UNL     1     -10.902  10.130  68.302  1.00  0.00    -0.297 C  
ENDROOT
BRANCH   1   3
HETATM    3  C   UNL     1     -10.518   8.624  70.239  1.00  0.00    -0.210 C  
HETATM    4  O   UNL     1     -10.495   7.426  70.476  1.00  0.00    -0.213 OA 
BRANCH   3   5
HETATM    5  O   UNL     1     -10.939   9.604  71.074  1.00  0.00    -0.315 OA 
BRANCH   5   6
HETATM    6  C   UNL     1     -12.014   9.247  71.951  1.00  0.00    -0.363 C  
HETATM    7  C   UNL     1     -13.119  10.274  71.780  1.00  0.00    -0.570 C  
ENDBRANCH   5   6
ENDBRANCH   3   5
ENDBRANCH   1   3
BRANCH   2   8
HETATM    8  C   UNL     1     -10.700  10.582  66.919  1.00  0.00    -0.281 A  
HETATM    9  O   UNL     1     -10.502  11.755  62.941  1.00  0.00    -0.653 OA 
HETATM   10  C   UNL     1     -11.331  11.768  66.507  1.00  0.00    -0.370 A  
HETATM   11  C   UNL     1     -11.269  12.178  65.174  1.00  0.00    -0.329 A  
HETATM   12  C   UNL     1     -10.001   9.811  65.977  1.00  0.00    -0.342 A  
HETATM   13  C   UNL     1     -10.562  11.392  64.259  1.00  0.00    -0.355 A  
HETATM   14  H   UNL     1     -10.022  11.221  62.319  1.00  0.00     0.000 HD 
HETATM   15  C   UNL     1      -9.926  10.221  64.646  1.00  0.00    -0.377 A  
BRANCH  11  16
HETATM   16  O   UNL     1     -11.860  13.298  64.647  1.00  0.00    -0.347 OA 
HETATM   17  C   UNL     1     -12.712  14.035  65.517  1.00  0.00    -0.486 C  
ENDBRANCH  11  16
ENDBRANCH   2   8
TORSDOF 5
ENDMDL
MODEL       75
REMARK 921   NORMALIZED FREE ENERGY PREDICTED BY IDOCK:   -4.45 KCAL/MOL
REMARK 922        TOTAL FREE ENERGY PREDICTED BY IDOCK:   -6.11 KCAL/MOL
REMARK 923 INTER-LIGAND FREE ENERGY PREDICTED BY IDOCK:   -5.75 KCAL/MOL
REMARK 924 INTRA-LIGAND FREE ENERGY PREDICTED BY IDOCK:   -0.36 KCAL/MOL
REMARK 927      BINDING AFFINITY PREDICTED BY RF-SCORE:    0.00 PKD
ROOT
HETATM    1  C   UNL     1     -11.991  15.495  69.673  1.00  0.00    -0.380 C  
HETATM    2  C   UNL     1     -10.757  16.009  69.785  1.00  0.00    -0.331 C  
ENDROOT
BRANCH   1   3
HETATM    3  C   UNL     1     -12.893  15.286  70.825  1.00  0.00    -0.437 C  
HETATM    4  O   UNL     1     -14.077  15.580  70.779  1.00  0.00    -0.378 OA 
BRANCH   3   5
HETATM    5  O   UNL     1     -12.211  14.854  71.913  1.00  0.00    -0.323 OA 
BRANCH   5   6
HETATM    6  C   UNL     1     -12.982  14.729  73.114  1.00  0.00    -0.517 C  
HETATM    7  C   UNL     1     -12.381  15.655  74.156  1.00  0.00    -0.799 C  
ENDBRANCH   5   6
ENDBRANCH   3   5
ENDBRANCH   1   3
BRANCH   2   8
HETATM    8  C   UNL     1      -9.894  16.369  68.652  1.00  0.00    -0.234 A  
HETATM    9  O   UNL     1      -7.611  17.745  65.470  1.00  0.00    -0.489 OA 
HETATM   10  C   UNL     1      -8.800  17.218  68.892  1.00  0.00    -0.173 A  
HETATM   11  C   UNL     1      -8.019  17.684  67.833  1.00  0.00    -0.231 A  
HETATM   12  C   UNL     1     -10.196  15.990  67.335  1.00  0.00    -0.273 A  
HETATM   13  C   UNL     1      -8.341  17.287  66.531  1.00  0.00    -0.277 A  
HETATM   14  H   UNL     1      -7.829  17.476  64.586  1.00  0.00     0.000 HD 
HETATM   15  C   UNL     1      -9.414  16.444  66.274  1.00  0.00    -0.347 A  
BRANCH  11  16
HETATM   16  O   UNL     1      -6.946  18.531  67.935  1.00  0.00    -0.214 OA 
HETATM   17  C   UNL     1      -7.065  19.597  68.871  1.00  0.00    -0.353 C  
ENDBRANCH  11  16
ENDBRANCH   2   8
TORSDOF 5
ENDMDL
MODEL       76
REMARK 921   NORMALIZED FREE ENERGY PREDICTED BY IDOCK:   -4.45 KCAL/MOL
REMARK 922        TOTAL FREE ENERGY PREDICTED BY IDOCK:   -6.11 KCAL/MOL
REMARK 923 INTER-LIGAND FREE ENERGY PREDICTED BY IDOCK:   -5.83 KCAL/MOL
REMARK 924 INTRA-LIGAND FREE ENERGY PREDICTED BY IDOCK:   -0.28 KCAL/MOL
REMARK 927      BINDING AFFINITY PREDICTED BY RF-SCORE:    0.00 PKD
ROOT
HETATM    1  C   UNL     1     -12.086  12.474  66.399  1.00  0.00    -0.279 C  
HETATM    2  C   UNL     1     -11.746  12.346  67.690  1.00  0.00    -0.412 C  
ENDROOT
BRANCH   1   3
HETATM    3  C   UNL     1     -12.186  13.778  65.710  1.00  0.00    -0.462 C  
HETATM    4  O   UNL     1     -13.183  14.102  65.083  1.00  0.00    -0.743 OA 
BRANCH   3   5
HETATM    5  O   UNL     1     -11.019  14.463  65.779  1.00  0.00    -0.300 OA 
BRANCH   5   6
HETATM    6  C   UNL     1     -10.933  15.618  64.936  1.00  0.00    -0.431 C  
HETATM    7  C   UNL     1     -10.365  16.759  65.762  1.00  0.00    -0.322 C  
ENDBRANCH   5   6
ENDBRANCH   3   5
ENDBRANCH   1   3
BRANCH   2   8
HETATM    8  C   UNL     1     -11.493  11.066  68.365  1.00  0.00    -0.378 A  
HETATM    9  O   UNL     1     -10.487   7.630  70.467  1.00  0.00    -0.214 OA 
HETATM   10  C   UNL     1     -11.842  10.948  69.721  1.00  0.00    -0.419 A  
HETATM   11  C   UNL     1     -11.516   9.797  70.440  1.00  0.00    -0.280 A  
HETATM   12  C   UNL     1     -10.813  10.013  67.735  1.00  0.00    -0.337 A  
HETATM   13  C   UNL     1     -10.842   8.762  69.785  1.00  0.00    -0.193 A  
HETATM   14  H   UNL     1     -10.028   6.927  70.023  1.00  0.00     0.000 HD 
HETATM   15  C   UNL     1     -10.493   8.856  68.445  1.00  0.00    -0.230 A  
BRANCH  11  16
HETATM   16  O   UNL     1     -11.781   9.573  71.767  1.00  0.00    -0.383 OA 
HETATM   17  C   UNL     1     -13.104   9.161  72.089  1.00  0.00    -0.446 C  
ENDBRANCH  11  16
ENDBRANCH   2   8
TORSDOF 5
ENDMDL
MODEL       77
REMARK 921   NORMALIZED FREE ENERGY PREDICTED BY IDOCK:   -4.43 KCAL/MOL
REMARK 922        TOTAL FREE ENERGY PREDICTED BY IDOCK:   -6.10 KCAL/MOL
REMARK 923 INTER-LIGAND FREE ENERGY PREDICTED BY IDOCK:   -5.78 KCAL/MOL
REMARK 924 INTRA-LIGAND FREE ENERGY PREDICTED BY IDOCK:   -0.32 KCAL/MOL
REMARK 927      BINDING AFFINITY PREDICTED BY RF-SCORE:    0.00 PKD
ROOT
HETATM    1  C   UNL     1     -12.397  14.355  69.399  1.00  0.00    -0.228 C  
HETATM    2  C   UNL     1     -11.748  13.212  69.130  1.00  0.00    -0.376 C  
ENDROOT
BRANCH   1   3
HETATM    3  C   UNL     1     -12.915  14.701  70.739  1.00  0.00    -0.347 C  
HETATM    4  O   UNL     1     -13.529  15.736  70.946  1.00  0.00    -0.568 OA 
BRANCH   3   5
HETATM    5  O   UNL     1     -12.518  13.799  71.669  1.00  0.00    -0.307 OA 
BRANCH   5   6
HETATM    6  C   UNL     1     -13.567  13.019  72.257  1.00  0.00    -0.547 C  
HETATM    7  C   UNL     1     -13.281  11.556  71.970  1.00  0.00    -0.443 C  
ENDBRANCH   5   6
ENDBRANCH   3   5
ENDBRANCH   1   3
BRANCH   2   8
HETATM    8  C   UNL     1     -11.091  12.903  67.853  1.00  0.00    -0.283 A  
HETATM    9  O   UNL     1      -9.376  11.664  64.281  1.00  0.00    -0.421 OA 
HETATM   10  C   UNL     1     -11.898  12.713  66.719  1.00  0.00    -0.440 A  
HETATM   11  C   UNL     1     -11.336  12.303  65.509  1.00  0.00    -0.349 A  
HETATM   12  C   UNL     1      -9.709  12.677  67.761  1.00  0.00    -0.206 A  
HETATM   13  C   UNL     1      -9.955  12.089  65.445  1.00  0.00    -0.253 A  
HETATM   14  H   UNL     1      -8.439  11.518  64.238  1.00  0.00     0.000 HD 
HETATM   15  C   UNL     1      -9.139  12.277  66.553  1.00  0.00    -0.188 A  
BRANCH  11  16
HETATM   16  O   UNL     1     -12.017  12.062  64.344  1.00  0.00    -0.347 OA 
HETATM   17  C   UNL     1     -12.225  13.181  63.488  1.00  0.00    -0.476 C  
ENDBRANCH  11  16
ENDBRANCH   2   8
TORSDOF 5
ENDMDL
MODEL       78
REMARK 921   NORMALIZED FREE ENERGY PREDICTED BY IDOCK:   -4.43 KCAL/MOL
REMARK 922        TOTAL FREE ENERGY PREDICTED BY IDOCK:   -6.09 KCAL/MOL
REMARK 923 INTER-LIGAND FREE ENERGY PREDICTED BY IDOCK:   -5.72 KCAL/MOL
REMARK 924 INTRA-LIGAND FREE ENERGY PREDICTED BY IDOCK:   -0.38 KCAL/MOL
REMARK 927      BINDING AFFINITY PREDICTED BY RF-SCORE:    0.00 PKD
ROOT
HETATM    1  C   UNL     1      -8.861  17.093  66.342  1.00  0.00    -0.288 C  
HETATM    2  C   UNL     1     -10.122  16.715  66.601  1.00  0.00    -0.305 C  
ENDROOT
BRANCH   1   3
HETATM    3  C   UNL     1      -8.443  18.507  66.230  1.00  0.00    -0.207 C  
HETATM    4  O   UNL     1      -7.310  18.868  66.508  1.00  0.00    -0.218 OA 
BRANCH   3   5
HETATM    5  O   UNL     1      -9.488  19.306  65.908  1.00  0.00    -0.429 OA 
BRANCH   5   6
HETATM    6  C   UNL     1      -9.680  20.442  66.759  1.00  0.00    -0.388 C  
HETATM    7  C   UNL     1     -10.241  19.948  68.081  1.00  0.00    -0.564 C  
ENDBRANCH   5   6
ENDBRANCH   3   5
ENDBRANCH   1   3
BRANCH   2   8
HETATM    8  C   UNL     1     -10.543  15.333  66.866  1.00  0.00    -0.304 A  
HETATM    9  O   UNL     1     -12.032  11.490  67.369  1.00  0.00    -0.623 OA 
HETATM   10  C   UNL     1     -10.377  14.380  65.848  1.00  0.00    -0.327 A  
HETATM   11  C   UNL     1     -10.866  13.082  66.004  1.00  0.00    -0.272 A  
HETATM   12  C   UNL     1     -11.206  14.969  68.049  1.00  0.00    -0.324 A  
HETATM   13  C   UNL     1     -11.520  12.746  67.194  1.00  0.00    -0.337 A  
HETATM   14  H   UNL     1     -12.476  11.262  68.177  1.00  0.00     0.000 HD 
HETATM   15  C   UNL     1     -11.689  13.671  68.215  1.00  0.00    -0.398 A  
BRANCH  11  16
HETATM   16  O   UNL     1     -10.787  12.074  65.078  1.00  0.00    -0.286 OA 
HETATM   17  C   UNL     1     -11.650  12.178  63.951  1.00  0.00    -0.448 C  
ENDBRANCH  11  16
ENDBRANCH   2   8
TORSDOF 5
ENDMDL
MODEL       79
REMARK 921   NORMALIZED FREE ENERGY PREDICTED BY IDOCK:   -4.41 KCAL/MOL
REMARK 922        TOTAL FREE ENERGY PREDICTED BY IDOCK:   -6.06 KCAL/MOL
REMARK 923 INTER-LIGAND FREE ENERGY PREDICTED BY IDOCK:   -5.69 KCAL/MOL
REMARK 924 INTRA-LIGAND FREE ENERGY PREDICTED BY IDOCK:   -0.37 KCAL/MOL
REMARK 927      BINDING AFFINITY PREDICTED BY RF-SCORE:    0.00 PKD
ROOT
HETATM    1  C   UNL     1     -12.399  14.290  70.214  1.00  0.00    -0.418 C  
HETATM    2  C   UNL     1     -12.695  12.989  70.360  1.00  0.00    -0.046 C  
ENDROOT
BRANCH   1   3
HETATM    3  C   UNL     1     -12.971  15.355  71.064  1.00  0.00    -0.492 C  
HETATM    4  O   UNL     1     -14.138  15.702  70.965  1.00  0.00    -0.499 OA 
BRANCH   3   5
HETATM    5  O   UNL     1     -12.021  15.931  71.839  1.00  0.00    -0.414 OA 
BRANCH   5   6
HETATM    6  C   UNL     1     -11.810  15.315  73.115  1.00  0.00    -0.387 C  
HETATM    7  C   UNL     1     -12.647  16.061  74.140  1.00  0.00    -0.714 C  
ENDBRANCH   5   6
ENDBRANCH   3   5
ENDBRANCH   1   3
BRANCH   2   8
HETATM    8  C   UNL     1     -12.035  11.895  69.636  1.00  0.00    -0.365 A  
HETATM    9  O   UNL     1      -9.833   8.926  67.745  1.00  0.00    -0.152 OA 
HETATM   10  C   UNL     1     -11.559  10.799  70.375  1.00  0.00    -0.431 A  
HETATM   11  C   UNL     1     -10.822   9.790  69.753  1.00  0.00    -0.257 A  
HETATM   12  C   UNL     1     -11.766  11.967  68.260  1.00  0.00    -0.396 A  
HETATM   13  C   UNL     1     -10.572   9.886  68.381  1.00  0.00    -0.222 A  
HETATM   14  H   UNL     1      -9.663   8.991  66.813  1.00  0.00     0.000 HD 
HETATM   15  C   UNL     1     -11.039  10.957  67.631  1.00  0.00    -0.376 A  
BRANCH  11  16
HETATM   16  O   UNL     1     -10.286   8.688  70.367  1.00  0.00    -0.185 OA 
HETATM   17  C   UNL     1     -10.219   8.723  71.789  1.00  0.00    -0.338 C  
ENDBRANCH  11  16
ENDBRANCH   2   8
TORSDOF 5
ENDMDL
MODEL       80
REMARK 921   NORMALIZED FREE ENERGY PREDICTED BY IDOCK:   -4.41 KCAL/MOL
REMARK 922        TOTAL FREE ENERGY PREDICTED BY IDOCK:   -6.06 KCAL/MOL
REMARK 923 INTER-LIGAND FREE ENERGY PREDICTED BY IDOCK:   -5.61 KCAL/MOL
REMARK 924 INTRA-LIGAND FREE ENERGY PREDICTED BY IDOCK:   -0.45 KCAL/MOL
REMARK 927      BINDING AFFINITY PREDICTED BY RF-SCORE:    0.00 PKD
ROOT
HETATM    1  C   UNL     1      -8.880   8.922  65.657  1.00  0.00    -0.230 C  
HETATM    2  C   UNL     1      -9.838   9.752  66.098  1.00  0.00    -0.329 C  
ENDROOT
BRANCH   1   3
HETATM    3  C   UNL     1      -8.434   7.726  66.402  1.00  0.00    -0.136 C  
HETATM    4  O   UNL     1      -7.578   7.788  67.271  1.00  0.00    -0.100 OA 
BRANCH   3   5
HETATM    5  O   UNL     1      -9.005   6.599  65.912  1.00  0.00    -0.147 OA 
BRANCH   5   6
HETATM    6  C   UNL     1      -9.607   5.739  66.887  1.00  0.00    -0.141 C  
HETATM    7  C   UNL     1     -11.071   6.126  67.013  1.00  0.00    -0.332 C  
ENDBRANCH   5   6
ENDBRANCH   3   5
ENDBRANCH   1   3
BRANCH   2   8
HETATM    8  C   UNL     1     -10.408  10.860  65.320  1.00  0.00    -0.334 A  
HETATM    9  O   UNL     1     -12.371  13.828  63.182  1.00  0.00    -1.099 OA 
HETATM   10  C   UNL     1     -11.147  11.841  66.003  1.00  0.00    -0.363 A  
HETATM   11  C   UNL     1     -11.808  12.848  65.298  1.00  0.00    -0.392 A  
HETATM   12  C   UNL     1     -10.336  10.902  63.919  1.00  0.00    -0.397 A  
HETATM   13  C   UNL     1     -11.716  12.868  63.903  1.00  0.00    -0.460 A  
HETATM   14  H   UNL     1     -12.309  13.841  62.235  1.00  0.00     0.000 HD 
HETATM   15  C   UNL     1     -10.985  11.912  63.211  1.00  0.00    -0.399 A  
BRANCH  11  16
HETATM   16  O   UNL     1     -12.576  13.844  65.846  1.00  0.00    -0.478 OA 
HETATM   17  C   UNL     1     -12.181  14.318  67.128  1.00  0.00    -0.277 C  
ENDBRANCH  11  16
ENDBRANCH   2   8
TORSDOF 5
ENDMDL
MODEL       81
REMARK 921   NORMALIZED FREE ENERGY PREDICTED BY IDOCK:   -4.37 KCAL/MOL
REMARK 922        TOTAL FREE ENERGY PREDICTED BY IDOCK:   -6.02 KCAL/MOL
REMARK 923 INTER-LIGAND FREE ENERGY PREDICTED BY IDOCK:   -5.64 KCAL/MOL
REMARK 924 INTRA-LIGAND FREE ENERGY PREDICTED BY IDOCK:   -0.38 KCAL/MOL
REMARK 927      BINDING AFFINITY PREDICTED BY RF-SCORE:    0.00 PKD
ROOT
HETATM    1  C   UNL     1     -10.875  15.392  65.077  1.00  0.00    -0.462 C  
HETATM    2  C   UNL     1     -10.621  15.389  66.394  1.00  0.00    -0.307 C  
ENDROOT
BRANCH   1   3
HETATM    3  C   UNL     1     -12.002  14.657  64.464  1.00  0.00    -0.460 C  
HETATM    4  O   UNL     1     -12.801  15.205  63.721  1.00  0.00    -0.636 OA 
BRANCH   3   5
HETATM    5  O   UNL     1     -12.071  13.386  64.927  1.00  0.00    -0.356 OA 
BRANCH   5   6
HETATM    6  C   UNL     1     -12.184  12.370  63.923  1.00  0.00    -0.513 C  
HETATM    7  C   UNL     1     -10.868  11.614  63.873  1.00  0.00    -0.471 C  
ENDBRANCH   5   6
ENDBRANCH   3   5
ENDBRANCH   1   3
BRANCH   2   8
HETATM    8  C   UNL     1      -9.606  16.222  67.052  1.00  0.00    -0.240 A  
HETATM    9  O   UNL     1      -6.804  18.846  68.633  1.00  0.00    -0.255 OA 
HETATM   10  C   UNL     1     -10.034  17.369  67.744  1.00  0.00    -0.301 A  
HETATM   11  C   UNL     1      -9.104  18.257  68.286  1.00  0.00    -0.305 A  
HETATM   12  C   UNL     1      -8.232  15.974  66.912  1.00  0.00    -0.277 A  
HETATM   13  C   UNL     1      -7.741  17.983  68.134  1.00  0.00    -0.272 A  
HETATM   14  H   UNL     1      -5.878  18.660  68.530  1.00  0.00     0.000 HD 
HETATM   15  C   UNL     1      -7.298  16.853  67.460  1.00  0.00    -0.177 A  
BRANCH  11  16
HETATM   16  O   UNL     1      -9.394  19.416  68.959  1.00  0.00    -0.373 OA 
HETATM   17  C   UNL     1     -10.270  20.327  68.305  1.00  0.00    -0.232 C  
ENDBRANCH  11  16
ENDBRANCH   2   8
TORSDOF 5
ENDMDL
MODEL       82
REMARK 921   NORMALIZED FREE ENERGY PREDICTED BY IDOCK:   -4.37 KCAL/MOL
REMARK 922        TOTAL FREE ENERGY PREDICTED BY IDOCK:   -6.01 KCAL/MOL
REMARK 923 INTER-LIGAND FREE ENERGY PREDICTED BY IDOCK:   -5.59 KCAL/MOL
REMARK 924 INTRA-LIGAND FREE ENERGY PREDICTED BY IDOCK:   -0.42 KCAL/MOL
REMARK 927      BINDING AFFINITY PREDICTED BY RF-SCORE:    0.00 PKD
ROOT
HETATM    1  C   UNL     1     -10.543  17.322  66.729  1.00  0.00    -0.192 C  
HETATM    2  C   UNL     1     -10.950  16.724  67.859  1.00  0.00    -0.260 C  
ENDROOT
BRANCH   1   3
HETATM    3  C   UNL     1     -10.005  18.698  66.686  1.00  0.00    -0.365 C  
HETATM    4  O   UNL     1     -10.678  19.665  67.010  1.00  0.00    -0.470 OA 
BRANCH   3   5
HETATM    5  O   UNL     1      -8.762  18.725  66.148  1.00  0.00    -0.439 OA 
BRANCH   5   6
HETATM    6  C   UNL     1      -7.759  19.367  66.946  1.00  0.00    -0.251 C  
HETATM    7  C   UNL     1      -7.382  18.423  68.074  1.00  0.00    -0.256 C  
ENDBRANCH   5   6
ENDBRANCH   3   5
ENDBRANCH   1   3
BRANCH   2   8
HETATM    8  C   UNL     1     -11.349  15.314  67.961  1.00  0.00    -0.345 A  
HETATM    9  O   UNL     1     -12.115  11.256  68.389  1.00  0.00    -0.598 OA 
HETATM   10  C   UNL     1     -11.558  14.772  69.241  1.00  0.00    -0.331 A  
HETATM   11  C   UNL     1     -11.822  13.411  69.401  1.00  0.00    -0.335 A  
HETATM   12  C   UNL     1     -11.411  14.473  66.839  1.00  0.00    -0.375 A  
HETATM   13  C   UNL     1     -11.882  12.598  68.265  1.00  0.00    -0.306 A  
HETATM   14  H   UNL     1     -12.156  10.703  67.618  1.00  0.00     0.000 HD 
HETATM   15  C   UNL     1     -11.685  13.114  66.991  1.00  0.00    -0.431 A  
BRANCH  11  16
HETATM   16  O   UNL     1     -12.019  12.763  70.593  1.00  0.00    -0.300 OA 
HETATM   17  C   UNL     1     -12.997  13.321  71.464  1.00  0.00    -0.337 C  
ENDBRANCH  11  16
ENDBRANCH   2   8
TORSDOF 5
ENDMDL
MODEL       83
REMARK 921   NORMALIZED FREE ENERGY PREDICTED BY IDOCK:   -4.35 KCAL/MOL
REMARK 922        TOTAL FREE ENERGY PREDICTED BY IDOCK:   -5.99 KCAL/MOL
REMARK 923 INTER-LIGAND FREE ENERGY PREDICTED BY IDOCK:   -5.61 KCAL/MOL
REMARK 924 INTRA-LIGAND FREE ENERGY PREDICTED BY IDOCK:   -0.39 KCAL/MOL
REMARK 927      BINDING AFFINITY PREDICTED BY RF-SCORE:    0.00 PKD
ROOT
HETATM    1  C   UNL     1     -10.077  11.243  68.473  1.00  0.00    -0.210 C  
HETATM    2  C   UNL     1     -10.257  10.042  69.045  1.00  0.00    -0.216 C  
ENDROOT
BRANCH   1   3
HETATM    3  C   UNL     1      -9.155  11.475  67.341  1.00  0.00    -0.166 C  
HETATM    4  O   UNL     1      -8.676  12.575  67.115  1.00  0.00    -0.187 OA 
BRANCH   3   5
HETATM    5  O   UNL     1      -9.032  10.367  66.571  1.00  0.00    -0.143 OA 
BRANCH   5   6
HETATM    6  C   UNL     1      -8.844  10.608  65.171  1.00  0.00    -0.193 C  
HETATM    7  C   UNL     1     -10.213  10.791  64.540  1.00  0.00    -0.428 C  
ENDBRANCH   5   6
ENDBRANCH   3   5
ENDBRANCH   1   3
BRANCH   2   8
HETATM    8  C   UNL     1     -11.269   9.746  70.067  1.00  0.00    -0.297 A  
HETATM    9  O   UNL     1     -13.892   9.083  73.216  1.00  0.00    -1.159 OA 
HETATM   10  C   UNL     1     -12.028  10.811  70.581  1.00  0.00    -0.466 A  
HETATM   11  C   UNL     1     -12.918  10.603  71.636  1.00  0.00    -0.477 A  
HETATM   12  C   UNL     1     -11.415   8.465  70.622  1.00  0.00    -0.235 A  
HETATM   13  C   UNL     1     -13.046   9.315  72.167  1.00  0.00    -0.443 A  
HETATM   14  H   UNL     1     -13.979   8.209  73.577  1.00  0.00     0.000 HD 
HETATM   15  C   UNL     1     -12.310   8.248  71.669  1.00  0.00    -0.349 A  
BRANCH  11  16
HETATM   16  O   UNL     1     -13.693  11.561  72.237  1.00  0.00    -0.158 OA 
HETATM   17  C   UNL     1     -13.293  12.913  72.045  1.00  0.00    -0.482 C  
ENDBRANCH  11  16
ENDBRANCH   2   8
TORSDOF 5
ENDMDL
MODEL       84
REMARK 921   NORMALIZED FREE ENERGY PREDICTED BY IDOCK:   -4.35 KCAL/MOL
REMARK 922        TOTAL FREE ENERGY PREDICTED BY IDOCK:   -5.99 KCAL/MOL
REMARK 923 INTER-LIGAND FREE ENERGY PREDICTED BY IDOCK:   -5.62 KCAL/MOL
REMARK 924 INTRA-LIGAND FREE ENERGY PREDICTED BY IDOCK:   -0.37 KCAL/MOL
REMARK 927      BINDING AFFINITY PREDICTED BY RF-SCORE:    0.00 PKD
ROOT
HETATM    1  C   UNL     1     -12.300  13.832  70.584  1.00  0.00    -0.445 C  
HETATM    2  C   UNL     1     -11.741  12.996  69.695  1.00  0.00    -0.364 C  
ENDROOT
BRANCH   1   3
HETATM    3  C   UNL     1     -12.599  15.249  70.290  1.00  0.00    -0.347 C  
HETATM    4  O   UNL     1     -12.110  15.826  69.331  1.00  0.00    -0.354 OA 
BRANCH   3   5
HETATM    5  O   UNL     1     -13.359  15.804  71.264  1.00  0.00    -0.532 OA 
BRANCH   5   6
HETATM    6  C   UNL     1     -13.339  15.123  72.525  1.00  0.00    -0.441 C  
HETATM    7  C   UNL     1     -12.742  16.065  73.556  1.00  0.00    -0.702 C  
ENDBRANCH   5   6
ENDBRANCH   3   5
ENDBRANCH   1   3
BRANCH   2   8
HETATM    8  C   UNL     1     -11.567  11.552  69.899  1.00  0.00    -0.387 A  
HETATM    9  O   UNL     1     -11.361   7.417  70.211  1.00  0.00    -0.330 OA 
HETATM   10  C   UNL     1     -10.964  10.802  68.875  1.00  0.00    -0.289 A  
HETATM   11  C   UNL     1     -10.882   9.412  68.968  1.00  0.00    -0.136 A  
HETATM   12  C   UNL     1     -12.087  10.890  71.023  1.00  0.00    -0.425 A  
HETATM   13  C   UNL     1     -11.404   8.780  70.100  1.00  0.00    -0.090 A  
HETATM   14  H   UNL     1     -11.716   6.987  70.980  1.00  0.00     0.000 HD 
HETATM   15  C   UNL     1     -11.998   9.502  71.127  1.00  0.00    -0.429 A  
BRANCH  11  16
HETATM   16  O   UNL     1     -10.341   8.572  68.029  1.00  0.00    -0.211 OA 
HETATM   17  C   UNL     1      -9.033   8.893  67.569  1.00  0.00    -0.133 C  
ENDBRANCH  11  16
ENDBRANCH   2   8
TORSDOF 5
ENDMDL
MODEL       85
REMARK 921   NORMALIZED FREE ENERGY PREDICTED BY IDOCK:   -4.32 KCAL/MOL
REMARK 922        TOTAL FREE ENERGY PREDICTED BY IDOCK:   -5.95 KCAL/MOL
REMARK 923 INTER-LIGAND FREE ENERGY PREDICTED BY IDOCK:   -5.65 KCAL/MOL
REMARK 924 INTRA-LIGAND FREE ENERGY PREDICTED BY IDOCK:   -0.30 KCAL/MOL
REMARK 927      BINDING AFFINITY PREDICTED BY RF-SCORE:    0.00 PKD
ROOT
HETATM    1  C   UNL     1     -10.577  14.985  65.009  1.00  0.00    -0.437 C  
HETATM    2  C   UNL     1     -11.103  13.980  65.726  1.00  0.00    -0.305 C  
ENDROOT
BRANCH   1   3
HETATM    3  C   UNL     1     -10.989  16.396  65.163  1.00  0.00    -0.232 C  
HETATM    4  O   UNL     1     -11.441  17.042  64.230  1.00  0.00    -1.124 OA 
BRANCH   3   5
HETATM    5  O   UNL     1     -10.688  16.865  66.398  1.00  0.00    -0.220 OA 
BRANCH   5   6
HETATM    6  C   UNL     1     -10.767  18.287  66.553  1.00  0.00    -0.170 C  
HETATM    7  C   UNL     1      -9.459  18.766  67.157  1.00  0.00    -0.328 C  
ENDBRANCH   5   6
ENDBRANCH   3   5
ENDBRANCH   1   3
BRANCH   2   8
HETATM    8  C   UNL     1     -10.617  12.594  65.706  1.00  0.00    -0.296 A  
HETATM    9  O   UNL     1      -9.578   8.581  65.474  1.00  0.00    -0.444 OA 
HETATM   10  C   UNL     1     -10.229  12.042  64.473  1.00  0.00    -0.318 A  
HETATM   11  C   UNL     1      -9.872  10.697  64.380  1.00  0.00    -0.334 A  
HETATM   12  C   UNL     1     -10.639  11.780  66.849  1.00  0.00    -0.270 A  
HETATM   13  C   UNL     1      -9.900   9.909  65.536  1.00  0.00    -0.311 A  
HETATM   14  H   UNL     1      -9.598   8.047  66.258  1.00  0.00     0.000 HD 
HETATM   15  C   UNL     1     -10.273  10.437  66.764  1.00  0.00    -0.282 A  
BRANCH  11  16
HETATM   16  O   UNL     1      -9.500  10.039  63.236  1.00  0.00    -0.295 OA 
HETATM   17  C   UNL     1      -8.660  10.755  62.337  1.00  0.00    -0.281 C  
ENDBRANCH  11  16
ENDBRANCH   2   8
TORSDOF 5
ENDMDL
MODEL       86
REMARK 921   NORMALIZED FREE ENERGY PREDICTED BY IDOCK:   -4.28 KCAL/MOL
REMARK 922        TOTAL FREE ENERGY PREDICTED BY IDOCK:   -5.90 KCAL/MOL
REMARK 923 INTER-LIGAND FREE ENERGY PREDICTED BY IDOCK:   -5.51 KCAL/MOL
REMARK 924 INTRA-LIGAND FREE ENERGY PREDICTED BY IDOCK:   -0.39 KCAL/MOL
REMARK 927      BINDING AFFINITY PREDICTED BY RF-SCORE:    0.00 PKD
ROOT
HETATM    1  C   UNL     1     -10.994  13.662  64.758  1.00  0.00    -0.384 C  
HETATM    2  C   UNL     1     -11.680  12.734  65.443  1.00  0.00    -0.425 C  
ENDROOT
BRANCH   1   3
HETATM    3  C   UNL     1     -11.521  15.010  64.461  1.00  0.00    -0.318 C  
HETATM    4  O   UNL     1     -12.621  15.175  63.957  1.00  0.00    -0.791 OA 
BRANCH   3   5
HETATM    5  O   UNL     1     -10.596  15.967  64.711  1.00  0.00    -0.600 OA 
BRANCH   5   6
HETATM    6  C   UNL     1     -10.293  16.186  66.094  1.00  0.00    -0.339 C  
HETATM    7  C   UNL     1      -8.871  16.710  66.185  1.00  0.00    -0.323 C  
ENDBRANCH   5   6
ENDBRANCH   3   5
ENDBRANCH   1   3
BRANCH   2   8
HETATM    8  C   UNL     1     -11.134  11.444  65.884  1.00  0.00    -0.225 A  
HETATM    9  O   UNL     1      -9.326   8.001  67.338  1.00  0.00    -0.140 OA 
HETATM   10  C   UNL     1     -11.347  11.051  67.216  1.00  0.00    -0.265 A  
HETATM   11  C   UNL     1     -10.751   9.893  67.718  1.00  0.00    -0.277 A  
HETATM   12  C   UNL     1     -10.315  10.660  65.057  1.00  0.00    -0.341 A  
HETATM   13  C   UNL     1      -9.943   9.129  66.870  1.00  0.00    -0.238 A  
HETATM   14  H   UNL     1      -8.777   7.482  66.762  1.00  0.00     0.000 HD 
HETATM   15  C   UNL     1      -9.725   9.496  65.549  1.00  0.00    -0.344 A  
BRANCH  11  16
HETATM   16  O   UNL     1     -10.864   9.419  69.000  1.00  0.00    -0.211 OA 
HETATM   17  C   UNL     1     -10.823  10.390  70.041  1.00  0.00    -0.289 C  
ENDBRANCH  11  16
ENDBRANCH   2   8
TORSDOF 5
ENDMDL
MODEL       87
REMARK 921   NORMALIZED FREE ENERGY PREDICTED BY IDOCK:   -4.26 KCAL/MOL
REMARK 922        TOTAL FREE ENERGY PREDICTED BY IDOCK:   -5.87 KCAL/MOL
REMARK 923 INTER-LIGAND FREE ENERGY PREDICTED BY IDOCK:   -5.58 KCAL/MOL
REMARK 924 INTRA-LIGAND FREE ENERGY PREDICTED BY IDOCK:   -0.29 KCAL/MOL
REMARK 927      BINDING AFFINITY PREDICTED BY RF-SCORE:    0.00 PKD
ROOT
HETATM    1  C   UNL     1     -10.439  15.923  67.994  1.00  0.00    -0.274 C  
HETATM    2  C   UNL     1     -11.512  15.144  67.788  1.00  0.00    -0.329 C  
ENDROOT
BRANCH   1   3
HETATM    3  C   UNL     1     -10.502  17.399  68.035  1.00  0.00    -0.383 C  
HETATM    4  O   UNL     1     -10.397  18.020  69.082  1.00  0.00    -0.322 OA 
BRANCH   3   5
HETATM    5  O   UNL     1     -10.797  17.914  66.818  1.00  0.00    -0.209 OA 
BRANCH   5   6
HETATM    6  C   UNL     1      -9.717  18.582  66.153  1.00  0.00    -0.232 C  
HETATM    7  C   UNL     1      -9.878  20.075  66.382  1.00  0.00    -0.578 C  
ENDBRANCH   5   6
ENDBRANCH   3   5
ENDBRANCH   1   3
BRANCH   2   8
HETATM    8  C   UNL     1     -11.514  13.679  67.889  1.00  0.00    -0.348 A  
HETATM    9  O   UNL     1     -11.168   9.567  68.347  1.00  0.00    -0.484 OA 
HETATM   10  C   UNL     1     -11.688  13.099  69.157  1.00  0.00    -0.376 A  
HETATM   11  C   UNL     1     -11.580  11.718  69.326  1.00  0.00    -0.315 A  
HETATM   12  C   UNL     1     -11.233  12.855  66.788  1.00  0.00    -0.337 A  
HETATM   13  C   UNL     1     -11.303  10.921  68.211  1.00  0.00    -0.308 A  
HETATM   14  H   UNL     1     -10.979   9.026  67.590  1.00  0.00     0.000 HD 
HETATM   15  C   UNL     1     -11.134  11.473  66.948  1.00  0.00    -0.366 A  
BRANCH  11  16
HETATM   16  O   UNL     1     -11.705  11.038  70.511  1.00  0.00    -0.322 OA 
HETATM   17  C   UNL     1     -12.791  11.419  71.349  1.00  0.00    -0.397 C  
ENDBRANCH  11  16
ENDBRANCH   2   8
TORSDOF 5
ENDMDL
MODEL       88
REMARK 921   NORMALIZED FREE ENERGY PREDICTED BY IDOCK:   -4.25 KCAL/MOL
REMARK 922        TOTAL FREE ENERGY PREDICTED BY IDOCK:   -5.86 KCAL/MOL
REMARK 923 INTER-LIGAND FREE ENERGY PREDICTED BY IDOCK:   -5.58 KCAL/MOL
REMARK 924 INTRA-LIGAND FREE ENERGY PREDICTED BY IDOCK:   -0.28 KCAL/MOL
REMARK 927      BINDING AFFINITY PREDICTED BY RF-SCORE:    0.00 PKD
ROOT
HETATM    1  C   UNL     1     -10.834  13.491  66.557  1.00  0.00    -0.283 C  
HETATM    2  C   UNL     1     -10.899  14.746  67.029  1.00  0.00    -0.315 C  
ENDROOT
BRANCH   1   3
HETATM    3  C   UNL     1     -12.006  12.596  66.463  1.00  0.00    -0.331 C  
HETATM    4  O   UNL     1     -12.121  11.608  67.171  1.00  0.00    -0.575 OA 
BRANCH   3   5
HETATM    5  O   UNL     1     -12.821  12.957  65.443  1.00  0.00    -0.599 OA 
BRANCH   5   6
HETATM    6  C   UNL     1     -12.165  13.244  64.202  1.00  0.00    -0.401 C  
HETATM    7  C   UNL     1     -12.120  11.962  63.389  1.00  0.00    -0.539 C  
ENDBRANCH   5   6
ENDBRANCH   3   5
ENDBRANCH   1   3
BRANCH   2   8
HETATM    8  C   UNL     1      -9.792  15.710  66.999  1.00  0.00    -0.237 A  
HETATM    9  O   UNL     1      -6.665  18.400  66.523  1.00  0.00    -0.184 OA 
HETATM   10  C   UNL     1     -10.051  17.006  66.522  1.00  0.00    -0.318 A  
HETATM   11  C   UNL     1      -9.011  17.923  66.362  1.00  0.00    -0.227 A  
HETATM   12  C   UNL     1      -8.475  15.343  67.317  1.00  0.00    -0.214 A  
HETATM   13  C   UNL     1      -7.709  17.532  66.690  1.00  0.00    -0.254 A  
HETATM   14  H   UNL     1      -5.781  18.134  66.745  1.00  0.00     0.000 HD 
HETATM   15  C   UNL     1      -7.433  16.258  67.169  1.00  0.00    -0.238 A  
BRANCH  11  16
HETATM   16  O   UNL     1      -9.132  19.204  65.886  1.00  0.00    -0.436 OA 
HETATM   17  C   UNL     1      -9.596  20.183  66.809  1.00  0.00    -0.427 C  
ENDBRANCH  11  16
ENDBRANCH   2   8
TORSDOF 5
ENDMDL
MODEL       89
REMARK 921   NORMALIZED FREE ENERGY PREDICTED BY IDOCK:   -4.22 KCAL/MOL
REMARK 922        TOTAL FREE ENERGY PREDICTED BY IDOCK:   -5.82 KCAL/MOL
REMARK 923 INTER-LIGAND FREE ENERGY PREDICTED BY IDOCK:   -5.55 KCAL/MOL
REMARK 924 INTRA-LIGAND FREE ENERGY PREDICTED BY IDOCK:   -0.27 KCAL/MOL
REMARK 927      BINDING AFFINITY PREDICTED BY RF-SCORE:    0.00 PKD
ROOT
HETATM    1  C   UNL     1     -11.885  14.942  69.590  1.00  0.00    -0.356 C  
HETATM    2  C   UNL     1     -10.691  15.510  69.818  1.00  0.00    -0.301 C  
ENDROOT
BRANCH   1   3
HETATM    3  C   UNL     1     -12.800  14.511  70.667  1.00  0.00    -0.340 C  
HETATM    4  O   UNL     1     -13.405  15.315  71.360  1.00  0.00    -0.419 OA 
BRANCH   3   5
HETATM    5  O   UNL     1     -12.769  13.167  70.832  1.00  0.00    -0.307 OA 
BRANCH   5   6
HETATM    6  C   UNL     1     -13.437  12.674  72.000  1.00  0.00    -0.418 C  
HETATM    7  C   UNL     1     -13.214  11.174  72.069  1.00  0.00    -0.428 C  
ENDBRANCH   5   6
ENDBRANCH   3   5
ENDBRANCH   1   3
BRANCH   2   8
HETATM    8  C   UNL     1      -9.825  16.084  68.780  1.00  0.00    -0.223 A  
HETATM    9  O   UNL     1      -7.574  17.487  65.586  1.00  0.00    -0.480 OA 
HETATM   10  C   UNL     1     -10.386  17.008  67.881  1.00  0.00    -0.338 A  
HETATM   11  C   UNL     1      -9.640  17.493  66.806  1.00  0.00    -0.282 A  
HETATM   12  C   UNL     1      -8.503  15.653  68.589  1.00  0.00    -0.179 A  
HETATM   13  C   UNL     1      -8.324  17.049  66.643  1.00  0.00    -0.250 A  
HETATM   14  H   UNL     1      -6.681  17.186  65.474  1.00  0.00     0.000 HD 
HETATM   15  C   UNL     1      -7.750  16.142  67.523  1.00  0.00    -0.170 A  
BRANCH  11  16
HETATM   16  O   UNL     1     -10.080  18.375  65.852  1.00  0.00    -0.540 OA 
HETATM   17  C   UNL     1     -10.492  19.657  66.315  1.00  0.00    -0.519 C  
ENDBRANCH  11  16
ENDBRANCH   2   8
TORSDOF 5
ENDMDL
MODEL       90
REMARK 921   NORMALIZED FREE ENERGY PREDICTED BY IDOCK:   -4.22 KCAL/MOL
REMARK 922        TOTAL FREE ENERGY PREDICTED BY IDOCK:   -5.82 KCAL/MOL
REMARK 923 INTER-LIGAND FREE ENERGY PREDICTED BY IDOCK:   -5.44 KCAL/MOL
REMARK 924 INTRA-LIGAND FREE ENERGY PREDICTED BY IDOCK:   -0.38 KCAL/MOL
REMARK 927      BINDING AFFINITY PREDICTED BY RF-SCORE:    0.00 PKD
ROOT
HETATM    1  C   UNL     1     -10.935   9.741  69.664  1.00  0.00    -0.269 C  
HETATM    2  C   UNL     1     -11.300  10.611  68.710  1.00  0.00    -0.339 C  
ENDROOT
BRANCH   1   3
HETATM    3  C   UNL     1     -10.554   8.340  69.384  1.00  0.00    -0.196 C  
HETATM    4  O   UNL     1     -10.208   7.976  68.271  1.00  0.00    -0.194 OA 
BRANCH   3   5
HETATM    5  O   UNL     1     -10.756   7.549  70.465  1.00  0.00    -0.225 OA 
BRANCH   5   6
HETATM    6  C   UNL     1     -11.848   7.928  71.310  1.00  0.00    -0.296 C  
HETATM    7  C   UNL     1     -11.410   7.744  72.753  1.00  0.00    -0.446 C  
ENDBRANCH   5   6
ENDBRANCH   3   5
ENDBRANCH   1   3
BRANCH   2   8
HETATM    8  C   UNL     1     -11.540  12.043  68.932  1.00  0.00    -0.377 A  
HETATM    9  O   UNL     1     -12.598  16.003  69.592  1.00  0.00    -0.479 OA 
HETATM   10  C   UNL     1     -11.893  12.466  70.225  1.00  0.00    -0.315 A  
HETATM   11  C   UNL     1     -12.246  13.795  70.464  1.00  0.00    -0.369 A  
HETATM   12  C   UNL     1     -11.542  12.971  67.879  1.00  0.00    -0.385 A  
HETATM   13  C   UNL     1     -12.235  14.699  69.396  1.00  0.00    -0.235 A  
HETATM   14  H   UNL     1     -12.591  16.616  68.868  1.00  0.00     0.000 HD 
HETATM   15  C   UNL     1     -11.883  14.302  68.113  1.00  0.00    -0.374 A  
BRANCH  11  16
HETATM   16  O   UNL     1     -12.630  14.323  71.670  1.00  0.00    -0.329 OA 
HETATM   17  C   UNL     1     -13.569  13.564  72.424  1.00  0.00    -0.608 C  
ENDBRANCH  11  16
ENDBRANCH   2   8
TORSDOF 5
ENDMDL
MODEL       91
REMARK 921   NORMALIZED FREE ENERGY PREDICTED BY IDOCK:   -4.20 KCAL/MOL
REMARK 922        TOTAL FREE ENERGY PREDICTED BY IDOCK:   -5.80 KCAL/MOL
REMARK 923 INTER-LIGAND FREE ENERGY PREDICTED BY IDOCK:   -5.39 KCAL/MOL
REMARK 924 INTRA-LIGAND FREE ENERGY PREDICTED BY IDOCK:   -0.41 KCAL/MOL
REMARK 927      BINDING AFFINITY PREDICTED BY RF-SCORE:    0.00 PKD
ROOT
HETATM    1  C   UNL     1      -8.944  17.347  66.855  1.00  0.00    -0.260 C  
HETATM    2  C   UNL     1      -9.004  16.181  66.194  1.00  0.00    -0.372 C  
ENDROOT
BRANCH   1   3
HETATM    3  C   UNL     1      -8.121  18.492  66.413  1.00  0.00    -0.273 C  
HETATM    4  O   UNL     1      -7.305  18.388  65.510  1.00  0.00    -0.534 OA 
BRANCH   3   5
HETATM    5  O   UNL     1      -8.317  19.575  67.202  1.00  0.00    -0.275 OA 
BRANCH   5   6
HETATM    6  C   UNL     1      -8.238  19.332  68.612  1.00  0.00    -0.373 C  
HETATM    7  C   UNL     1      -6.787  19.480  69.033  1.00  0.00    -0.384 C  
ENDBRANCH   5   6
ENDBRANCH   3   5
ENDBRANCH   1   3
BRANCH   2   8
HETATM    8  C   UNL     1      -9.921  15.081  66.519  1.00  0.00    -0.276 A  
HETATM    9  O   UNL     1     -12.270  11.880  67.733  1.00  0.00    -0.508 OA 
HETATM   10  C   UNL     1     -10.707  15.190  67.679  1.00  0.00    -0.285 A  
HETATM   11  C   UNL     1     -11.506  14.125  68.097  1.00  0.00    -0.310 A  
HETATM   12  C   UNL     1      -9.947  13.889  65.779  1.00  0.00    -0.304 A  
HETATM   13  C   UNL     1     -11.516  12.951  67.338  1.00  0.00    -0.336 A  
HETATM   14  H   UNL     1     -12.276  11.082  67.218  1.00  0.00     0.000 HD 
HETATM   15  C   UNL     1     -10.752  12.825  66.185  1.00  0.00    -0.297 A  
BRANCH  11  16
HETATM   16  O   UNL     1     -12.295  14.101  69.218  1.00  0.00    -0.311 OA 
HETATM   17  C   UNL     1     -11.810  14.812  70.351  1.00  0.00    -0.295 C  
ENDBRANCH  11  16
ENDBRANCH   2   8
TORSDOF 5
ENDMDL
MODEL       92
REMARK 921   NORMALIZED FREE ENERGY PREDICTED BY IDOCK:   -4.19 KCAL/MOL
REMARK 922        TOTAL FREE ENERGY PREDICTED BY IDOCK:   -5.78 KCAL/MOL
REMARK 923 INTER-LIGAND FREE ENERGY PREDICTED BY IDOCK:   -5.30 KCAL/MOL
REMARK 924 INTRA-LIGAND FREE ENERGY PREDICTED BY IDOCK:   -0.48 KCAL/MOL
REMARK 927      BINDING AFFINITY PREDICTED BY RF-SCORE:    0.00 PKD
ROOT
HETATM    1  C   UNL     1      -8.731  16.298  66.939  1.00  0.00    -0.237 C  
HETATM    2  C   UNL     1     -10.024  16.262  67.294  1.00  0.00    -0.250 C  
ENDROOT
BRANCH   1   3
HETATM    3  C   UNL     1      -8.104  17.456  66.266  1.00  0.00    -0.263 C  
HETATM    4  O   UNL     1      -6.892  17.562  66.161  1.00  0.00    -0.258 OA 
BRANCH   3   5
HETATM    5  O   UNL     1      -9.028  18.382  65.916  1.00  0.00    -0.484 OA 
BRANCH   5   6
HETATM    6  C   UNL     1      -8.789  19.708  66.405  1.00  0.00    -0.376 C  
HETATM    7  C   UNL     1      -9.851  20.023  67.444  1.00  0.00    -0.558 C  
ENDBRANCH   5   6
ENDBRANCH   3   5
ENDBRANCH   1   3
BRANCH   2   8
HETATM    8  C   UNL     1     -10.642  15.196  68.093  1.00  0.00    -0.246 A  
HETATM    9  O   UNL     1     -12.090  12.219  70.599  1.00  0.00    -0.439 OA 
HETATM   10  C   UNL     1     -11.235  15.541  69.319  1.00  0.00    -0.312 A  
HETATM   11  C   UNL     1     -11.732  14.552  70.170  1.00  0.00    -0.297 A  
HETATM   12  C   UNL     1     -10.555  13.844  67.726  1.00  0.00    -0.248 A  
HETATM   13  C   UNL     1     -11.634  13.214  69.778  1.00  0.00    -0.221 A  
HETATM   14  H   UNL     1     -12.023  11.310  70.333  1.00  0.00     0.000 HD 
HETATM   15  C   UNL     1     -11.058  12.852  68.567  1.00  0.00    -0.299 A  
BRANCH  11  16
HETATM   16  O   UNL     1     -12.309  14.760  71.397  1.00  0.00    -0.301 OA 
HETATM   17  C   UNL     1     -13.614  15.328  71.396  1.00  0.00    -0.514 C  
ENDBRANCH  11  16
ENDBRANCH   2   8
TORSDOF 5
ENDMDL
MODEL       93
REMARK 921   NORMALIZED FREE ENERGY PREDICTED BY IDOCK:   -4.19 KCAL/MOL
REMARK 922        TOTAL FREE ENERGY PREDICTED BY IDOCK:   -5.78 KCAL/MOL
REMARK 923 INTER-LIGAND FREE ENERGY PREDICTED BY IDOCK:   -5.44 KCAL/MOL
REMARK 924 INTRA-LIGAND FREE ENERGY PREDICTED BY IDOCK:   -0.34 KCAL/MOL
REMARK 927      BINDING AFFINITY PREDICTED BY RF-SCORE:    0.00 PKD
ROOT
HETATM    1  C   UNL     1     -11.424  15.284  68.562  1.00  0.00    -0.355 C  
HETATM    2  C   UNL     1     -10.334  15.974  68.932  1.00  0.00    -0.235 C  
ENDROOT
BRANCH   1   3
HETATM    3  C   UNL     1     -11.890  14.066  69.258  1.00  0.00    -0.344 C  
HETATM    4  O   UNL     1     -12.056  14.038  70.468  1.00  0.00    -0.316 OA 
BRANCH   3   5
HETATM    5  O   UNL     1     -11.980  13.016  68.407  1.00  0.00    -0.336 OA 
BRANCH   5   6
HETATM    6  C   UNL     1     -10.935  12.041  68.520  1.00  0.00    -0.240 C  
HETATM    7  C   UNL     1     -11.537  10.775  69.104  1.00  0.00    -0.376 C  
ENDBRANCH   5   6
ENDBRANCH   3   5
ENDBRANCH   1   3
BRANCH   2   8
HETATM    8  C   UNL     1      -9.929  17.265  68.360  1.00  0.00    -0.322 A  
HETATM    9  O   UNL     1      -8.806  21.061  67.108  1.00  0.00    -0.573 OA 
HETATM   10  C   UNL     1      -8.636  17.740  68.641  1.00  0.00    -0.264 A  
HETATM   11  C   UNL     1      -8.242  19.012  68.222  1.00  0.00    -0.329 A  
HETATM   12  C   UNL     1     -10.823  18.080  67.649  1.00  0.00    -0.257 A  
HETATM   13  C   UNL     1      -9.153  19.801  67.512  1.00  0.00    -0.330 A  
HETATM   14  H   UNL     1      -9.424  21.597  66.626  1.00  0.00     0.000 HD 
HETATM   15  C   UNL     1     -10.432  19.347  67.219  1.00  0.00    -0.579 A  
BRANCH  11  16
HETATM   16  O   UNL     1      -7.023  19.595  68.454  1.00  0.00    -0.280 OA 
HETATM   17  C   UNL     1      -6.578  19.619  69.806  1.00  0.00    -0.301 C  
ENDBRANCH  11  16
ENDBRANCH   2   8
TORSDOF 5
ENDMDL
MODEL       94
REMARK 921   NORMALIZED FREE ENERGY PREDICTED BY IDOCK:   -4.19 KCAL/MOL
REMARK 922        TOTAL FREE ENERGY PREDICTED BY IDOCK:   -5.78 KCAL/MOL
REMARK 923 INTER-LIGAND FREE ENERGY PREDICTED BY IDOCK:   -5.47 KCAL/MOL
REMARK 924 INTRA-LIGAND FREE ENERGY PREDICTED BY IDOCK:   -0.31 KCAL/MOL
REMARK 927      BINDING AFFINITY PREDICTED BY RF-SCORE:    0.00 PKD
ROOT
HETATM    1  C   UNL     1     -11.086   9.884  68.549  1.00  0.00    -0.181 C  
HETATM    2  C   UNL     1     -10.937  11.172  68.896  1.00  0.00    -0.276 C  
ENDROOT
BRANCH   1   3
HETATM    3  C   UNL     1     -10.159   9.173  67.644  1.00  0.00    -0.220 C  
HETATM    4  O   UNL     1      -9.874   9.610  66.540  1.00  0.00    -0.202 OA 
BRANCH   3   5
HETATM    5  O   UNL     1      -9.794   7.973  68.155  1.00  0.00    -0.160 OA 
BRANCH   5   6
HETATM    6  C   UNL     1     -10.742   6.913  67.977  1.00  0.00    -0.218 C  
HETATM    7  C   UNL     1     -11.105   6.373  69.349  1.00  0.00    -0.450 C  
ENDBRANCH   5   6
ENDBRANCH   3   5
ENDBRANCH   1   3
BRANCH   2   8
HETATM    8  C   UNL     1     -11.748  11.866  69.905  1.00  0.00    -0.383 A  
HETATM    9  O   UNL     1     -13.707  13.900  72.948  1.00  0.00    -0.680 OA 
HETATM   10  C   UNL     1     -11.672  13.267  69.971  1.00  0.00    -0.295 A  
HETATM   11  C   UNL     1     -12.329  13.966  70.985  1.00  0.00    -0.376 A  
HETATM   12  C   UNL     1     -12.496  11.170  70.868  1.00  0.00    -0.509 A  
HETATM   13  C   UNL     1     -13.070  13.248  71.928  1.00  0.00    -0.388 A  
HETATM   14  H   UNL     1     -14.209  13.413  73.589  1.00  0.00     0.000 HD 
HETATM   15  C   UNL     1     -13.164  11.863  71.877  1.00  0.00    -0.467 A  
BRANCH  11  16
HETATM   16  O   UNL     1     -12.312  15.325  71.169  1.00  0.00    -0.302 OA 
HETATM   17  C   UNL     1     -11.476  16.073  70.293  1.00  0.00    -0.359 C  
ENDBRANCH  11  16
ENDBRANCH   2   8
TORSDOF 5
ENDMDL
MODEL       95
REMARK 921   NORMALIZED FREE ENERGY PREDICTED BY IDOCK:   -4.16 KCAL/MOL
REMARK 922        TOTAL FREE ENERGY PREDICTED BY IDOCK:   -5.74 KCAL/MOL
REMARK 923 INTER-LIGAND FREE ENERGY PREDICTED BY IDOCK:   -5.38 KCAL/MOL
REMARK 924 INTRA-LIGAND FREE ENERGY PREDICTED BY IDOCK:   -0.36 KCAL/MOL
REMARK 927      BINDING AFFINITY PREDICTED BY RF-SCORE:    0.00 PKD
ROOT
HETATM    1  C   UNL     1      -8.937   9.599  65.013  1.00  0.00    -0.255 C  
HETATM    2  C   UNL     1     -10.039  10.159  65.534  1.00  0.00    -0.338 C  
ENDROOT
BRANCH   1   3
HETATM    3  C   UNL     1      -8.451   8.255  65.391  1.00  0.00    -0.172 C  
HETATM    4  O   UNL     1      -8.469   7.865  66.548  1.00  0.00    -0.123 OA 
BRANCH   3   5
HETATM    5  O   UNL     1      -7.904   7.613  64.331  1.00  0.00    -0.127 OA 
BRANCH   5   6
HETATM    6  C   UNL     1      -7.384   8.460  63.299  1.00  0.00    -0.104 C  
HETATM    7  C   UNL     1      -5.870   8.341  63.313  1.00  0.00    -0.072 C  
ENDBRANCH   5   6
ENDBRANCH   3   5
ENDBRANCH   1   3
BRANCH   2   8
HETATM    8  C   UNL     1     -10.632  11.422  65.076  1.00  0.00    -0.359 A  
HETATM    9  O   UNL     1     -12.655  14.852  63.902  1.00  0.00    -0.964 OA 
HETATM   10  C   UNL     1     -11.075  12.339  66.045  1.00  0.00    -0.347 A  
HETATM   11  C   UNL     1     -11.751  13.500  65.665  1.00  0.00    -0.339 A  
HETATM   12  C   UNL     1     -10.873  11.684  63.719  1.00  0.00    -0.493 A  
HETATM   13  C   UNL     1     -11.974  13.736  64.305  1.00  0.00    -0.443 A  
HETATM   14  H   UNL     1     -12.806  15.013  62.978  1.00  0.00     0.000 HD 
HETATM   15  C   UNL     1     -11.539  12.847  63.332  1.00  0.00    -0.463 A  
BRANCH  11  16
HETATM   16  O   UNL     1     -12.252  14.455  66.513  1.00  0.00    -0.424 OA 
HETATM   17  C   UNL     1     -11.546  14.653  67.733  1.00  0.00    -0.359 C  
ENDBRANCH  11  16
ENDBRANCH   2   8
TORSDOF 5
ENDMDL
MODEL       96
REMARK 921   NORMALIZED FREE ENERGY PREDICTED BY IDOCK:   -4.14 KCAL/MOL
REMARK 922        TOTAL FREE ENERGY PREDICTED BY IDOCK:   -5.72 KCAL/MOL
REMARK 923 INTER-LIGAND FREE ENERGY PREDICTED BY IDOCK:   -5.42 KCAL/MOL
REMARK 924 INTRA-LIGAND FREE ENERGY PREDICTED BY IDOCK:   -0.30 KCAL/MOL
REMARK 927      BINDING AFFINITY PREDICTED BY RF-SCORE:    0.00 PKD
ROOT
HETATM    1  C   UNL     1     -11.331  14.569  68.027  1.00  0.00    -0.326 C  
HETATM    2  C   UNL     1     -10.124  14.077  67.705  1.00  0.00    -0.240 C  
ENDROOT
BRANCH   1   3
HETATM    3  C   UNL     1     -11.522  15.804  68.815  1.00  0.00    -0.388 C  
HETATM    4  O   UNL     1     -11.013  16.865  68.487  1.00  0.00    -0.350 OA 
BRANCH   3   5
HETATM    5  O   UNL     1     -12.209  15.559  69.957  1.00  0.00    -0.358 OA 
BRANCH   5   6
HETATM    6  C   UNL     1     -11.616  16.074  71.155  1.00  0.00    -0.443 C  
HETATM    7  C   UNL     1     -12.068  15.202  72.314  1.00  0.00    -0.478 C  
ENDBRANCH   5   6
ENDBRANCH   3   5
ENDBRANCH   1   3
BRANCH   2   8
HETATM    8  C   UNL     1      -9.897  12.942  66.802  1.00  0.00    -0.241 A  
HETATM    9  O   UNL     1      -9.596   9.586  64.376  1.00  0.00    -0.419 OA 
HETATM   10  C   UNL     1     -10.696  12.837  65.651  1.00  0.00    -0.297 A  
HETATM   11  C   UNL     1     -10.602  11.718  64.822  1.00  0.00    -0.301 A  
HETATM   12  C   UNL     1      -8.998  11.910  67.113  1.00  0.00    -0.178 A  
HETATM   13  C   UNL     1      -9.696  10.706  65.155  1.00  0.00    -0.271 A  
HETATM   14  H   UNL     1      -8.981   8.899  64.602  1.00  0.00     0.000 HD 
HETATM   15  C   UNL     1      -8.892  10.794  66.284  1.00  0.00    -0.182 A  
BRANCH  11  16
HETATM   16  O   UNL     1     -11.341  11.489  63.690  1.00  0.00    -0.411 OA 
HETATM   17  C   UNL     1     -12.498  12.299  63.513  1.00  0.00    -0.534 C  
ENDBRANCH  11  16
ENDBRANCH   2   8
TORSDOF 5
ENDMDL
MODEL       97
REMARK 921   NORMALIZED FREE ENERGY PREDICTED BY IDOCK:   -4.13 KCAL/MOL
REMARK 922        TOTAL FREE ENERGY PREDICTED BY IDOCK:   -5.71 KCAL/MOL
REMARK 923 INTER-LIGAND FREE ENERGY PREDICTED BY IDOCK:   -5.44 KCAL/MOL
REMARK 924 INTRA-LIGAND FREE ENERGY PREDICTED BY IDOCK:   -0.27 KCAL/MOL
REMARK 927      BINDING AFFINITY PREDICTED BY RF-SCORE:    0.00 PKD
ROOT
HETATM    1  C   UNL     1     -12.398  12.853  70.171  1.00  0.00    -0.249 C  
HETATM    2  C   UNL     1     -12.041  11.625  69.765  1.00  0.00    -0.357 C  
ENDROOT
BRANCH   1   3
HETATM    3  C   UNL     1     -12.728  13.182  71.574  1.00  0.00    -0.269 C  
HETATM    4  O   UNL     1     -13.391  12.432  72.273  1.00  0.00    -0.522 OA 
BRANCH   3   5
HETATM    5  O   UNL     1     -12.307  14.427  71.900  1.00  0.00    -0.334 OA 
BRANCH   5   6
HETATM    6  C   UNL     1     -13.169  15.157  72.782  1.00  0.00    -0.477 C  
HETATM    7  C   UNL     1     -12.328  16.195  73.505  1.00  0.00    -0.664 C  
ENDBRANCH   5   6
ENDBRANCH   3   5
ENDBRANCH   1   3
BRANCH   2   8
HETATM    8  C   UNL     1     -11.564  11.295  68.416  1.00  0.00    -0.378 A  
HETATM    9  O   UNL     1      -9.850  10.378  64.748  1.00  0.00    -0.294 OA 
HETATM   10  C   UNL     1     -11.035  10.012  68.192  1.00  0.00    -0.289 A  
HETATM   11  C   UNL     1     -10.461   9.687  66.962  1.00  0.00    -0.232 A  
HETATM   12  C   UNL     1     -11.512  12.250  67.389  1.00  0.00    -0.422 A  
HETATM   13  C   UNL     1     -10.426  10.658  65.956  1.00  0.00    -0.183 A  
HETATM   14  H   UNL     1      -9.826  11.037  64.064  1.00  0.00     0.000 HD 
HETATM   15  C   UNL     1     -10.949  11.928  66.155  1.00  0.00    -0.352 A  
BRANCH  11  16
HETATM   16  O   UNL     1      -9.894   8.483  66.630  1.00  0.00    -0.226 OA 
HETATM   17  C   UNL     1     -10.078   7.418  67.557  1.00  0.00    -0.192 C  
ENDBRANCH  11  16
ENDBRANCH   2   8
TORSDOF 5
ENDMDL
MODEL       98
REMARK 921   NORMALIZED FREE ENERGY PREDICTED BY IDOCK:   -4.12 KCAL/MOL
REMARK 922        TOTAL FREE ENERGY PREDICTED BY IDOCK:   -5.69 KCAL/MOL
REMARK 923 INTER-LIGAND FREE ENERGY PREDICTED BY IDOCK:   -5.33 KCAL/MOL
REMARK 924 INTRA-LIGAND FREE ENERGY PREDICTED BY IDOCK:   -0.37 KCAL/MOL
REMARK 927      BINDING AFFINITY PREDICTED BY RF-SCORE:    0.00 PKD
ROOT
HETATM    1  C   UNL     1     -11.516   9.780  70.526  1.00  0.00    -0.370 C  
HETATM    2  C   UNL     1     -12.062  10.965  70.212  1.00  0.00    -0.440 C  
ENDROOT
BRANCH   1   3
HETATM    3  C   UNL     1     -11.940   8.972  71.688  1.00  0.00    -0.356 C  
HETATM    4  O   UNL     1     -12.685   9.418  72.547  1.00  0.00    -0.317 OA 
BRANCH   3   5
HETATM    5  O   UNL     1     -11.311   7.772  71.710  1.00  0.00    -0.248 OA 
BRANCH   5   6
HETATM    6  C   UNL     1     -10.844   7.345  72.995  1.00  0.00    -0.375 C  
HETATM    7  C   UNL     1      -9.461   7.936  73.211  1.00  0.00    -0.350 C  
ENDBRANCH   5   6
ENDBRANCH   3   5
ENDBRANCH   1   3
BRANCH   2   8
HETATM    8  C   UNL     1     -11.771  11.722  68.987  1.00  0.00    -0.390 A  
HETATM    9  O   UNL     1     -10.571  13.781  65.588  1.00  0.00    -0.283 OA 
HETATM   10  C   UNL     1     -11.362  11.010  67.846  1.00  0.00    -0.381 A  
HETATM   11  C   UNL     1     -10.961  11.688  66.694  1.00  0.00    -0.299 A  
HETATM   12  C   UNL     1     -11.777  13.125  68.958  1.00  0.00    -0.367 A  
HETATM   13  C   UNL     1     -10.980  13.086  66.693  1.00  0.00    -0.279 A  
HETATM   14  H   UNL     1     -10.583  14.730  65.586  1.00  0.00     0.000 HD 
HETATM   15  C   UNL     1     -11.387  13.808  67.807  1.00  0.00    -0.331 A  
BRANCH  11  16
HETATM   16  O   UNL     1     -10.520  11.110  65.531  1.00  0.00    -0.262 OA 
HETATM   17  C   UNL     1      -9.725   9.938  65.667  1.00  0.00    -0.279 C  
ENDBRANCH  11  16
ENDBRANCH   2   8
TORSDOF 5
ENDMDL
MODEL       99
REMARK 921   NORMALIZED FREE ENERGY PREDICTED BY IDOCK:   -4.11 KCAL/MOL
REMARK 922        TOTAL FREE ENERGY PREDICTED BY IDOCK:   -5.68 KCAL/MOL
REMARK 923 INTER-LIGAND FREE ENERGY PREDICTED BY IDOCK:   -5.25 KCAL/MOL
REMARK 924 INTRA-LIGAND FREE ENERGY PREDICTED BY IDOCK:   -0.42 KCAL/MOL
REMARK 927      BINDING AFFINITY PREDICTED BY RF-SCORE:    0.00 PKD
ROOT
HETATM    1  C   UNL     1     -11.242  13.175  64.235  1.00  0.00    -0.422 C  
HETATM    2  C   UNL     1     -11.230  11.950  64.782  1.00  0.00    -0.356 C  
ENDROOT
BRANCH   1   3
HETATM    3  C   UNL     1     -12.093  14.278  64.730  1.00  0.00    -0.446 C  
HETATM    4  O   UNL     1     -13.236  14.087  65.117  1.00  0.00    -0.768 OA 
BRANCH   3   5
HETATM    5  O   UNL     1     -11.481  15.477  64.581  1.00  0.00    -0.410 OA 
BRANCH   5   6
HETATM    6  C   UNL     1     -10.299  15.668  65.368  1.00  0.00    -0.393 C  
HETATM    7  C   UNL     1     -10.721  15.810  66.820  1.00  0.00    -0.293 C  
ENDBRANCH   5   6
ENDBRANCH   3   5
ENDBRANCH   1   3
BRANCH   2   8
HETATM    8  C   UNL     1     -10.294  10.879  64.414  1.00  0.00    -0.430 A  
HETATM    9  O   UNL     1      -7.371   8.059  63.556  1.00  0.00    -0.097 OA 
HETATM   10  C   UNL     1      -9.824  10.028  65.428  1.00  0.00    -0.384 A  
HETATM   11  C   UNL     1      -8.846   9.071  65.154  1.00  0.00    -0.182 A  
HETATM   12  C   UNL     1      -9.773  10.758  63.116  1.00  0.00    -0.394 A  
HETATM   13  C   UNL     1      -8.347   8.970  63.852  1.00  0.00    -0.176 A  
HETATM   14  H   UNL     1      -7.031   7.991  62.671  1.00  0.00     0.000 HD 
HETATM   15  C   UNL     1      -8.802   9.797  62.834  1.00  0.00    -0.255 A  
BRANCH  11  16
HETATM   16  O   UNL     1      -8.292   8.202  66.059  1.00  0.00    -0.116 OA 
HETATM   17  C   UNL     1      -8.829   8.231  67.377  1.00  0.00    -0.131 C  
ENDBRANCH  11  16
ENDBRANCH   2   8
TORSDOF 5
ENDMDL
MODEL      100
REMARK 921   NORMALIZED FREE ENERGY PREDICTED BY IDOCK:   -4.10 KCAL/MOL
REMARK 922        TOTAL FREE ENERGY PREDICTED BY IDOCK:   -5.66 KCAL/MOL
REMARK 923 INTER-LIGAND FREE ENERGY PREDICTED BY IDOCK:   -5.65 KCAL/MOL
REMARK 924 INTRA-LIGAND FREE ENERGY PREDICTED BY IDOCK:   -0.02 KCAL/MOL
REMARK 927      BINDING AFFINITY PREDICTED BY RF-SCORE:    0.00 PKD
ROOT
HETATM    1  C   UNL     1     -10.980  11.283  67.626  1.00  0.00    -0.312 C  
HETATM    2  C   UNL     1     -10.445  11.321  68.857  1.00  0.00    -0.232 C  
ENDROOT
BRANCH   1   3
HETATM    3  C   UNL     1     -10.585  12.203  66.539  1.00  0.00    -0.237 C  
HETATM    4  O   UNL     1     -10.604  11.862  65.367  1.00  0.00    -0.253 OA 
BRANCH   3   5
HETATM    5  O   UNL     1     -10.113  13.373  67.031  1.00  0.00    -0.241 OA 
BRANCH   5   6
HETATM    6  C   UNL     1     -10.627  14.556  66.407  1.00  0.00    -0.302 C  
HETATM    7  C   UNL     1     -12.132  14.400  66.274  1.00  0.00    -0.384 C  
ENDBRANCH   5   6
ENDBRANCH   3   5
ENDBRANCH   1   3
BRANCH   2   8
HETATM    8  C   UNL     1     -10.703  10.333  69.912  1.00  0.00    -0.344 A  
HETATM    9  O   UNL     1     -11.425   7.837  73.150  1.00  0.00    -0.588 OA 
HETATM   10  C   UNL     1     -11.973  10.317  70.513  1.00  0.00    -0.415 A  
HETATM   11  C   UNL     1     -12.233   9.479  71.599  1.00  0.00    -0.398 A  
HETATM   12  C   UNL     1      -9.694   9.495  70.411  1.00  0.00    -0.328 A  
HETATM   13  C   UNL     1     -11.209   8.652  72.073  1.00  0.00    -0.364 A  
HETATM   14  H   UNL     1     -10.730   7.275  73.473  1.00  0.00     0.000 HD 
HETATM   15  C   UNL     1      -9.950   8.648  71.489  1.00  0.00    -0.344 A  
BRANCH  11  16
HETATM   16  O   UNL     1     -13.418   9.390  72.283  1.00  0.00    -0.434 OA 
HETATM   17  C   UNL     1     -14.335   8.396  71.836  1.00  0.00    -0.473 C  
ENDBRANCH  11  16
ENDBRANCH   2   8
TORSDOF 5
ENDMDL
MODEL      101
REMARK 921   NORMALIZED FREE ENERGY PREDICTED BY IDOCK:   -4.09 KCAL/MOL
REMARK 922        TOTAL FREE ENERGY PREDICTED BY IDOCK:   -5.66 KCAL/MOL
REMARK 923 INTER-LIGAND FREE ENERGY PREDICTED BY IDOCK:   -5.50 KCAL/MOL
REMARK 924 INTRA-LIGAND FREE ENERGY PREDICTED BY IDOCK:   -0.16 KCAL/MOL
REMARK 927      BINDING AFFINITY PREDICTED BY RF-SCORE:    0.00 PKD
ROOT
HETATM    1  C   UNL     1     -11.424  11.886  66.868  1.00  0.00    -0.390 C  
HETATM    2  C   UNL     1     -11.014  12.472  68.004  1.00  0.00    -0.266 C  
ENDROOT
BRANCH   1   3
HETATM    3  C   UNL     1     -10.558  11.716  65.683  1.00  0.00    -0.275 C  
HETATM    4  O   UNL     1     -10.980  11.245  64.638  1.00  0.00    -0.294 OA 
BRANCH   3   5
HETATM    5  O   UNL     1      -9.271  12.034  65.963  1.00  0.00    -0.221 OA 
BRANCH   5   6
HETATM    6  C   UNL     1      -8.458  10.953  66.435  1.00  0.00    -0.163 C  
HETATM    7  C   UNL     1      -7.798  11.395  67.730  1.00  0.00    -0.117 C  
ENDBRANCH   5   6
ENDBRANCH   3   5
ENDBRANCH   1   3
BRANCH   2   8
HETATM    8  C   UNL     1     -11.795  12.524  69.247  1.00  0.00    -0.360 A  
HETATM    9  O   UNL     1     -13.668  12.763  72.945  1.00  0.00    -0.676 OA 
HETATM   10  C   UNL     1     -12.036  13.780  69.830  1.00  0.00    -0.406 A  
HETATM   11  C   UNL     1     -12.669  13.877  71.069  1.00  0.00    -0.357 A  
HETATM   12  C   UNL     1     -12.201  11.363  69.922  1.00  0.00    -0.346 A  
HETATM   13  C   UNL     1     -13.066  12.703  71.718  1.00  0.00    -0.360 A  
HETATM   14  H   UNL     1     -13.937  11.966  73.385  1.00  0.00     0.000 HD 
HETATM   15  C   UNL     1     -12.843  11.453  71.156  1.00  0.00    -0.440 A  
BRANCH  11  16
HETATM   16  O   UNL     1     -12.938  15.038  71.749  1.00  0.00    -0.309 OA 
HETATM   17  C   UNL     1     -11.922  16.035  71.728  1.00  0.00    -0.517 C  
ENDBRANCH  11  16
ENDBRANCH   2   8
TORSDOF 5
ENDMDL
MODEL      102
REMARK 921   NORMALIZED FREE ENERGY PREDICTED BY IDOCK:   -4.09 KCAL/MOL
REMARK 922        TOTAL FREE ENERGY PREDICTED BY IDOCK:   -5.66 KCAL/MOL
REMARK 923 INTER-LIGAND FREE ENERGY PREDICTED BY IDOCK:   -5.34 KCAL/MOL
REMARK 924 INTRA-LIGAND FREE ENERGY PREDICTED BY IDOCK:   -0.32 KCAL/MOL
REMARK 927      BINDING AFFINITY PREDICTED BY RF-SCORE:    0.00 PKD
ROOT
HETATM    1  C   UNL     1      -8.948  17.407  66.706  1.00  0.00    -0.272 C  
HETATM    2  C   UNL     1     -10.215  17.034  66.940  1.00  0.00    -0.305 C  
ENDROOT
BRANCH   1   3
HETATM    3  C   UNL     1      -8.498  18.815  66.725  1.00  0.00    -0.287 C  
HETATM    4  O   UNL     1      -8.165  19.399  65.705  1.00  0.00    -0.439 OA 
BRANCH   3   5
HETATM    5  O   UNL     1      -8.405  19.286  67.991  1.00  0.00    -0.295 OA 
BRANCH   5   6
HETATM    6  C   UNL     1      -7.269  20.118  68.257  1.00  0.00    -0.245 C  
HETATM    7  C   UNL     1      -6.140  19.226  68.743  1.00  0.00    -0.259 C  
ENDBRANCH   5   6
ENDBRANCH   3   5
ENDBRANCH   1   3
BRANCH   2   8
HETATM    8  C   UNL     1     -10.665  15.642  67.077  1.00  0.00    -0.314 A  
HETATM    9  O   UNL     1     -12.234  11.801  67.223  1.00  0.00    -0.471 OA 
HETATM   10  C   UNL     1     -10.513  14.782  65.976  1.00  0.00    -0.312 A  
HETATM   11  C   UNL     1     -11.030  13.486  66.012  1.00  0.00    -0.275 A  
HETATM   12  C   UNL     1     -11.341  15.186  68.219  1.00  0.00    -0.338 A  
HETATM   13  C   UNL     1     -11.696  13.057  67.164  1.00  0.00    -0.382 A  
HETATM   14  H   UNL     1     -12.686  11.510  68.005  1.00  0.00     0.000 HD 
HETATM   15  C   UNL     1     -11.851  13.889  68.265  1.00  0.00    -0.412 A  
BRANCH  11  16
HETATM   16  O   UNL     1     -10.967  12.565  64.998  1.00  0.00    -0.280 OA 
HETATM   17  C   UNL     1     -11.939  12.690  63.966  1.00  0.00    -0.451 C  
ENDBRANCH  11  16
ENDBRANCH   2   8
TORSDOF 5
ENDMDL
MODEL      103
REMARK 921   NORMALIZED FREE ENERGY PREDICTED BY IDOCK:   -4.06 KCAL/MOL
REMARK 922        TOTAL FREE ENERGY PREDICTED BY IDOCK:   -5.61 KCAL/MOL
REMARK 923 INTER-LIGAND FREE ENERGY PREDICTED BY IDOCK:   -5.23 KCAL/MOL
REMARK 924 INTRA-LIGAND FREE ENERGY PREDICTED BY IDOCK:   -0.38 KCAL/MOL
REMARK 927      BINDING AFFINITY PREDICTED BY RF-SCORE:    0.00 PKD
ROOT
HETATM    1  C   UNL     1     -11.874  10.745  70.020  1.00  0.00    -0.424 C  
HETATM    2  C   UNL     1     -12.152  11.690  69.110  1.00  0.00    -0.315 C  
ENDROOT
BRANCH   1   3
HETATM    3  C   UNL     1     -12.572  10.636  71.319  1.00  0.00    -0.427 C  
HETATM    4  O   UNL     1     -12.948  11.622  71.934  1.00  0.00    -0.427 OA 
BRANCH   3   5
HETATM    5  O   UNL     1     -12.616   9.352  71.748  1.00  0.00    -0.335 OA 
BRANCH   5   6
HETATM    6  C   UNL     1     -11.678   8.463  71.129  1.00  0.00    -0.280 C  
HETATM    7  C   UNL     1     -12.121   7.039  71.419  1.00  0.00    -0.396 C  
ENDBRANCH   5   6
ENDBRANCH   3   5
ENDBRANCH   1   3
BRANCH   2   8
HETATM    8  C   UNL     1     -11.587  11.739  67.755  1.00  0.00    -0.374 A  
HETATM    9  O   UNL     1      -9.664  12.029  64.087  1.00  0.00    -0.458 OA 
HETATM   10  C   UNL     1     -10.565  10.832  67.427  1.00  0.00    -0.287 A  
HETATM   11  C   UNL     1      -9.913  10.913  66.196  1.00  0.00    -0.233 A  
HETATM   12  C   UNL     1     -11.951  12.730  66.830  1.00  0.00    -0.380 A  
HETATM   13  C   UNL     1     -10.299  11.908  65.292  1.00  0.00    -0.276 A  
HETATM   14  H   UNL     1      -9.926  12.705  63.473  1.00  0.00     0.000 HD 
HETATM   15  C   UNL     1     -11.310  12.810  65.594  1.00  0.00    -0.354 A  
BRANCH  11  16
HETATM   16  O   UNL     1      -8.890  10.105  65.770  1.00  0.00    -0.148 OA 
HETATM   17  C   UNL     1      -7.624  10.306  66.388  1.00  0.00    -0.117 C  
ENDBRANCH  11  16
ENDBRANCH   2   8
TORSDOF 5
ENDMDL
MODEL      104
REMARK 921   NORMALIZED FREE ENERGY PREDICTED BY IDOCK:   -4.01 KCAL/MOL
REMARK 922        TOTAL FREE ENERGY PREDICTED BY IDOCK:   -5.55 KCAL/MOL
REMARK 923 INTER-LIGAND FREE ENERGY PREDICTED BY IDOCK:   -5.29 KCAL/MOL
REMARK 924 INTRA-LIGAND FREE ENERGY PREDICTED BY IDOCK:   -0.26 KCAL/MOL
REMARK 927      BINDING AFFINITY PREDICTED BY RF-SCORE:    0.00 PKD
ROOT
HETATM    1  C   UNL     1     -10.673  15.271  67.807  1.00  0.00    -0.286 C  
HETATM    2  C   UNL     1     -11.246  14.061  67.879  1.00  0.00    -0.295 C  
ENDROOT
BRANCH   1   3
HETATM    3  C   UNL     1     -11.022  16.392  68.706  1.00  0.00    -0.344 C  
HETATM    4  O   UNL     1     -11.457  16.204  69.832  1.00  0.00    -0.324 OA 
BRANCH   3   5
HETATM    5  O   UNL     1     -10.905  17.585  68.076  1.00  0.00    -0.378 OA 
BRANCH   5   6
HETATM    6  C   UNL     1      -9.994  18.512  68.677  1.00  0.00    -0.383 C  
HETATM    7  C   UNL     1      -9.994  19.779  67.840  1.00  0.00    -0.539 C  
ENDBRANCH   5   6
ENDBRANCH   3   5
ENDBRANCH   1   3
BRANCH   2   8
HETATM    8  C   UNL     1     -10.821  12.886  67.106  1.00  0.00    -0.278 A  
HETATM    9  O   UNL     1      -9.990   9.441  64.944  1.00  0.00    -0.355 OA 
HETATM   10  C   UNL     1     -11.249  12.777  65.772  1.00  0.00    -0.341 A  
HETATM   11  C   UNL     1     -10.972  11.628  65.030  1.00  0.00    -0.273 A  
HETATM   12  C   UNL     1     -10.109  11.827  67.689  1.00  0.00    -0.206 A  
HETATM   13  C   UNL     1     -10.257  10.590  65.636  1.00  0.00    -0.246 A  
HETATM   14  H   UNL     1      -9.505   8.736  65.356  1.00  0.00     0.000 HD 
HETATM   15  C   UNL     1      -9.820  10.681  66.951  1.00  0.00    -0.228 A  
BRANCH  11  16
HETATM   16  O   UNL     1     -11.354  11.393  63.734  1.00  0.00    -0.382 OA 
HETATM   17  C   UNL     1     -12.610  11.932  63.335  1.00  0.00    -0.431 C  
ENDBRANCH  11  16
ENDBRANCH   2   8
TORSDOF 5
ENDMDL
MODEL      105
REMARK 921   NORMALIZED FREE ENERGY PREDICTED BY IDOCK:   -3.99 KCAL/MOL
REMARK 922        TOTAL FREE ENERGY PREDICTED BY IDOCK:   -5.53 KCAL/MOL
REMARK 923 INTER-LIGAND FREE ENERGY PREDICTED BY IDOCK:   -5.16 KCAL/MOL
REMARK 924 INTRA-LIGAND FREE ENERGY PREDICTED BY IDOCK:   -0.37 KCAL/MOL
REMARK 927      BINDING AFFINITY PREDICTED BY RF-SCORE:    0.00 PKD
ROOT
HETATM    1  C   UNL     1     -10.481  15.022  65.366  1.00  0.00    -0.406 C  
HETATM    2  C   UNL     1     -10.092  15.797  66.390  1.00  0.00    -0.305 C  
ENDROOT
BRANCH   1   3
HETATM    3  C   UNL     1     -11.396  15.481  64.300  1.00  0.00    -0.155 C  
HETATM    4  O   UNL     1     -11.582  16.667  64.076  1.00  0.00    -1.197 OA 
BRANCH   3   5
HETATM    5  O   UNL     1     -12.047  14.440  63.728  1.00  0.00    -0.439 OA 
BRANCH   5   6
HETATM    6  C   UNL     1     -11.548  13.140  64.066  1.00  0.00    -0.428 C  
HETATM    7  C   UNL     1     -12.640  12.127  63.769  1.00  0.00    -0.585 C  
ENDBRANCH   5   6
ENDBRANCH   3   5
ENDBRANCH   1   3
BRANCH   2   8
HETATM    8  C   UNL     1      -9.073  15.427  67.380  1.00  0.00    -0.206 A  
HETATM    9  O   UNL     1      -6.462  14.147  70.343  1.00  0.00    -0.338 OA 
HETATM   10  C   UNL     1      -8.521  14.136  67.316  1.00  0.00    -0.228 A  
HETATM   11  C   UNL     1      -7.637  13.693  68.301  1.00  0.00    -0.130 A  
HETATM   12  C   UNL     1      -8.726  16.272  68.445  1.00  0.00    -0.205 A  
HETATM   13  C   UNL     1      -7.306  14.558  69.349  1.00  0.00    -0.098 A  
HETATM   14  H   UNL     1      -6.237  14.734  71.055  1.00  0.00     0.000 HD 
HETATM   15  C   UNL     1      -7.836  15.840  69.427  1.00  0.00    -0.210 A  
BRANCH  11  16
HETATM   16  O   UNL     1      -7.053  12.454  68.363  1.00  0.00    -0.090 OA 
HETATM   17  C   UNL     1      -7.234  11.611  67.230  1.00  0.00    -0.137 C  
ENDBRANCH  11  16
ENDBRANCH   2   8
TORSDOF 5
ENDMDL
MODEL      106
REMARK 921   NORMALIZED FREE ENERGY PREDICTED BY IDOCK:   -3.94 KCAL/MOL
REMARK 922        TOTAL FREE ENERGY PREDICTED BY IDOCK:   -5.45 KCAL/MOL
REMARK 923 INTER-LIGAND FREE ENERGY PREDICTED BY IDOCK:   -5.13 KCAL/MOL
REMARK 924 INTRA-LIGAND FREE ENERGY PREDICTED BY IDOCK:   -0.33 KCAL/MOL
REMARK 927      BINDING AFFINITY PREDICTED BY RF-SCORE:    0.00 PKD
ROOT
HETATM    1  C   UNL     1     -11.537  11.707  67.766  1.00  0.00    -0.359 C  
HETATM    2  C   UNL     1     -10.777  10.684  67.347  1.00  0.00    -0.326 C  
ENDROOT
BRANCH   1   3
HETATM    3  C   UNL     1     -11.643  12.992  67.042  1.00  0.00    -0.360 C  
HETATM    4  O   UNL     1     -12.026  14.012  67.593  1.00  0.00    -0.368 OA 
BRANCH   3   5
HETATM    5  O   UNL     1     -11.379  12.837  65.723  1.00  0.00    -0.297 OA 
BRANCH   5   6
HETATM    6  C   UNL     1     -12.527  12.705  64.876  1.00  0.00    -0.494 C  
HETATM    7  C   UNL     1     -12.059  12.789  63.434  1.00  0.00    -0.619 C  
ENDBRANCH   5   6
ENDBRANCH   3   5
ENDBRANCH   1   3
BRANCH   2   8
HETATM    8  C   UNL     1     -10.763   9.347  67.956  1.00  0.00    -0.246 A  
HETATM    9  O   UNL     1     -10.367   5.653  69.809  1.00  0.00    -0.229 OA 
HETATM   10  C   UNL     1     -10.867   9.251  69.354  1.00  0.00    -0.184 A  
HETATM   11  C   UNL     1     -10.742   8.016  69.991  1.00  0.00    -0.244 A  
HETATM   12  C   UNL     1     -10.534   8.187  67.201  1.00  0.00    -0.396 A  
HETATM   13  C   UNL     1     -10.518   6.876  69.213  1.00  0.00    -0.214 A  
HETATM   14  H   UNL     1     -10.214   4.879  69.281  1.00  0.00     0.000 HD 
HETATM   15  C   UNL     1     -10.418   6.948  67.830  1.00  0.00    -0.262 A  
BRANCH  11  16
HETATM   16  O   UNL     1     -10.801   7.797  71.343  1.00  0.00    -0.226 OA 
HETATM   17  C   UNL     1      -9.790   8.417  72.131  1.00  0.00    -0.302 C  
ENDBRANCH  11  16
ENDBRANCH   2   8
TORSDOF 5
ENDMDL
MODEL      107
REMARK 921   NORMALIZED FREE ENERGY PREDICTED BY IDOCK:   -3.93 KCAL/MOL
REMARK 922        TOTAL FREE ENERGY PREDICTED BY IDOCK:   -5.44 KCAL/MOL
REMARK 923 INTER-LIGAND FREE ENERGY PREDICTED BY IDOCK:   -4.99 KCAL/MOL
REMARK 924 INTRA-LIGAND FREE ENERGY PREDICTED BY IDOCK:   -0.45 KCAL/MOL
REMARK 927      BINDING AFFINITY PREDICTED BY RF-SCORE:    0.00 PKD
ROOT
HETATM    1  C   UNL     1      -9.717   8.721  67.130  1.00  0.00    -0.248 C  
HETATM    2  C   UNL     1     -10.498   9.248  68.085  1.00  0.00    -0.263 C  
ENDROOT
BRANCH   1   3
HETATM    3  C   UNL     1      -9.290   7.306  67.118  1.00  0.00    -0.141 C  
HETATM    4  O   UNL     1      -9.202   6.667  66.080  1.00  0.00    -0.153 OA 
BRANCH   3   5
HETATM    5  O   UNL     1      -9.138   6.825  68.375  1.00  0.00    -0.127 OA 
BRANCH   5   6
HETATM    6  C   UNL     1      -9.818   5.594  68.650  1.00  0.00    -0.145 C  
HETATM    7  C   UNL     1     -10.955   5.891  69.612  1.00  0.00    -0.447 C  
ENDBRANCH   5   6
ENDBRANCH   3   5
ENDBRANCH   1   3
BRANCH   2   8
HETATM    8  C   UNL     1     -11.062  10.604  68.051  1.00  0.00    -0.361 A  
HETATM    9  O   UNL     1     -12.293  14.564  67.873  1.00  0.00    -0.615 OA 
HETATM   10  C   UNL     1     -11.181  11.244  66.806  1.00  0.00    -0.265 A  
HETATM   11  C   UNL     1     -11.599  12.573  66.729  1.00  0.00    -0.382 A  
HETATM   12  C   UNL     1     -11.370  11.313  69.222  1.00  0.00    -0.354 A  
HETATM   13  C   UNL     1     -11.903  13.254  67.912  1.00  0.00    -0.349 A  
HETATM   14  H   UNL     1     -12.499  15.027  68.676  1.00  0.00     0.000 HD 
HETATM   15  C   UNL     1     -11.798  12.638  69.152  1.00  0.00    -0.349 A  
BRANCH  11  16
HETATM   16  O   UNL     1     -11.732  13.311  65.581  1.00  0.00    -0.329 OA 
HETATM   17  C   UNL     1     -12.334  12.655  64.471  1.00  0.00    -0.464 C  
ENDBRANCH  11  16
ENDBRANCH   2   8
TORSDOF 5
ENDMDL
MODEL      108
REMARK 921   NORMALIZED FREE ENERGY PREDICTED BY IDOCK:   -3.92 KCAL/MOL
REMARK 922        TOTAL FREE ENERGY PREDICTED BY IDOCK:   -5.43 KCAL/MOL
REMARK 923 INTER-LIGAND FREE ENERGY PREDICTED BY IDOCK:   -5.10 KCAL/MOL
REMARK 924 INTRA-LIGAND FREE ENERGY PREDICTED BY IDOCK:   -0.34 KCAL/MOL
REMARK 927      BINDING AFFINITY PREDICTED BY RF-SCORE:    0.00 PKD
ROOT
HETATM    1  C   UNL     1      -9.999  17.171  66.645  1.00  0.00    -0.298 C  
HETATM    2  C   UNL     1     -10.355  16.177  65.817  1.00  0.00    -0.398 C  
ENDROOT
BRANCH   1   3
HETATM    3  C   UNL     1      -9.893  18.583  66.223  1.00  0.00    -0.337 C  
HETATM    4  O   UNL     1     -10.646  19.066  65.391  1.00  0.00    -0.517 OA 
BRANCH   3   5
HETATM    5  O   UNL     1      -8.816  19.186  66.781  1.00  0.00    -0.288 OA 
BRANCH   5   6
HETATM    6  C   UNL     1      -8.966  19.564  68.155  1.00  0.00    -0.329 C  
HETATM    7  C   UNL     1      -7.631  19.353  68.848  1.00  0.00    -0.398 C  
ENDBRANCH   5   6
ENDBRANCH   3   5
ENDBRANCH   1   3
BRANCH   2   8
HETATM    8  C   UNL     1     -10.614  14.793  66.234  1.00  0.00    -0.306 A  
HETATM    9  O   UNL     1     -11.140  10.767  67.101  1.00  0.00    -0.291 OA 
HETATM   10  C   UNL     1      -9.548  14.046  66.763  1.00  0.00    -0.293 A  
HETATM   11  C   UNL     1      -9.710  12.693  67.065  1.00  0.00    -0.225 A  
HETATM   12  C   UNL     1     -11.851  14.167  66.014  1.00  0.00    -0.409 A  
HETATM   13  C   UNL     1     -10.954  12.096  66.838  1.00  0.00    -0.270 A  
HETATM   14  H   UNL     1     -11.984  10.361  66.946  1.00  0.00     0.000 HD 
HETATM   15  C   UNL     1     -12.023  12.818  66.323  1.00  0.00    -0.460 A  
BRANCH  11  16
HETATM   16  O   UNL     1      -8.744  11.856  67.560  1.00  0.00    -0.151 OA 
HETATM   17  C   UNL     1      -7.555  12.474  68.042  1.00  0.00    -0.127 C  
ENDBRANCH  11  16
ENDBRANCH   2   8
TORSDOF 5
ENDMDL
MODEL      109
REMARK 921   NORMALIZED FREE ENERGY PREDICTED BY IDOCK:   -3.91 KCAL/MOL
REMARK 922        TOTAL FREE ENERGY PREDICTED BY IDOCK:   -5.42 KCAL/MOL
REMARK 923 INTER-LIGAND FREE ENERGY PREDICTED BY IDOCK:   -5.20 KCAL/MOL
REMARK 924 INTRA-LIGAND FREE ENERGY PREDICTED BY IDOCK:   -0.22 KCAL/MOL
REMARK 927      BINDING AFFINITY PREDICTED BY RF-SCORE:    0.00 PKD
ROOT
HETATM    1  C   UNL     1     -10.603   7.590  66.940  1.00  0.00    -0.367 C  
HETATM    2  C   UNL     1     -10.462   8.868  67.323  1.00  0.00    -0.348 C  
ENDROOT
BRANCH   1   3
HETATM    3  C   UNL     1     -10.937   6.493  67.872  1.00  0.00    -0.294 C  
HETATM    4  O   UNL     1     -11.350   6.710  69.001  1.00  0.00    -0.245 OA 
BRANCH   3   5
HETATM    5  O   UNL     1     -10.616   5.286  67.349  1.00  0.00    -0.185 OA 
BRANCH   5   6
HETATM    6  C   UNL     1      -9.434   5.261  66.539  1.00  0.00    -0.149 C  
HETATM    7  C   UNL     1      -9.728   4.423  65.307  1.00  0.00    -0.199 C  
ENDBRANCH   5   6
ENDBRANCH   3   5
ENDBRANCH   1   3
BRANCH   2   8
HETATM    8  C   UNL     1     -10.279  10.002  66.407  1.00  0.00    -0.290 A  
HETATM    9  O   UNL     1     -10.144  13.173  63.731  1.00  0.00    -0.731 OA 
HETATM   10  C   UNL     1     -10.832  11.243  66.765  1.00  0.00    -0.334 A  
HETATM   11  C   UNL     1     -10.789  12.320  65.879  1.00  0.00    -0.271 A  
HETATM   12  C   UNL     1      -9.680   9.852  65.147  1.00  0.00    -0.376 A  
HETATM   13  C   UNL     1     -10.182  12.144  64.632  1.00  0.00    -0.284 A  
HETATM   14  H   UNL     1      -9.732  13.053  62.884  1.00  0.00     0.000 HD 
HETATM   15  C   UNL     1      -9.624  10.928  64.261  1.00  0.00    -0.318 A  
BRANCH  11  16
HETATM   16  O   UNL     1     -11.310  13.569  66.102  1.00  0.00    -0.300 OA 
HETATM   17  C   UNL     1     -12.638  13.793  65.640  1.00  0.00    -0.509 C  
ENDBRANCH  11  16
ENDBRANCH   2   8
TORSDOF 5
ENDMDL
MODEL      110
REMARK 921   NORMALIZED FREE ENERGY PREDICTED BY IDOCK:   -3.90 KCAL/MOL
REMARK 922        TOTAL FREE ENERGY PREDICTED BY IDOCK:   -5.40 KCAL/MOL
REMARK 923 INTER-LIGAND FREE ENERGY PREDICTED BY IDOCK:   -5.09 KCAL/MOL
REMARK 924 INTRA-LIGAND FREE ENERGY PREDICTED BY IDOCK:   -0.32 KCAL/MOL
REMARK 927      BINDING AFFINITY PREDICTED BY RF-SCORE:    0.00 PKD
ROOT
HETATM    1  C   UNL     1     -11.848  10.913  69.977  1.00  0.00    -0.428 C  
HETATM    2  C   UNL     1     -12.255  10.485  71.182  1.00  0.00    -0.496 C  
ENDROOT
BRANCH   1   3
HETATM    3  C   UNL     1     -11.832  12.337  69.582  1.00  0.00    -0.324 C  
HETATM    4  O   UNL     1     -11.236  12.724  68.590  1.00  0.00    -0.247 OA 
BRANCH   3   5
HETATM    5  O   UNL     1     -12.445  13.112  70.509  1.00  0.00    -0.313 OA 
BRANCH   5   6
HETATM    6  C   UNL     1     -11.970  14.461  70.595  1.00  0.00    -0.323 C  
HETATM    7  C   UNL     1     -12.903  15.228  71.516  1.00  0.00    -0.469 C  
ENDBRANCH   5   6
ENDBRANCH   3   5
ENDBRANCH   1   3
BRANCH   2   8
HETATM    8  C   UNL     1     -12.144   9.100  71.659  1.00  0.00    -0.432 A  
HETATM    9  O   UNL     1     -11.607   5.116  72.695  1.00  0.00    -0.208 OA 
HETATM   10  C   UNL     1     -10.915   8.676  72.192  1.00  0.00    -0.434 A  
HETATM   11  C   UNL     1     -10.721   7.341  72.550  1.00  0.00    -0.262 A  
HETATM   12  C   UNL     1     -13.181   8.169  71.491  1.00  0.00    -0.310 A  
HETATM   13  C   UNL     1     -11.773   6.436  72.375  1.00  0.00    -0.245 A  
HETATM   14  H   UNL     1     -12.320   4.501  72.576  1.00  0.00     0.000 HD 
HETATM   15  C   UNL     1     -12.997   6.836  71.857  1.00  0.00    -0.229 A  
BRANCH  11  16
HETATM   16  O   UNL     1      -9.566   6.802  73.056  1.00  0.00    -0.144 OA 
HETATM   17  C   UNL     1      -8.567   7.724  73.477  1.00  0.00    -0.225 C  
ENDBRANCH  11  16
ENDBRANCH   2   8
TORSDOF 5
ENDMDL
MODEL      111
REMARK 921   NORMALIZED FREE ENERGY PREDICTED BY IDOCK:   -3.89 KCAL/MOL
REMARK 922        TOTAL FREE ENERGY PREDICTED BY IDOCK:   -5.40 KCAL/MOL
REMARK 923 INTER-LIGAND FREE ENERGY PREDICTED BY IDOCK:   -5.01 KCAL/MOL
REMARK 924 INTRA-LIGAND FREE ENERGY PREDICTED BY IDOCK:   -0.39 KCAL/MOL
REMARK 927      BINDING AFFINITY PREDICTED BY RF-SCORE:    0.00 PKD
ROOT
HETATM    1  C   UNL     1      -9.487  10.371  68.907  1.00  0.00    -0.190 C  
HETATM    2  C   UNL     1      -9.751   9.344  69.728  1.00  0.00    -0.215 C  
ENDROOT
BRANCH   1   3
HETATM    3  C   UNL     1      -8.340  10.392  67.974  1.00  0.00    -0.118 C  
HETATM    4  O   UNL     1      -7.972  11.421  67.428  1.00  0.00    -0.127 OA 
BRANCH   3   5
HETATM    5  O   UNL     1      -7.870   9.143  67.742  1.00  0.00    -0.099 OA 
BRANCH   5   6
HETATM    6  C   UNL     1      -6.449   9.037  67.596  1.00  0.00    -0.060 C  
HETATM    7  C   UNL     1      -5.961   7.948  68.536  1.00  0.00    -0.039 C  
ENDBRANCH   5   6
ENDBRANCH   3   5
ENDBRANCH   1   3
BRANCH   2   8
HETATM    8  C   UNL     1     -10.958   9.225  70.557  1.00  0.00    -0.318 A  
HETATM    9  O   UNL     1     -14.167   9.059  73.186  1.00  0.00    -1.142 OA 
HETATM   10  C   UNL     1     -11.680  10.393  70.854  1.00  0.00    -0.455 A  
HETATM   11  C   UNL     1     -12.764  10.353  71.732  1.00  0.00    -0.421 A  
HETATM   12  C   UNL     1     -11.339   8.010  71.148  1.00  0.00    -0.292 A  
HETATM   13  C   UNL     1     -13.124   9.129  72.304  1.00  0.00    -0.438 A  
HETATM   14  H   UNL     1     -14.411   8.228  73.575  1.00  0.00     0.000 HD 
HETATM   15  C   UNL     1     -12.429   7.961  72.018  1.00  0.00    -0.338 A  
BRANCH  11  16
HETATM   16  O   UNL     1     -13.529  11.424  72.118  1.00  0.00    -0.397 OA 
HETATM   17  C   UNL     1     -13.049  12.712  71.749  1.00  0.00    -0.360 C  
ENDBRANCH  11  16
ENDBRANCH   2   8
TORSDOF 5
ENDMDL
MODEL      112
REMARK 921   NORMALIZED FREE ENERGY PREDICTED BY IDOCK:   -3.89 KCAL/MOL
REMARK 922        TOTAL FREE ENERGY PREDICTED BY IDOCK:   -5.39 KCAL/MOL
REMARK 923 INTER-LIGAND FREE ENERGY PREDICTED BY IDOCK:   -5.11 KCAL/MOL
REMARK 924 INTRA-LIGAND FREE ENERGY PREDICTED BY IDOCK:   -0.28 KCAL/MOL
REMARK 927      BINDING AFFINITY PREDICTED BY RF-SCORE:    0.00 PKD
ROOT
HETATM    1  C   UNL     1     -11.431  12.330  68.974  1.00  0.00    -0.349 C  
HETATM    2  C   UNL     1     -11.083  12.151  67.691  1.00  0.00    -0.320 C  
ENDROOT
BRANCH   1   3
HETATM    3  C   UNL     1     -11.975  13.599  69.501  1.00  0.00    -0.341 C  
HETATM    4  O   UNL     1     -11.952  14.631  68.847  1.00  0.00    -0.307 OA 
BRANCH   3   5
HETATM    5  O   UNL     1     -12.369  13.470  70.790  1.00  0.00    -0.347 OA 
BRANCH   5   6
HETATM    6  C   UNL     1     -12.972  14.633  71.370  1.00  0.00    -0.334 C  
HETATM    7  C   UNL     1     -13.991  14.171  72.397  1.00  0.00    -0.613 C  
ENDBRANCH   5   6
ENDBRANCH   3   5
ENDBRANCH   1   3
BRANCH   2   8
HETATM    8  C   UNL     1     -10.682  10.866  67.104  1.00  0.00    -0.320 A  
HETATM    9  O   UNL     1      -9.253   7.228  65.704  1.00  0.00    -0.385 OA 
HETATM   10  C   UNL     1     -10.888   9.697  67.856  1.00  0.00    -0.272 A  
HETATM   11  C   UNL     1     -10.419   8.466  67.396  1.00  0.00    -0.283 A  
HETATM   12  C   UNL     1      -9.999  10.786  65.880  1.00  0.00    -0.304 A  
HETATM   13  C   UNL     1      -9.746   8.415  66.171  1.00  0.00    -0.153 A  
HETATM   14  H   UNL     1      -8.796   7.193  64.872  1.00  0.00     0.000 HD 
HETATM   15  C   UNL     1      -9.537   9.557  65.410  1.00  0.00    -0.342 A  
BRANCH  11  16
HETATM   16  O   UNL     1     -10.537   7.264  68.046  1.00  0.00    -0.208 OA 
HETATM   17  C   UNL     1     -10.657   7.319  69.463  1.00  0.00    -0.234 C  
ENDBRANCH  11  16
ENDBRANCH   2   8
TORSDOF 5
ENDMDL
MODEL      113
REMARK 921   NORMALIZED FREE ENERGY PREDICTED BY IDOCK:   -3.88 KCAL/MOL
REMARK 922        TOTAL FREE ENERGY PREDICTED BY IDOCK:   -5.38 KCAL/MOL
REMARK 923 INTER-LIGAND FREE ENERGY PREDICTED BY IDOCK:   -5.06 KCAL/MOL
REMARK 924 INTRA-LIGAND FREE ENERGY PREDICTED BY IDOCK:   -0.32 KCAL/MOL
REMARK 927      BINDING AFFINITY PREDICTED BY RF-SCORE:    0.00 PKD
ROOT
HETATM    1  C   UNL     1     -10.185   9.421  68.911  1.00  0.00    -0.215 C  
HETATM    2  C   UNL     1     -11.355  10.050  68.722  1.00  0.00    -0.117 C  
ENDROOT
BRANCH   1   3
HETATM    3  C   UNL     1      -9.991   7.975  68.673  1.00  0.00    -0.189 C  
HETATM    4  O   UNL     1      -9.865   7.182  69.593  1.00  0.00    -0.161 OA 
BRANCH   3   5
HETATM    5  O   UNL     1      -9.861   7.707  67.352  1.00  0.00    -0.149 OA 
BRANCH   5   6
HETATM    6  C   UNL     1     -10.731   6.689  66.842  1.00  0.00    -0.331 C  
HETATM    7  C   UNL     1      -9.869   5.548  66.330  1.00  0.00    -0.192 C  
ENDBRANCH   5   6
ENDBRANCH   3   5
ENDBRANCH   1   3
BRANCH   2   8
HETATM    8  C   UNL     1     -11.546  11.504  68.804  1.00  0.00    -0.379 A  
HETATM    9  O   UNL     1     -12.472  15.543  69.057  1.00  0.00    -0.607 OA 
HETATM   10  C   UNL     1     -11.945  12.055  70.033  1.00  0.00    -0.400 A  
HETATM   11  C   UNL     1     -12.254  13.412  70.136  1.00  0.00    -0.315 A  
HETATM   12  C   UNL     1     -11.457  12.333  67.675  1.00  0.00    -0.401 A  
HETATM   13  C   UNL     1     -12.154  14.214  68.995  1.00  0.00    -0.313 A  
HETATM   14  H   UNL     1     -12.404  16.089  68.282  1.00  0.00     0.000 HD 
HETATM   15  C   UNL     1     -11.755  13.692  67.773  1.00  0.00    -0.397 A  
BRANCH  11  16
HETATM   16  O   UNL     1     -12.676  14.059  71.269  1.00  0.00    -0.327 OA 
HETATM   17  C   UNL     1     -13.616  13.366  72.083  1.00  0.00    -0.567 C  
ENDBRANCH  11  16
ENDBRANCH   2   8
TORSDOF 5
ENDMDL
MODEL      114
REMARK 921   NORMALIZED FREE ENERGY PREDICTED BY IDOCK:   -3.88 KCAL/MOL
REMARK 922        TOTAL FREE ENERGY PREDICTED BY IDOCK:   -5.38 KCAL/MOL
REMARK 923 INTER-LIGAND FREE ENERGY PREDICTED BY IDOCK:   -5.06 KCAL/MOL
REMARK 924 INTRA-LIGAND FREE ENERGY PREDICTED BY IDOCK:   -0.31 KCAL/MOL
REMARK 927      BINDING AFFINITY PREDICTED BY RF-SCORE:    0.00 PKD
ROOT
HETATM    1  C   UNL     1      -7.845  15.617  68.651  1.00  0.00    -0.152 C  
HETATM    2  C   UNL     1      -7.998  15.073  67.434  1.00  0.00    -0.218 C  
ENDROOT
BRANCH   1   3
HETATM    3  C   UNL     1      -6.605  15.493  69.446  1.00  0.00    -0.158 C  
HETATM    4  O   UNL     1      -5.793  16.403  69.522  1.00  0.00    -0.148 OA 
BRANCH   3   5
HETATM    5  O   UNL     1      -6.465  14.243  69.949  1.00  0.00    -0.140 OA 
BRANCH   5   6
HETATM    6  C   UNL     1      -5.219  13.980  70.607  1.00  0.00    -0.114 C  
HETATM    7  C   UNL     1      -5.488  13.886  72.098  1.00  0.00    -0.192 C  
ENDBRANCH   5   6
ENDBRANCH   3   5
ENDBRANCH   1   3
BRANCH   2   8
HETATM    8  C   UNL     1      -9.153  15.300  66.556  1.00  0.00    -0.334 A  
HETATM    9  O   UNL     1     -12.185  15.847  63.773  1.00  0.00    -1.213 OA 
HETATM   10  C   UNL     1      -9.765  14.184  65.959  1.00  0.00    -0.297 A  
HETATM   11  C   UNL     1     -10.790  14.352  65.026  1.00  0.00    -0.407 A  
HETATM   12  C   UNL     1      -9.583  16.590  66.207  1.00  0.00    -0.333 A  
HETATM   13  C   UNL     1     -11.200  15.648  64.701  1.00  0.00    -0.369 A  
HETATM   14  H   UNL     1     -12.464  16.728  63.551  1.00  0.00     0.000 HD 
HETATM   15  C   UNL     1     -10.613  16.764  65.283  1.00  0.00    -0.185 A  
BRANCH  11  16
HETATM   16  O   UNL     1     -11.446  13.348  64.361  1.00  0.00    -0.355 OA 
HETATM   17  C   UNL     1     -10.634  12.425  63.645  1.00  0.00    -0.445 C  
ENDBRANCH  11  16
ENDBRANCH   2   8
TORSDOF 5
ENDMDL
MODEL      115
REMARK 921   NORMALIZED FREE ENERGY PREDICTED BY IDOCK:   -3.87 KCAL/MOL
REMARK 922        TOTAL FREE ENERGY PREDICTED BY IDOCK:   -5.37 KCAL/MOL
REMARK 923 INTER-LIGAND FREE ENERGY PREDICTED BY IDOCK:   -4.92 KCAL/MOL
REMARK 924 INTRA-LIGAND FREE ENERGY PREDICTED BY IDOCK:   -0.45 KCAL/MOL
REMARK 927      BINDING AFFINITY PREDICTED BY RF-SCORE:    0.00 PKD
ROOT
HETATM    1  C   UNL     1     -10.427  13.067  66.980  1.00  0.00    -0.249 C  
HETATM    2  C   UNL     1      -9.715  14.107  66.523  1.00  0.00    -0.307 C  
ENDROOT
BRANCH   1   3
HETATM    3  C   UNL     1     -10.081  11.657  66.699  1.00  0.00    -0.208 C  
HETATM    4  O   UNL     1      -9.205  11.073  67.317  1.00  0.00    -0.148 OA 
BRANCH   3   5
HETATM    5  O   UNL     1     -10.765  11.186  65.628  1.00  0.00    -0.250 OA 
BRANCH   5   6
HETATM    6  C   UNL     1      -9.999  11.034  64.427  1.00  0.00    -0.312 C  
HETATM    7  C   UNL     1     -10.589  11.958  63.375  1.00  0.00    -0.485 C  
ENDBRANCH   5   6
ENDBRANCH   3   5
ENDBRANCH   1   3
BRANCH   2   8
HETATM    8  C   UNL     1      -9.941  15.508  66.904  1.00  0.00    -0.251 A  
HETATM    9  O   UNL     1     -10.216  19.465  68.129  1.00  0.00    -0.393 OA 
HETATM   10  C   UNL     1      -9.260  16.510  66.191  1.00  0.00    -0.338 A  
HETATM   11  C   UNL     1      -9.348  17.845  66.587  1.00  0.00    -0.286 A  
HETATM   12  C   UNL     1     -10.715  15.861  68.020  1.00  0.00    -0.301 A  
HETATM   13  C   UNL     1     -10.129  18.169  67.701  1.00  0.00    -0.359 A  
HETATM   14  H   UNL     1     -10.746  19.685  68.886  1.00  0.00     0.000 HD 
HETATM   15  C   UNL     1     -10.814  17.195  68.415  1.00  0.00    -0.309 A  
BRANCH  11  16
HETATM   16  O   UNL     1      -8.715  18.906  65.991  1.00  0.00    -0.466 OA 
HETATM   17  C   UNL     1      -7.291  18.882  66.000  1.00  0.00    -0.259 C  
ENDBRANCH  11  16
ENDBRANCH   2   8
TORSDOF 5
ENDMDL
MODEL      116
REMARK 921   NORMALIZED FREE ENERGY PREDICTED BY IDOCK:   -3.87 KCAL/MOL
REMARK 922        TOTAL FREE ENERGY PREDICTED BY IDOCK:   -5.37 KCAL/MOL
REMARK 923 INTER-LIGAND FREE ENERGY PREDICTED BY IDOCK:   -5.00 KCAL/MOL
REMARK 924 INTRA-LIGAND FREE ENERGY PREDICTED BY IDOCK:   -0.37 KCAL/MOL
REMARK 927      BINDING AFFINITY PREDICTED BY RF-SCORE:    0.00 PKD
ROOT
HETATM    1  C   UNL     1      -8.045   9.069  71.219  1.00  0.00    -0.146 C  
HETATM    2  C   UNL     1      -9.199   9.325  70.585  1.00  0.00    -0.321 C  
ENDROOT
BRANCH   1   3
HETATM    3  C   UNL     1      -6.718   9.406  70.660  1.00  0.00    -0.097 C  
HETATM    4  O   UNL     1      -6.066   8.597  70.018  1.00  0.00    -0.030 OA 
BRANCH   3   5
HETATM    5  O   UNL     1      -6.315  10.637  71.053  1.00  0.00    -0.349 OA 
BRANCH   5   6
HETATM    6  C   UNL     1      -5.752  11.459  70.023  1.00  0.00    -0.113 C  
HETATM    7  C   UNL     1      -6.799  11.633  68.937  1.00  0.00    -0.101 C  
ENDBRANCH   5   6
ENDBRANCH   3   5
ENDBRANCH   1   3
BRANCH   2   8
HETATM    8  C   UNL     1     -10.534   9.142  71.171  1.00  0.00    -0.385 A  
HETATM    9  O   UNL     1     -14.194   8.873  73.112  1.00  0.00    -1.144 OA 
HETATM   10  C   UNL     1     -11.445  10.209  71.097  1.00  0.00    -0.387 A  
HETATM   11  C   UNL     1     -12.682  10.131  71.739  1.00  0.00    -0.434 A  
HETATM   12  C   UNL     1     -10.878   7.991  71.897  1.00  0.00    -0.316 A  
HETATM   13  C   UNL     1     -13.000   8.971  72.452  1.00  0.00    -0.405 A  
HETATM   14  H   UNL     1     -14.410   8.086  73.597  1.00  0.00     0.000 HD 
HETATM   15  C   UNL     1     -12.116   7.903  72.533  1.00  0.00    -0.298 A  
BRANCH  11  16
HETATM   16  O   UNL     1     -13.642  11.110  71.760  1.00  0.00    -0.189 OA 
HETATM   17  C   UNL     1     -13.240  12.383  72.253  1.00  0.00    -0.287 C  
ENDBRANCH  11  16
ENDBRANCH   2   8
TORSDOF 5
ENDMDL
MODEL      117
REMARK 921   NORMALIZED FREE ENERGY PREDICTED BY IDOCK:   -3.87 KCAL/MOL
REMARK 922        TOTAL FREE ENERGY PREDICTED BY IDOCK:   -5.36 KCAL/MOL
REMARK 923 INTER-LIGAND FREE ENERGY PREDICTED BY IDOCK:   -5.07 KCAL/MOL
REMARK 924 INTRA-LIGAND FREE ENERGY PREDICTED BY IDOCK:   -0.29 KCAL/MOL
REMARK 927      BINDING AFFINITY PREDICTED BY RF-SCORE:    0.00 PKD
ROOT
HETATM    1  C   UNL     1     -11.611   8.971  70.310  1.00  0.00    -0.082 C  
HETATM    2  C   UNL     1     -11.606  10.279  70.013  1.00  0.00    -0.349 C  
ENDROOT
BRANCH   1   3
HETATM    3  C   UNL     1     -12.055   8.435  71.614  1.00  0.00    -0.313 C  
HETATM    4  O   UNL     1     -13.187   8.010  71.785  1.00  0.00    -0.335 OA 
BRANCH   3   5
HETATM    5  O   UNL     1     -11.101   8.592  72.563  1.00  0.00    -0.325 OA 
BRANCH   5   6
HETATM    6  C   UNL     1     -10.509   7.381  73.048  1.00  0.00    -0.323 C  
HETATM    7  C   UNL     1      -9.213   7.742  73.752  1.00  0.00    -0.316 C  
ENDBRANCH   5   6
ENDBRANCH   3   5
ENDBRANCH   1   3
BRANCH   2   8
HETATM    8  C   UNL     1     -11.315  10.835  68.685  1.00  0.00    -0.356 A  
HETATM    9  O   UNL     1     -10.872  12.353  64.846  1.00  0.00    -0.279 OA 
HETATM   10  C   UNL     1     -11.793  12.121  68.382  1.00  0.00    -0.360 A  
HETATM   11  C   UNL     1     -11.647  12.647  67.098  1.00  0.00    -0.368 A  
HETATM   12  C   UNL     1     -10.683  10.081  67.684  1.00  0.00    -0.340 A  
HETATM   13  C   UNL     1     -11.010  11.875  66.121  1.00  0.00    -0.308 A  
HETATM   14  H   UNL     1     -10.440  11.829  64.183  1.00  0.00     0.000 HD 
HETATM   15  C   UNL     1     -10.524  10.606  66.402  1.00  0.00    -0.276 A  
BRANCH  11  16
HETATM   16  O   UNL     1     -12.090  13.874  66.674  1.00  0.00    -0.423 OA 
HETATM   17  C   UNL     1     -11.301  14.998  67.048  1.00  0.00    -0.318 C  
ENDBRANCH  11  16
ENDBRANCH   2   8
TORSDOF 5
ENDMDL
MODEL      118
REMARK 921   NORMALIZED FREE ENERGY PREDICTED BY IDOCK:   -3.86 KCAL/MOL
REMARK 922        TOTAL FREE ENERGY PREDICTED BY IDOCK:   -5.35 KCAL/MOL
REMARK 923 INTER-LIGAND FREE ENERGY PREDICTED BY IDOCK:   -4.99 KCAL/MOL
REMARK 924 INTRA-LIGAND FREE ENERGY PREDICTED BY IDOCK:   -0.37 KCAL/MOL
REMARK 927      BINDING AFFINITY PREDICTED BY RF-SCORE:    0.00 PKD
ROOT
HETATM    1  C   UNL     1     -10.728   9.031  68.805  1.00  0.00    -0.140 C  
HETATM    2  C   UNL     1     -10.081  10.042  68.205  1.00  0.00    -0.186 C  
ENDROOT
BRANCH   1   3
HETATM    3  C   UNL     1     -10.593   8.720  70.244  1.00  0.00    -0.216 C  
HETATM    4  O   UNL     1      -9.506   8.695  70.799  1.00  0.00    -0.166 OA 
BRANCH   3   5
HETATM    5  O   UNL     1     -11.784   8.368  70.786  1.00  0.00    -0.276 OA 
BRANCH   5   6
HETATM    6  C   UNL     1     -12.203   9.149  71.912  1.00  0.00    -0.379 C  
HETATM    7  C   UNL     1     -12.895  10.395  71.387  1.00  0.00    -0.556 C  
ENDBRANCH   5   6
ENDBRANCH   3   5
ENDBRANCH   1   3
BRANCH   2   8
HETATM    8  C   UNL     1     -10.304  10.471  66.818  1.00  0.00    -0.301 A  
HETATM    9  O   UNL     1     -10.565  11.819  62.900  1.00  0.00    -0.662 OA 
HETATM   10  C   UNL     1      -9.662   9.761  65.790  1.00  0.00    -0.340 A  
HETATM   11  C   UNL     1      -9.745  10.198  64.467  1.00  0.00    -0.293 A  
HETATM   12  C   UNL     1     -11.035  11.628  66.504  1.00  0.00    -0.349 A  
HETATM   13  C   UNL     1     -10.483  11.351  64.183  1.00  0.00    -0.363 A  
HETATM   14  H   UNL     1     -11.066  12.602  62.706  1.00  0.00     0.000 HD 
HETATM   15  C   UNL     1     -11.131  12.064  65.183  1.00  0.00    -0.369 A  
BRANCH  11  16
HETATM   16  O   UNL     1      -9.147   9.607  63.384  1.00  0.00    -0.248 OA 
HETATM   17  C   UNL     1      -7.910   8.945  63.625  1.00  0.00    -0.141 C  
ENDBRANCH  11  16
ENDBRANCH   2   8
TORSDOF 5
ENDMDL
MODEL      119
REMARK 921   NORMALIZED FREE ENERGY PREDICTED BY IDOCK:   -3.83 KCAL/MOL
REMARK 922        TOTAL FREE ENERGY PREDICTED BY IDOCK:   -5.32 KCAL/MOL
REMARK 923 INTER-LIGAND FREE ENERGY PREDICTED BY IDOCK:   -5.02 KCAL/MOL
REMARK 924 INTRA-LIGAND FREE ENERGY PREDICTED BY IDOCK:   -0.30 KCAL/MOL
REMARK 927      BINDING AFFINITY PREDICTED BY RF-SCORE:    0.00 PKD
ROOT
HETATM    1  C   UNL     1      -9.170  10.263  67.306  1.00  0.00    -0.157 C  
HETATM    2  C   UNL     1      -9.666  11.509  67.343  1.00  0.00    -0.191 C  
ENDROOT
BRANCH   1   3
HETATM    3  C   UNL     1      -8.664   9.553  68.500  1.00  0.00    -0.124 C  
HETATM    4  O   UNL     1      -7.516   9.143  68.567  1.00  0.00    -0.080 OA 
BRANCH   3   5
HETATM    5  O   UNL     1      -9.653   9.337  69.400  1.00  0.00    -0.159 OA 
BRANCH   5   6
HETATM    6  C   UNL     1      -9.224   8.861  70.682  1.00  0.00    -0.213 C  
HETATM    7  C   UNL     1     -10.108   7.687  71.065  1.00  0.00    -0.196 C  
ENDBRANCH   5   6
ENDBRANCH   3   5
ENDBRANCH   1   3
BRANCH   2   8
HETATM    8  C   UNL     1     -10.312  12.187  66.211  1.00  0.00    -0.250 A  
HETATM    9  O   UNL     1     -12.359  14.290  63.275  1.00  0.00    -1.118 OA 
HETATM   10  C   UNL     1     -10.037  13.550  66.006  1.00  0.00    -0.316 A  
HETATM   11  C   UNL     1     -10.713  14.269  65.019  1.00  0.00    -0.420 A  
HETATM   12  C   UNL     1     -11.274  11.551  65.411  1.00  0.00    -0.207 A  
HETATM   13  C   UNL     1     -11.663  13.608  64.235  1.00  0.00    -0.403 A  
HETATM   14  H   UNL     1     -13.005  13.842  62.742  1.00  0.00     0.000 HD 
HETATM   15  C   UNL     1     -11.945  12.261  64.417  1.00  0.00    -0.473 A  
BRANCH  11  16
HETATM   16  O   UNL     1     -10.551  15.602  64.740  1.00  0.00    -0.448 OA 
HETATM   17  C   UNL     1      -9.850  16.373  65.710  1.00  0.00    -0.271 C  
ENDBRANCH  11  16
ENDBRANCH   2   8
TORSDOF 5
ENDMDL
MODEL      120
REMARK 921   NORMALIZED FREE ENERGY PREDICTED BY IDOCK:   -3.83 KCAL/MOL
REMARK 922        TOTAL FREE ENERGY PREDICTED BY IDOCK:   -5.32 KCAL/MOL
REMARK 923 INTER-LIGAND FREE ENERGY PREDICTED BY IDOCK:   -5.16 KCAL/MOL
REMARK 924 INTRA-LIGAND FREE ENERGY PREDICTED BY IDOCK:   -0.16 KCAL/MOL
REMARK 927      BINDING AFFINITY PREDICTED BY RF-SCORE:    0.00 PKD
ROOT
HETATM    1  C   UNL     1     -10.620  14.958  68.080  1.00  0.00    -0.244 C  
HETATM    2  C   UNL     1     -10.352  13.724  67.625  1.00  0.00    -0.239 C  
ENDROOT
BRANCH   1   3
HETATM    3  C   UNL     1      -9.862  15.604  69.172  1.00  0.00    -0.247 C  
HETATM    4  O   UNL     1     -10.289  15.647  70.316  1.00  0.00    -0.307 OA 
BRANCH   3   5
HETATM    5  O   UNL     1      -8.743  16.209  68.705  1.00  0.00    -0.192 OA 
BRANCH   5   6
HETATM    6  C   UNL     1      -7.621  15.345  68.486  1.00  0.00    -0.122 C  
HETATM    7  C   UNL     1      -7.010  15.019  69.837  1.00  0.00    -0.149 C  
ENDBRANCH   5   6
ENDBRANCH   3   5
ENDBRANCH   1   3
BRANCH   2   8
HETATM    8  C   UNL     1     -10.983  13.111  66.449  1.00  0.00    -0.305 A  
HETATM    9  O   UNL     1     -12.581  11.648  62.907  1.00  0.00    -0.914 OA 
HETATM   10  C   UNL     1     -10.175  12.368  65.571  1.00  0.00    -0.297 A  
HETATM   11  C   UNL     1     -10.699  11.865  64.380  1.00  0.00    -0.323 A  
HETATM   12  C   UNL     1     -12.328  13.342  66.118  1.00  0.00    -0.440 A  
HETATM   13  C   UNL     1     -12.043  12.107  64.078  1.00  0.00    -0.443 A  
HETATM   14  H   UNL     1     -13.493  11.813  62.702  1.00  0.00     0.000 HD 
HETATM   15  C   UNL     1     -12.860  12.833  64.934  1.00  0.00    -0.357 A  
BRANCH  11  16
HETATM   16  O   UNL     1     -10.010  11.149  63.435  1.00  0.00    -0.314 OA 
HETATM   17  C   UNL     1      -9.304  10.003  63.897  1.00  0.00    -0.263 C  
ENDBRANCH  11  16
ENDBRANCH   2   8
TORSDOF 5
ENDMDL
MODEL      121
REMARK 921   NORMALIZED FREE ENERGY PREDICTED BY IDOCK:   -3.83 KCAL/MOL
REMARK 922        TOTAL FREE ENERGY PREDICTED BY IDOCK:   -5.32 KCAL/MOL
REMARK 923 INTER-LIGAND FREE ENERGY PREDICTED BY IDOCK:   -4.93 KCAL/MOL
REMARK 924 INTRA-LIGAND FREE ENERGY PREDICTED BY IDOCK:   -0.39 KCAL/MOL
REMARK 927      BINDING AFFINITY PREDICTED BY RF-SCORE:    0.00 PKD
ROOT
HETATM    1  C   UNL     1      -9.378  10.526  67.462  1.00  0.00    -0.162 C  
HETATM    2  C   UNL     1      -9.177  10.741  66.153  1.00  0.00    -0.202 C  
ENDROOT
BRANCH   1   3
HETATM    3  C   UNL     1      -8.485   9.696  68.296  1.00  0.00    -0.118 C  
HETATM    4  O   UNL     1      -8.585   9.663  69.513  1.00  0.00    -0.143 OA 
BRANCH   3   5
HETATM    5  O   UNL     1      -7.520   9.107  67.550  1.00  0.00    -0.087 OA 
BRANCH   5   6
HETATM    6  C   UNL     1      -7.406   7.687  67.700  1.00  0.00    -0.095 C  
HETATM    7  C   UNL     1      -7.123   7.093  66.331  1.00  0.00    -0.077 C  
ENDBRANCH   5   6
ENDBRANCH   3   5
ENDBRANCH   1   3
BRANCH   2   8
HETATM    8  C   UNL     1      -9.955  11.676  65.329  1.00  0.00    -0.292 A  
HETATM    9  O   UNL     1     -12.431  14.301  63.276  1.00  0.00    -1.133 OA 
HETATM   10  C   UNL     1     -10.101  12.998  65.782  1.00  0.00    -0.294 A  
HETATM   11  C   UNL     1     -10.926  13.894  65.099  1.00  0.00    -0.350 A  
HETATM   12  C   UNL     1     -10.644  11.262  64.179  1.00  0.00    -0.437 A  
HETATM   13  C   UNL     1     -11.597  13.455  63.954  1.00  0.00    -0.354 A  
HETATM   14  H   UNL     1     -12.888  14.002  62.499  1.00  0.00     0.000 HD 
HETATM   15  C   UNL     1     -11.461  12.155  63.487  1.00  0.00    -0.544 A  
BRANCH  11  16
HETATM   16  O   UNL     1     -11.168  15.197  65.453  1.00  0.00    -0.346 OA 
HETATM   17  C   UNL     1     -10.245  15.790  66.360  1.00  0.00    -0.293 C  
ENDBRANCH  11  16
ENDBRANCH   2   8
TORSDOF 5
ENDMDL
MODEL      122
REMARK 921   NORMALIZED FREE ENERGY PREDICTED BY IDOCK:   -3.82 KCAL/MOL
REMARK 922        TOTAL FREE ENERGY PREDICTED BY IDOCK:   -5.30 KCAL/MOL
REMARK 923 INTER-LIGAND FREE ENERGY PREDICTED BY IDOCK:   -4.98 KCAL/MOL
REMARK 924 INTRA-LIGAND FREE ENERGY PREDICTED BY IDOCK:   -0.32 KCAL/MOL
REMARK 927      BINDING AFFINITY PREDICTED BY RF-SCORE:    0.00 PKD
ROOT
HETATM    1  C   UNL     1      -9.668  10.906  68.629  1.00  0.00    -0.188 C  
HETATM    2  C   UNL     1      -9.919   9.762  69.282  1.00  0.00    -0.201 C  
ENDROOT
BRANCH   1   3
HETATM    3  C   UNL     1      -8.792  10.989  67.441  1.00  0.00    -0.138 C  
HETATM    4  O   UNL     1      -8.120  11.981  67.203  1.00  0.00    -0.165 OA 
BRANCH   3   5
HETATM    5  O   UNL     1      -8.938   9.903  66.644  1.00  0.00    -0.137 OA 
BRANCH   5   6
HETATM    6  C   UNL     1      -7.751   9.472  65.967  1.00  0.00    -0.100 C  
HETATM    7  C   UNL     1      -8.144   8.388  64.978  1.00  0.00    -0.147 C  
ENDBRANCH   5   6
ENDBRANCH   3   5
ENDBRANCH   1   3
BRANCH   2   8
HETATM    8  C   UNL     1     -10.897   9.616  70.369  1.00  0.00    -0.353 A  
HETATM    9  O   UNL     1     -13.813   8.907  73.238  1.00  0.00    -1.163 OA 
HETATM   10  C   UNL     1     -10.785   8.504  71.220  1.00  0.00    -0.302 A  
HETATM   11  C   UNL     1     -11.754   8.255  72.193  1.00  0.00    -0.365 A  
HETATM   12  C   UNL     1     -11.993  10.481  70.507  1.00  0.00    -0.436 A  
HETATM   13  C   UNL     1     -12.834   9.136  72.310  1.00  0.00    -0.401 A  
HETATM   14  H   UNL     1     -14.547   9.505  73.317  1.00  0.00     0.000 HD 
HETATM   15  C   UNL     1     -12.960  10.244  71.483  1.00  0.00    -0.556 A  
BRANCH  11  16
HETATM   16  O   UNL     1     -11.769   7.196  73.064  1.00  0.00    -0.080 OA 
HETATM   17  C   UNL     1     -10.900   6.111  72.758  1.00  0.00    -0.250 C  
ENDBRANCH  11  16
ENDBRANCH   2   8
TORSDOF 5
ENDMDL
MODEL      123
REMARK 921   NORMALIZED FREE ENERGY PREDICTED BY IDOCK:   -3.81 KCAL/MOL
REMARK 922        TOTAL FREE ENERGY PREDICTED BY IDOCK:   -5.29 KCAL/MOL
REMARK 923 INTER-LIGAND FREE ENERGY PREDICTED BY IDOCK:   -4.93 KCAL/MOL
REMARK 924 INTRA-LIGAND FREE ENERGY PREDICTED BY IDOCK:   -0.36 KCAL/MOL
REMARK 927      BINDING AFFINITY PREDICTED BY RF-SCORE:    0.00 PKD
ROOT
HETATM    1  C   UNL     1     -10.840  15.125  68.547  1.00  0.00    -0.247 C  
HETATM    2  C   UNL     1     -10.784  13.950  67.902  1.00  0.00    -0.248 C  
ENDROOT
BRANCH   1   3
HETATM    3  C   UNL     1     -10.279  15.339  69.897  1.00  0.00    -0.217 C  
HETATM    4  O   UNL     1      -9.187  15.858  70.067  1.00  0.00     0.071 OA 
BRANCH   3   5
HETATM    5  O   UNL     1     -11.069  14.791  70.852  1.00  0.00    -0.162 OA 
BRANCH   5   6
HETATM    6  C   UNL     1     -12.283  15.499  71.128  1.00  0.00    -0.396 C  
HETATM    7  C   UNL     1     -12.169  16.101  72.518  1.00  0.00    -0.609 C  
ENDBRANCH   5   6
ENDBRANCH   3   5
ENDBRANCH   1   3
BRANCH   2   8
HETATM    8  C   UNL     1     -11.195  13.740  66.507  1.00  0.00    -0.319 A  
HETATM    9  O   UNL     1     -12.067  13.390  62.463  1.00  0.00    -0.481 OA 
HETATM   10  C   UNL     1     -10.364  12.969  65.677  1.00  0.00    -0.294 A  
HETATM   11  C   UNL     1     -10.647  12.837  64.317  1.00  0.00    -0.400 A  
HETATM   12  C   UNL     1     -12.318  14.377  65.957  1.00  0.00    -0.337 A  
HETATM   13  C   UNL     1     -11.775  13.480  63.796  1.00  0.00    -0.321 A  
HETATM   14  H   UNL     1     -12.832  13.827  62.110  1.00  0.00     0.000 HD 
HETATM   15  C   UNL     1     -12.612  14.241  64.601  1.00  0.00    -0.277 A  
BRANCH  11  16
HETATM   16  O   UNL     1      -9.903  12.135  63.403  1.00  0.00    -0.368 OA 
HETATM   17  C   UNL     1      -9.747  10.742  63.648  1.00  0.00    -0.327 C  
ENDBRANCH  11  16
ENDBRANCH   2   8
TORSDOF 5
ENDMDL
MODEL      124
REMARK 921   NORMALIZED FREE ENERGY PREDICTED BY IDOCK:   -3.79 KCAL/MOL
REMARK 922        TOTAL FREE ENERGY PREDICTED BY IDOCK:   -5.27 KCAL/MOL
REMARK 923 INTER-LIGAND FREE ENERGY PREDICTED BY IDOCK:   -4.81 KCAL/MOL
REMARK 924 INTRA-LIGAND FREE ENERGY PREDICTED BY IDOCK:   -0.46 KCAL/MOL
REMARK 927      BINDING AFFINITY PREDICTED BY RF-SCORE:    0.00 PKD
ROOT
HETATM    1  C   UNL     1     -11.190   7.275  70.109  1.00  0.00    -0.264 C  
HETATM    2  C   UNL     1     -10.533   8.439  69.991  1.00  0.00    -0.224 C  
ENDROOT
BRANCH   1   3
HETATM    3  C   UNL     1     -11.367   6.567  71.395  1.00  0.00    -0.294 C  
HETATM    4  O   UNL     1     -10.809   5.506  71.629  1.00  0.00    -0.245 OA 
BRANCH   3   5
HETATM    5  O   UNL     1     -12.285   7.186  72.175  1.00  0.00    -0.284 OA 
BRANCH   5   6
HETATM    6  C   UNL     1     -13.616   7.225  71.647  1.00  0.00    -0.349 C  
HETATM    7  C   UNL     1     -14.159   8.629  71.847  1.00  0.00    -0.512 C  
ENDBRANCH   5   6
ENDBRANCH   3   5
ENDBRANCH   1   3
BRANCH   2   8
HETATM    8  C   UNL     1     -10.467   9.241  68.762  1.00  0.00    -0.233 A  
HETATM    9  O   UNL     1     -10.658  11.422  65.235  1.00  0.00    -0.273 OA 
HETATM   10  C   UNL     1     -11.117  10.486  68.744  1.00  0.00    -0.315 A  
HETATM   11  C   UNL     1     -11.185  11.234  67.568  1.00  0.00    -0.291 A  
HETATM   12  C   UNL     1      -9.881   8.753  67.584  1.00  0.00    -0.228 A  
HETATM   13  C   UNL     1     -10.589  10.725  66.410  1.00  0.00    -0.203 A  
HETATM   14  H   UNL     1     -10.253  11.076  64.448  1.00  0.00     0.000 HD 
HETATM   15  C   UNL     1      -9.936   9.500  66.408  1.00  0.00    -0.339 A  
BRANCH  11  16
HETATM   16  O   UNL     1     -11.808  12.446  67.417  1.00  0.00    -0.441 OA 
HETATM   17  C   UNL     1     -11.505  13.441  68.390  1.00  0.00    -0.316 C  
ENDBRANCH  11  16
ENDBRANCH   2   8
TORSDOF 5
ENDMDL
MODEL      125
REMARK 921   NORMALIZED FREE ENERGY PREDICTED BY IDOCK:   -3.78 KCAL/MOL
REMARK 922        TOTAL FREE ENERGY PREDICTED BY IDOCK:   -5.25 KCAL/MOL
REMARK 923 INTER-LIGAND FREE ENERGY PREDICTED BY IDOCK:   -4.95 KCAL/MOL
REMARK 924 INTRA-LIGAND FREE ENERGY PREDICTED BY IDOCK:   -0.31 KCAL/MOL
REMARK 927      BINDING AFFINITY PREDICTED BY RF-SCORE:    0.00 PKD
ROOT
HETATM    1  C   UNL     1      -8.133  16.602  66.581  1.00  0.00    -0.309 C  
HETATM    2  C   UNL     1      -8.842  15.475  66.744  1.00  0.00    -0.297 C  
ENDROOT
BRANCH   1   3
HETATM    3  C   UNL     1      -6.961  16.953  67.411  1.00  0.00    -0.154 C  
HETATM    4  O   UNL     1      -6.913  16.690  68.603  1.00  0.00    -0.154 OA 
BRANCH   3   5
HETATM    5  O   UNL     1      -6.058  17.676  66.707  1.00  0.00    -0.141 OA 
BRANCH   5   6
HETATM    6  C   UNL     1      -6.545  18.255  65.491  1.00  0.00    -0.219 C  
HETATM    7  C   UNL     1      -6.605  19.761  65.679  1.00  0.00    -0.281 C  
ENDBRANCH   5   6
ENDBRANCH   3   5
ENDBRANCH   1   3
BRANCH   2   8
HETATM    8  C   UNL     1      -9.915  15.024  65.848  1.00  0.00    -0.353 A  
HETATM    9  O   UNL     1     -12.667  13.673  63.048  1.00  0.00    -0.835 OA 
HETATM   10  C   UNL     1     -10.036  13.647  65.594  1.00  0.00    -0.261 A  
HETATM   11  C   UNL     1     -10.960  13.177  64.660  1.00  0.00    -0.356 A  
HETATM   12  C   UNL     1     -10.735  15.927  65.154  1.00  0.00    -0.449 A  
HETATM   13  C   UNL     1     -11.767  14.099  63.987  1.00  0.00    -0.207 A  
HETATM   14  H   UNL     1     -13.215  14.298  62.591  1.00  0.00     0.000 HD 
HETATM   15  C   UNL     1     -11.668  15.463  64.227  1.00  0.00    -0.212 A  
BRANCH  11  16
HETATM   16  O   UNL     1     -11.156  11.866  64.309  1.00  0.00    -0.316 OA 
HETATM   17  C   UNL     1     -10.263  11.329  63.339  1.00  0.00    -0.403 C  
ENDBRANCH  11  16
ENDBRANCH   2   8
TORSDOF 5
ENDMDL
MODEL      126
REMARK 921   NORMALIZED FREE ENERGY PREDICTED BY IDOCK:   -3.77 KCAL/MOL
REMARK 922        TOTAL FREE ENERGY PREDICTED BY IDOCK:   -5.24 KCAL/MOL
REMARK 923 INTER-LIGAND FREE ENERGY PREDICTED BY IDOCK:   -4.92 KCAL/MOL
REMARK 924 INTRA-LIGAND FREE ENERGY PREDICTED BY IDOCK:   -0.33 KCAL/MOL
REMARK 927      BINDING AFFINITY PREDICTED BY RF-SCORE:    0.00 PKD
ROOT
HETATM    1  C   UNL     1      -6.913  17.421  68.735  1.00  0.00    -0.236 C  
HETATM    2  C   UNL     1      -8.251  17.471  68.809  1.00  0.00    -0.222 C  
ENDROOT
BRANCH   1   3
HETATM    3  C   UNL     1      -6.083  16.552  69.596  1.00  0.00    -0.213 C  
HETATM    4  O   UNL     1      -5.558  16.968  70.617  1.00  0.00    -0.188 OA 
BRANCH   3   5
HETATM    5  O   UNL     1      -5.909  15.329  69.040  1.00  0.00    -0.096 OA 
BRANCH   5   6
HETATM    6  C   UNL     1      -6.664  14.268  69.637  1.00  0.00    -0.118 C  
HETATM    7  C   UNL     1      -5.684  13.276  70.239  1.00  0.00    -0.154 C  
ENDBRANCH   5   6
ENDBRANCH   3   5
ENDBRANCH   1   3
BRANCH   2   8
HETATM    8  C   UNL     1      -9.114  18.206  67.874  1.00  0.00    -0.270 A  
HETATM    9  O   UNL     1     -11.269  20.235  64.963  1.00  0.00    -0.104 OA 
HETATM   10  C   UNL     1      -9.731  17.490  66.835  1.00  0.00    -0.291 A  
HETATM   11  C   UNL     1     -10.464  18.157  65.852  1.00  0.00    -0.283 A  
HETATM   12  C   UNL     1      -9.241  19.603  67.918  1.00  0.00    -0.410 A  
HETATM   13  C   UNL     1     -10.578  19.549  65.923  1.00  0.00    -0.476 A  
HETATM   14  H   UNL     1     -11.346  21.180  65.011  1.00  0.00     0.000 HD 
HETATM   15  C   UNL     1      -9.981  20.275  66.945  1.00  0.00    -0.592 A  
BRANCH  11  16
HETATM   16  O   UNL     1     -11.091  17.576  64.780  1.00  0.00    -0.959 OA 
HETATM   17  C   UNL     1     -11.213  16.158  64.809  1.00  0.00    -0.304 C  
ENDBRANCH  11  16
ENDBRANCH   2   8
TORSDOF 5
ENDMDL
MODEL      127
REMARK 921   NORMALIZED FREE ENERGY PREDICTED BY IDOCK:   -3.74 KCAL/MOL
REMARK 922        TOTAL FREE ENERGY PREDICTED BY IDOCK:   -5.21 KCAL/MOL
REMARK 923 INTER-LIGAND FREE ENERGY PREDICTED BY IDOCK:   -4.89 KCAL/MOL
REMARK 924 INTRA-LIGAND FREE ENERGY PREDICTED BY IDOCK:   -0.32 KCAL/MOL
REMARK 927      BINDING AFFINITY PREDICTED BY RF-SCORE:    0.00 PKD
ROOT
HETATM    1  C   UNL     1      -9.728  14.585  66.831  1.00  0.00    -0.257 C  
HETATM    2  C   UNL     1      -9.932  15.537  65.908  1.00  0.00    -0.377 C  
ENDROOT
BRANCH   1   3
HETATM    3  C   UNL     1      -9.888  13.141  66.558  1.00  0.00    -0.265 C  
HETATM    4  O   UNL     1      -9.463  12.627  65.534  1.00  0.00    -0.090 OA 
BRANCH   3   5
HETATM    5  O   UNL     1     -10.641  12.539  67.509  1.00  0.00    -0.216 OA 
BRANCH   5   6
HETATM    6  C   UNL     1     -11.575  13.391  68.185  1.00  0.00    -0.341 C  
HETATM    7  C   UNL     1     -11.691  12.911  69.621  1.00  0.00    -0.367 C  
ENDBRANCH   5   6
ENDBRANCH   3   5
ENDBRANCH   1   3
BRANCH   2   8
HETATM    8  C   UNL     1      -9.640  16.964  66.101  1.00  0.00    -0.280 A  
HETATM    9  O   UNL     1      -8.896  20.943  67.024  1.00  0.00    -0.588 OA 
HETATM   10  C   UNL     1      -8.456  17.317  66.771  1.00  0.00    -0.275 A  
HETATM   11  C   UNL     1      -8.189  18.651  67.083  1.00  0.00    -0.252 A  
HETATM   12  C   UNL     1     -10.554  17.967  65.744  1.00  0.00    -0.174 A  
HETATM   13  C   UNL     1      -9.116  19.629  66.712  1.00  0.00    -0.355 A  
HETATM   14  H   UNL     1      -9.525  21.607  66.773  1.00  0.00     0.000 HD 
HETATM   15  C   UNL     1     -10.288  19.302  66.044  1.00  0.00    -0.556 A  
BRANCH  11  16
HETATM   16  O   UNL     1      -7.086  19.117  67.752  1.00  0.00    -0.227 OA 
HETATM   17  C   UNL     1      -7.074  18.930  69.163  1.00  0.00    -0.269 C  
ENDBRANCH  11  16
ENDBRANCH   2   8
TORSDOF 5
ENDMDL
MODEL      128
REMARK 921   NORMALIZED FREE ENERGY PREDICTED BY IDOCK:   -3.72 KCAL/MOL
REMARK 922        TOTAL FREE ENERGY PREDICTED BY IDOCK:   -5.18 KCAL/MOL
REMARK 923 INTER-LIGAND FREE ENERGY PREDICTED BY IDOCK:   -4.82 KCAL/MOL
REMARK 924 INTRA-LIGAND FREE ENERGY PREDICTED BY IDOCK:   -0.36 KCAL/MOL
REMARK 927      BINDING AFFINITY PREDICTED BY RF-SCORE:    0.00 PKD
ROOT
HETATM    1  C   UNL     1     -10.592   9.927  66.931  1.00  0.00    -0.248 C  
HETATM    2  C   UNL     1     -10.452  10.465  68.153  1.00  0.00    -0.221 C  
ENDROOT
BRANCH   1   3
HETATM    3  C   UNL     1     -10.256   8.523  66.617  1.00  0.00    -0.275 C  
HETATM    4  O   UNL     1     -10.829   7.587  67.154  1.00  0.00    -0.324 OA 
BRANCH   3   5
HETATM    5  O   UNL     1      -9.194   8.445  65.780  1.00  0.00    -0.182 OA 
BRANCH   5   6
HETATM    6  C   UNL     1      -9.013   9.569  64.910  1.00  0.00    -0.219 C  
HETATM    7  C   UNL     1      -7.539   9.936  64.920  1.00  0.00    -0.135 C  
ENDBRANCH   5   6
ENDBRANCH   3   5
ENDBRANCH   1   3
BRANCH   2   8
HETATM    8  C   UNL     1     -10.913  11.806  68.535  1.00  0.00    -0.270 A  
HETATM    9  O   UNL     1     -12.583  15.468  69.552  1.00  0.00    -0.604 OA 
HETATM   10  C   UNL     1     -11.566  11.958  69.771  1.00  0.00    -0.359 A  
HETATM   11  C   UNL     1     -12.127  13.184  70.129  1.00  0.00    -0.321 A  
HETATM   12  C   UNL     1     -10.827  12.901  67.662  1.00  0.00    -0.252 A  
HETATM   13  C   UNL     1     -12.023  14.260  69.241  1.00  0.00    -0.335 A  
HETATM   14  H   UNL     1     -12.513  16.198  68.949  1.00  0.00     0.000 HD 
HETATM   15  C   UNL     1     -11.377  14.132  68.019  1.00  0.00    -0.324 A  
BRANCH  11  16
HETATM   16  O   UNL     1     -12.806  13.451  71.290  1.00  0.00    -0.347 OA 
HETATM   17  C   UNL     1     -13.255  12.325  72.036  1.00  0.00    -0.403 C  
ENDBRANCH  11  16
ENDBRANCH   2   8
TORSDOF 5
ENDMDL
MODEL      129
REMARK 921   NORMALIZED FREE ENERGY PREDICTED BY IDOCK:   -3.71 KCAL/MOL
REMARK 922        TOTAL FREE ENERGY PREDICTED BY IDOCK:   -5.16 KCAL/MOL
REMARK 923 INTER-LIGAND FREE ENERGY PREDICTED BY IDOCK:   -4.78 KCAL/MOL
REMARK 924 INTRA-LIGAND FREE ENERGY PREDICTED BY IDOCK:   -0.38 KCAL/MOL
REMARK 927      BINDING AFFINITY PREDICTED BY RF-SCORE:    0.00 PKD
ROOT
HETATM    1  C   UNL     1     -11.790  12.817  69.890  1.00  0.00    -0.371 C  
HETATM    2  C   UNL     1     -11.136  12.139  68.935  1.00  0.00    -0.292 C  
ENDROOT
BRANCH   1   3
HETATM    3  C   UNL     1     -12.205  14.228  69.747  1.00  0.00    -0.339 C  
HETATM    4  O   UNL     1     -11.699  14.968  68.918  1.00  0.00    -0.307 OA 
BRANCH   3   5
HETATM    5  O   UNL     1     -13.094  14.580  70.706  1.00  0.00    -0.360 OA 
BRANCH   5   6
HETATM    6  C   UNL     1     -12.588  14.578  72.047  1.00  0.00    -0.325 C  
HETATM    7  C   UNL     1     -11.931  15.923  72.302  1.00  0.00    -0.617 C  
ENDBRANCH   5   6
ENDBRANCH   3   5
ENDBRANCH   1   3
BRANCH   2   8
HETATM    8  C   UNL     1     -10.841  10.701  68.981  1.00  0.00    -0.277 A  
HETATM    9  O   UNL     1      -9.630   6.733  69.144  1.00  0.00    -0.141 OA 
HETATM   10  C   UNL     1     -10.428  10.145  70.204  1.00  0.00    -0.311 A  
HETATM   11  C   UNL     1     -10.023   8.812  70.276  1.00  0.00    -0.186 A  
HETATM   12  C   UNL     1     -10.847   9.901  67.828  1.00  0.00    -0.321 A  
HETATM   13  C   UNL     1     -10.043   8.037  69.112  1.00  0.00    -0.201 A  
HETATM   14  H   UNL     1      -9.643   6.207  68.354  1.00  0.00     0.000 HD 
HETATM   15  C   UNL     1     -10.454   8.565  67.896  1.00  0.00    -0.262 A  
BRANCH  11  16
HETATM   16  O   UNL     1      -9.578   8.164  71.400  1.00  0.00    -0.152 OA 
HETATM   17  C   UNL     1     -10.500   8.061  72.480  1.00  0.00    -0.316 C  
ENDBRANCH  11  16
ENDBRANCH   2   8
TORSDOF 5
ENDMDL
MODEL      130
REMARK 921   NORMALIZED FREE ENERGY PREDICTED BY IDOCK:   -3.70 KCAL/MOL
REMARK 922        TOTAL FREE ENERGY PREDICTED BY IDOCK:   -5.15 KCAL/MOL
REMARK 923 INTER-LIGAND FREE ENERGY PREDICTED BY IDOCK:   -4.83 KCAL/MOL
REMARK 924 INTRA-LIGAND FREE ENERGY PREDICTED BY IDOCK:   -0.32 KCAL/MOL
REMARK 927      BINDING AFFINITY PREDICTED BY RF-SCORE:    0.00 PKD
ROOT
HETATM    1  C   UNL     1     -11.104   9.200  69.911  1.00  0.00    -0.175 C  
HETATM    2  C   UNL     1     -11.026   9.608  68.636  1.00  0.00    -0.152 C  
ENDROOT
BRANCH   1   3
HETATM    3  C   UNL     1     -10.820   7.814  70.340  1.00  0.00    -0.244 C  
HETATM    4  O   UNL     1     -11.595   6.897  70.115  1.00  0.00    -0.322 OA 
BRANCH   3   5
HETATM    5  O   UNL     1      -9.689   7.750  71.083  1.00  0.00    -0.159 OA 
BRANCH   5   6
HETATM    6  C   UNL     1      -9.797   8.271  72.414  1.00  0.00    -0.304 C  
HETATM    7  C   UNL     1     -10.546   7.254  73.256  1.00  0.00    -0.428 C  
ENDBRANCH   5   6
ENDBRANCH   3   5
ENDBRANCH   1   3
BRANCH   2   8
HETATM    8  C   UNL     1     -11.154  11.004  68.195  1.00  0.00    -0.329 A  
HETATM    9  O   UNL     1     -11.898  14.923  67.045  1.00  0.00    -0.327 OA 
HETATM   10  C   UNL     1     -11.343  11.996  69.172  1.00  0.00    -0.338 A  
HETATM   11  C   UNL     1     -11.588  13.319  68.802  1.00  0.00    -0.312 A  
HETATM   12  C   UNL     1     -11.212  11.355  66.837  1.00  0.00    -0.331 A  
HETATM   13  C   UNL     1     -11.636  13.640  67.442  1.00  0.00    -0.356 A  
HETATM   14  H   UNL     1     -11.931  15.142  66.121  1.00  0.00     0.000 HD 
HETATM   15  C   UNL     1     -11.446  12.676  66.460  1.00  0.00    -0.409 A  
BRANCH  11  16
HETATM   16  O   UNL     1     -11.811  14.367  69.657  1.00  0.00    -0.282 OA 
HETATM   17  C   UNL     1     -12.554  14.078  70.836  1.00  0.00    -0.361 C  
ENDBRANCH  11  16
ENDBRANCH   2   8
TORSDOF 5
ENDMDL
MODEL      131
REMARK 921   NORMALIZED FREE ENERGY PREDICTED BY IDOCK:   -3.67 KCAL/MOL
REMARK 922        TOTAL FREE ENERGY PREDICTED BY IDOCK:   -5.11 KCAL/MOL
REMARK 923 INTER-LIGAND FREE ENERGY PREDICTED BY IDOCK:   -4.81 KCAL/MOL
REMARK 924 INTRA-LIGAND FREE ENERGY PREDICTED BY IDOCK:   -0.30 KCAL/MOL
REMARK 927      BINDING AFFINITY PREDICTED BY RF-SCORE:    0.00 PKD
ROOT
HETATM    1  C   UNL     1     -10.422  14.966  66.937  1.00  0.00    -0.280 C  
HETATM    2  C   UNL     1     -10.521  16.304  66.912  1.00  0.00    -0.302 C  
ENDROOT
BRANCH   1   3
HETATM    3  C   UNL     1     -11.499  14.062  66.480  1.00  0.00    -0.357 C  
HETATM    4  O   UNL     1     -12.109  13.342  67.256  1.00  0.00    -0.361 OA 
BRANCH   3   5
HETATM    5  O   UNL     1     -11.610  14.071  65.130  1.00  0.00    -0.320 OA 
BRANCH   5   6
HETATM    6  C   UNL     1     -10.547  13.422  64.421  1.00  0.00    -0.407 C  
HETATM    7  C   UNL     1     -11.001  12.013  64.083  1.00  0.00    -0.418 C  
ENDBRANCH   5   6
ENDBRANCH   3   5
ENDBRANCH   1   3
BRANCH   2   8
HETATM    8  C   UNL     1      -9.423  17.230  67.215  1.00  0.00    -0.250 A  
HETATM    9  O   UNL     1      -6.103  19.534  68.170  1.00  0.00    -0.214 OA 
HETATM   10  C   UNL     1      -8.320  17.264  66.344  1.00  0.00    -0.315 A  
HETATM   11  C   UNL     1      -7.200  18.038  66.648  1.00  0.00    -0.214 A  
HETATM   12  C   UNL     1      -9.389  17.986  68.398  1.00  0.00    -0.306 A  
HETATM   13  C   UNL     1      -7.196  18.783  67.831  1.00  0.00    -0.239 A  
HETATM   14  H   UNL     1      -6.100  20.040  68.974  1.00  0.00     0.000 HD 
HETATM   15  C   UNL     1      -8.277  18.769  68.702  1.00  0.00    -0.363 A  
BRANCH  11  16
HETATM   16  O   UNL     1      -6.058  18.135  65.894  1.00  0.00    -0.188 OA 
HETATM   17  C   UNL     1      -6.040  19.153  64.899  1.00  0.00    -0.277 C  
ENDBRANCH  11  16
ENDBRANCH   2   8
TORSDOF 5
ENDMDL
MODEL      132
REMARK 921   NORMALIZED FREE ENERGY PREDICTED BY IDOCK:   -3.64 KCAL/MOL
REMARK 922        TOTAL FREE ENERGY PREDICTED BY IDOCK:   -5.08 KCAL/MOL
REMARK 923 INTER-LIGAND FREE ENERGY PREDICTED BY IDOCK:   -4.58 KCAL/MOL
REMARK 924 INTRA-LIGAND FREE ENERGY PREDICTED BY IDOCK:   -0.50 KCAL/MOL
REMARK 927      BINDING AFFINITY PREDICTED BY RF-SCORE:    0.00 PKD
ROOT
HETATM    1  C   UNL     1     -11.616  11.798  67.212  1.00  0.00    -0.344 C  
HETATM    2  C   UNL     1     -10.515  11.100  67.530  1.00  0.00    -0.239 C  
ENDROOT
BRANCH   1   3
HETATM    3  C   UNL     1     -11.754  12.573  65.961  1.00  0.00    -0.417 C  
HETATM    4  O   UNL     1     -12.844  12.923  65.536  1.00  0.00    -0.531 OA 
BRANCH   3   5
HETATM    5  O   UNL     1     -10.561  12.718  65.336  1.00  0.00    -0.276 OA 
BRANCH   5   6
HETATM    6  C   UNL     1     -10.547  12.374  63.946  1.00  0.00    -0.437 C  
HETATM    7  C   UNL     1     -10.177  10.906  63.830  1.00  0.00    -0.407 C  
ENDBRANCH   5   6
ENDBRANCH   3   5
ENDBRANCH   1   3
BRANCH   2   8
HETATM    8  C   UNL     1     -10.399  10.202  68.687  1.00  0.00    -0.208 A  
HETATM    9  O   UNL     1     -10.292   7.410  71.757  1.00  0.00    -0.192 OA 
HETATM   10  C   UNL     1      -9.594   9.057  68.563  1.00  0.00    -0.161 A  
HETATM   11  C   UNL     1      -9.543   8.112  69.589  1.00  0.00    -0.168 A  
HETATM   12  C   UNL     1     -11.153  10.391  69.856  1.00  0.00    -0.367 A  
HETATM   13  C   UNL     1     -10.302   8.328  70.743  1.00  0.00    -0.193 A  
HETATM   14  H   UNL     1     -10.807   7.556  72.541  1.00  0.00     0.000 HD 
HETATM   15  C   UNL     1     -11.098   9.456  70.889  1.00  0.00    -0.389 A  
BRANCH  11  16
HETATM   16  O   UNL     1      -8.818   6.948  69.577  1.00  0.00    -0.133 OA 
HETATM   17  C   UNL     1      -8.919   6.149  68.403  1.00  0.00    -0.115 C  
ENDBRANCH  11  16
ENDBRANCH   2   8
TORSDOF 5
ENDMDL
MODEL      133
REMARK 921   NORMALIZED FREE ENERGY PREDICTED BY IDOCK:   -3.64 KCAL/MOL
REMARK 922        TOTAL FREE ENERGY PREDICTED BY IDOCK:   -5.07 KCAL/MOL
REMARK 923 INTER-LIGAND FREE ENERGY PREDICTED BY IDOCK:   -5.21 KCAL/MOL
REMARK 924 INTRA-LIGAND FREE ENERGY PREDICTED BY IDOCK:    0.14 KCAL/MOL
REMARK 927      BINDING AFFINITY PREDICTED BY RF-SCORE:    0.00 PKD
ROOT
HETATM    1  C   UNL     1     -10.372  13.853  67.799  1.00  0.00    -0.240 C  
HETATM    2  C   UNL     1     -11.411  14.154  68.593  1.00  0.00    -0.306 C  
ENDROOT
BRANCH   1   3
HETATM    3  C   UNL     1      -9.724  14.831  66.901  1.00  0.00    -0.240 C  
HETATM    4  O   UNL     1      -9.981  14.881  65.708  1.00  0.00    -0.305 OA 
BRANCH   3   5
HETATM    5  O   UNL     1      -8.769  15.540  67.551  1.00  0.00    -0.164 OA 
BRANCH   5   6
HETATM    6  C   UNL     1      -8.591  15.209  68.933  1.00  0.00    -0.200 C  
HETATM    7  C   UNL     1      -7.207  14.606  69.096  1.00  0.00    -0.142 C  
ENDBRANCH   5   6
ENDBRANCH   3   5
ENDBRANCH   1   3
BRANCH   2   8
HETATM    8  C   UNL     1     -11.981  13.252  69.603  1.00  0.00    -0.376 A  
HETATM    9  O   UNL     1     -13.297  10.809  72.691  1.00  0.00    -0.407 OA 
HETATM   10  C   UNL     1     -12.599  13.821  70.730  1.00  0.00    -0.410 A  
HETATM   11  C   UNL     1     -13.051  13.012  71.773  1.00  0.00    -0.373 A  
HETATM   12  C   UNL     1     -11.824  11.859  69.532  1.00  0.00    -0.395 A  
HETATM   13  C   UNL     1     -12.885  11.627  71.675  1.00  0.00    -0.349 A  
HETATM   14  H   UNL     1     -13.184   9.869  72.624  1.00  0.00     0.000 HD 
HETATM   15  C   UNL     1     -12.284  11.045  70.567  1.00  0.00    -0.472 A  
BRANCH  11  16
HETATM   16  O   UNL     1     -13.646  13.447  72.930  1.00  0.00    -0.608 OA 
HETATM   17  C   UNL     1     -13.375  14.790  73.317  1.00  0.00    -0.227 C  
ENDBRANCH  11  16
ENDBRANCH   2   8
TORSDOF 5
ENDMDL
MODEL      134
REMARK 921   NORMALIZED FREE ENERGY PREDICTED BY IDOCK:   -3.62 KCAL/MOL
REMARK 922        TOTAL FREE ENERGY PREDICTED BY IDOCK:   -5.04 KCAL/MOL
REMARK 923 INTER-LIGAND FREE ENERGY PREDICTED BY IDOCK:   -4.67 KCAL/MOL
REMARK 924 INTRA-LIGAND FREE ENERGY PREDICTED BY IDOCK:   -0.38 KCAL/MOL
REMARK 927      BINDING AFFINITY PREDICTED BY RF-SCORE:    0.00 PKD
ROOT
HETATM    1  C   UNL     1      -9.800  11.735  65.626  1.00  0.00    -0.265 C  
HETATM    2  C   UNL     1     -10.783  11.217  66.378  1.00  0.00    -0.320 C  
ENDROOT
BRANCH   1   3
HETATM    3  C   UNL     1      -9.378  11.161  64.331  1.00  0.00    -0.159 C  
HETATM    4  O   UNL     1     -10.016  11.347  63.305  1.00  0.00    -0.342 OA 
BRANCH   3   5
HETATM    5  O   UNL     1      -8.306  10.347  64.478  1.00  0.00    -0.166 OA 
BRANCH   5   6
HETATM    6  C   UNL     1      -8.512   8.982  64.092  1.00  0.00    -0.170 C  
HETATM    7  C   UNL     1      -7.796   8.098  65.098  1.00  0.00    -0.118 C  
ENDBRANCH   5   6
ENDBRANCH   3   5
ENDBRANCH   1   3
BRANCH   2   8
HETATM    8  C   UNL     1     -11.327  11.843  67.591  1.00  0.00    -0.372 A  
HETATM    9  O   UNL     1     -12.511  13.777  71.068  1.00  0.00    -0.349 OA 
HETATM   10  C   UNL     1     -11.577  13.226  67.571  1.00  0.00    -0.388 A  
HETATM   11  C   UNL     1     -11.981  13.889  68.731  1.00  0.00    -0.358 A  
HETATM   12  C   UNL     1     -11.489  11.130  68.789  1.00  0.00    -0.366 A  
HETATM   13  C   UNL     1     -12.139  13.153  69.909  1.00  0.00    -0.287 A  
HETATM   14  H   UNL     1     -12.618  13.278  71.869  1.00  0.00     0.000 HD 
HETATM   15  C   UNL     1     -11.903  11.785  69.948  1.00  0.00    -0.423 A  
BRANCH  11  16
HETATM   16  O   UNL     1     -12.232  15.232  68.845  1.00  0.00    -0.226 OA 
HETATM   17  C   UNL     1     -11.122  16.103  68.661  1.00  0.00    -0.356 C  
ENDBRANCH  11  16
ENDBRANCH   2   8
TORSDOF 5
ENDMDL
MODEL      135
REMARK 921   NORMALIZED FREE ENERGY PREDICTED BY IDOCK:   -3.61 KCAL/MOL
REMARK 922        TOTAL FREE ENERGY PREDICTED BY IDOCK:   -5.03 KCAL/MOL
REMARK 923 INTER-LIGAND FREE ENERGY PREDICTED BY IDOCK:   -4.63 KCAL/MOL
REMARK 924 INTRA-LIGAND FREE ENERGY PREDICTED BY IDOCK:   -0.41 KCAL/MOL
REMARK 927      BINDING AFFINITY PREDICTED BY RF-SCORE:    0.00 PKD
ROOT
HETATM    1  C   UNL     1     -10.485   8.806  67.367  1.00  0.00    -0.349 C  
HETATM    2  C   UNL     1     -10.226   9.870  68.141  1.00  0.00    -0.210 C  
ENDROOT
BRANCH   1   3
HETATM    3  C   UNL     1      -9.575   8.334  66.302  1.00  0.00    -0.196 C  
HETATM    4  O   UNL     1      -9.230   9.059  65.381  1.00  0.00    -0.220 OA 
BRANCH   3   5
HETATM    5  O   UNL     1      -9.299   7.015  66.437  1.00  0.00    -0.167 OA 
BRANCH   5   6
HETATM    6  C   UNL     1      -8.509   6.665  67.581  1.00  0.00    -0.121 C  
HETATM    7  C   UNL     1      -9.146   5.453  68.237  1.00  0.00    -0.116 C  
ENDBRANCH   5   6
ENDBRANCH   3   5
ENDBRANCH   1   3
BRANCH   2   8
HETATM    8  C   UNL     1     -11.030  10.276  69.301  1.00  0.00    -0.284 A  
HETATM    9  O   UNL     1     -13.607  11.244  72.410  1.00  0.00    -0.536 OA 
HETATM   10  C   UNL     1     -11.421   9.287  70.220  1.00  0.00    -0.198 A  
HETATM   11  C   UNL     1     -12.282   9.598  71.273  1.00  0.00    -0.363 A  
HETATM   12  C   UNL     1     -11.512  11.586  69.453  1.00  0.00    -0.376 A  
HETATM   13  C   UNL     1     -12.744  10.912  71.402  1.00  0.00    -0.434 A  
HETATM   14  H   UNL     1     -13.921  12.136  72.497  1.00  0.00     0.000 HD 
HETATM   15  C   UNL     1     -12.364  11.905  70.510  1.00  0.00    -0.372 A  
BRANCH  11  16
HETATM   16  O   UNL     1     -12.752   8.720  72.216  1.00  0.00    -0.371 OA 
HETATM   17  C   UNL     1     -13.370   7.534  71.726  1.00  0.00    -0.315 C  
ENDBRANCH  11  16
ENDBRANCH   2   8
TORSDOF 5
ENDMDL
MODEL      136
REMARK 921   NORMALIZED FREE ENERGY PREDICTED BY IDOCK:   -3.60 KCAL/MOL
REMARK 922        TOTAL FREE ENERGY PREDICTED BY IDOCK:   -5.02 KCAL/MOL
REMARK 923 INTER-LIGAND FREE ENERGY PREDICTED BY IDOCK:   -4.89 KCAL/MOL
REMARK 924 INTRA-LIGAND FREE ENERGY PREDICTED BY IDOCK:   -0.13 KCAL/MOL
REMARK 927      BINDING AFFINITY PREDICTED BY RF-SCORE:    0.00 PKD
ROOT
HETATM    1  C   UNL     1     -10.108  16.949  69.190  1.00  0.00    -0.269 C  
HETATM    2  C   UNL     1     -10.822  15.954  68.643  1.00  0.00    -0.291 C  
ENDROOT
BRANCH   1   3
HETATM    3  C   UNL     1      -9.806  18.215  68.488  1.00  0.00    -0.382 C  
HETATM    4  O   UNL     1     -10.401  19.251  68.741  1.00  0.00    -0.345 OA 
BRANCH   3   5
HETATM    5  O   UNL     1      -8.905  18.024  67.495  1.00  0.00    -0.249 OA 
BRANCH   5   6
HETATM    6  C   UNL     1      -7.590  18.534  67.750  1.00  0.00    -0.232 C  
HETATM    7  C   UNL     1      -6.978  17.711  68.870  1.00  0.00    -0.251 C  
ENDBRANCH   5   6
ENDBRANCH   3   5
ENDBRANCH   1   3
BRANCH   2   8
HETATM    8  C   UNL     1     -11.266  14.751  69.360  1.00  0.00    -0.308 A  
HETATM    9  O   UNL     1     -12.785  11.301  71.100  1.00  0.00    -0.384 OA 
HETATM   10  C   UNL     1     -10.958  13.496  68.809  1.00  0.00    -0.291 A  
HETATM   11  C   UNL     1     -11.456  12.327  69.386  1.00  0.00    -0.277 A  
HETATM   12  C   UNL     1     -12.080  14.821  70.501  1.00  0.00    -0.378 A  
HETATM   13  C   UNL     1     -12.261  12.426  70.525  1.00  0.00    -0.295 A  
HETATM   14  H   UNL     1     -13.332  11.369  71.873  1.00  0.00     0.000 HD 
HETATM   15  C   UNL     1     -12.572  13.656  71.089  1.00  0.00    -0.452 A  
BRANCH  11  16
HETATM   16  O   UNL     1     -11.246  11.050  68.931  1.00  0.00    -0.220 OA 
HETATM   17  C   UNL     1     -10.886  10.917  67.560  1.00  0.00    -0.272 C  
ENDBRANCH  11  16
ENDBRANCH   2   8
TORSDOF 5
ENDMDL
MODEL      137
REMARK 921   NORMALIZED FREE ENERGY PREDICTED BY IDOCK:   -3.59 KCAL/MOL
REMARK 922        TOTAL FREE ENERGY PREDICTED BY IDOCK:   -5.01 KCAL/MOL
REMARK 923 INTER-LIGAND FREE ENERGY PREDICTED BY IDOCK:   -4.66 KCAL/MOL
REMARK 924 INTRA-LIGAND FREE ENERGY PREDICTED BY IDOCK:   -0.35 KCAL/MOL
REMARK 927      BINDING AFFINITY PREDICTED BY RF-SCORE:    0.00 PKD
ROOT
HETATM    1  C   UNL     1     -11.110   6.706  69.472  1.00  0.00    -0.378 C  
HETATM    2  C   UNL     1     -11.064   7.352  70.647  1.00  0.00    -0.285 C  
ENDROOT
BRANCH   1   3
HETATM    3  C   UNL     1     -10.535   5.360  69.261  1.00  0.00    -0.239 C  
HETATM    4  O   UNL     1      -9.978   4.749  70.159  1.00  0.00    -0.222 OA 
BRANCH   3   5
HETATM    5  O   UNL     1     -10.613   4.989  67.960  1.00  0.00    -0.028 OA 
BRANCH   5   6
HETATM    6  C   UNL     1      -9.398   4.491  67.387  1.00  0.00    -0.147 C  
HETATM    7  C   UNL     1      -8.499   5.678  67.090  1.00  0.00    -0.110 C  
ENDBRANCH   5   6
ENDBRANCH   3   5
ENDBRANCH   1   3
BRANCH   2   8
HETATM    8  C   UNL     1     -11.751   8.618  70.932  1.00  0.00    -0.287 A  
HETATM    9  O   UNL     1     -13.354  12.327  71.886  1.00  0.00    -0.463 OA 
HETATM   10  C   UNL     1     -11.429   9.741  70.152  1.00  0.00    -0.272 A  
HETATM   11  C   UNL     1     -11.964  10.994  70.456  1.00  0.00    -0.379 A  
HETATM   12  C   UNL     1     -12.622   8.765  72.023  1.00  0.00    -0.447 A  
HETATM   13  C   UNL     1     -12.831  11.110  71.547  1.00  0.00    -0.437 A  
HETATM   14  H   UNL     1     -13.943  12.406  72.627  1.00  0.00     0.000 HD 
HETATM   15  C   UNL     1     -13.168  10.011  72.327  1.00  0.00    -0.401 A  
BRANCH  11  16
HETATM   16  O   UNL     1     -11.708  12.164  69.788  1.00  0.00    -0.310 OA 
HETATM   17  C   UNL     1     -11.191  12.040  68.467  1.00  0.00    -0.256 C  
ENDBRANCH  11  16
ENDBRANCH   2   8
TORSDOF 5
ENDMDL
MODEL      138
REMARK 921   NORMALIZED FREE ENERGY PREDICTED BY IDOCK:   -3.58 KCAL/MOL
REMARK 922        TOTAL FREE ENERGY PREDICTED BY IDOCK:   -4.99 KCAL/MOL
REMARK 923 INTER-LIGAND FREE ENERGY PREDICTED BY IDOCK:   -4.70 KCAL/MOL
REMARK 924 INTRA-LIGAND FREE ENERGY PREDICTED BY IDOCK:   -0.29 KCAL/MOL
REMARK 927      BINDING AFFINITY PREDICTED BY RF-SCORE:    0.00 PKD
ROOT
HETATM    1  C   UNL     1     -10.459   8.640  68.664  1.00  0.00    -0.208 C  
HETATM    2  C   UNL     1     -10.353   9.003  67.377  1.00  0.00    -0.335 C  
ENDROOT
BRANCH   1   3
HETATM    3  C   UNL     1      -9.937   7.363  69.195  1.00  0.00    -0.173 C  
HETATM    4  O   UNL     1      -9.344   6.565  68.486  1.00  0.00    -0.126 OA 
BRANCH   3   5
HETATM    5  O   UNL     1     -10.306   7.178  70.485  1.00  0.00    -0.199 OA 
BRANCH   5   6
HETATM    6  C   UNL     1     -11.470   6.365  70.682  1.00  0.00    -0.362 C  
HETATM    7  C   UNL     1     -11.555   6.020  72.159  1.00  0.00    -0.348 C  
ENDBRANCH   5   6
ENDBRANCH   3   5
ENDBRANCH   1   3
BRANCH   2   8
HETATM    8  C   UNL     1     -10.725  10.321  66.846  1.00  0.00    -0.252 A  
HETATM    9  O   UNL     1     -11.397  14.145  65.377  1.00  0.00    -0.308 OA 
HETATM   10  C   UNL     1     -10.331  10.647  65.537  1.00  0.00    -0.297 A  
HETATM   11  C   UNL     1     -10.555  11.926  65.027  1.00  0.00    -0.289 A  
HETATM   12  C   UNL     1     -11.351  11.295  67.639  1.00  0.00    -0.352 A  
HETATM   13  C   UNL     1     -11.184  12.875  65.838  1.00  0.00    -0.293 A  
HETATM   14  H   UNL     1     -11.823  14.790  65.928  1.00  0.00     0.000 HD 
HETATM   15  C   UNL     1     -11.587  12.572  67.132  1.00  0.00    -0.437 A  
BRANCH  11  16
HETATM   16  O   UNL     1     -10.197  12.371  63.780  1.00  0.00    -0.409 OA 
HETATM   17  C   UNL     1      -9.680  11.394  62.882  1.00  0.00    -0.317 C  
ENDBRANCH  11  16
ENDBRANCH   2   8
TORSDOF 5
ENDMDL
MODEL      139
REMARK 921   NORMALIZED FREE ENERGY PREDICTED BY IDOCK:   -3.58 KCAL/MOL
REMARK 922        TOTAL FREE ENERGY PREDICTED BY IDOCK:   -4.99 KCAL/MOL
REMARK 923 INTER-LIGAND FREE ENERGY PREDICTED BY IDOCK:   -4.59 KCAL/MOL
REMARK 924 INTRA-LIGAND FREE ENERGY PREDICTED BY IDOCK:   -0.40 KCAL/MOL
REMARK 927      BINDING AFFINITY PREDICTED BY RF-SCORE:    0.00 PKD
ROOT
HETATM    1  C   UNL     1      -8.901   8.007  69.958  1.00  0.00    -0.143 C  
HETATM    2  C   UNL     1     -10.169   7.726  69.620  1.00  0.00    -0.206 C  
ENDROOT
BRANCH   1   3
HETATM    3  C   UNL     1      -7.757   7.837  69.037  1.00  0.00    -0.109 C  
HETATM    4  O   UNL     1      -6.683   7.399  69.417  1.00  0.00    -0.040 OA 
BRANCH   3   5
HETATM    5  O   UNL     1      -8.038   8.330  67.806  1.00  0.00    -0.123 OA 
BRANCH   5   6
HETATM    6  C   UNL     1      -8.043   7.368  66.744  1.00  0.00    -0.123 C  
HETATM    7  C   UNL     1      -9.349   7.518  65.983  1.00  0.00    -0.061 C  
ENDBRANCH   5   6
ENDBRANCH   3   5
ENDBRANCH   1   3
BRANCH   2   8
HETATM    8  C   UNL     1     -11.341   8.022  70.454  1.00  0.00    -0.190 A  
HETATM    9  O   UNL     1     -14.406   8.919  73.106  1.00  0.00    -1.143 OA 
HETATM   10  C   UNL     1     -11.566   9.355  70.839  1.00  0.00    -0.380 A  
HETATM   11  C   UNL     1     -12.596   9.673  71.725  1.00  0.00    -0.409 A  
HETATM   12  C   UNL     1     -12.166   7.009  70.967  1.00  0.00    -0.419 A  
HETATM   13  C   UNL     1     -13.404   8.644  72.218  1.00  0.00    -0.375 A  
HETATM   14  H   UNL     1     -14.955   8.221  73.442  1.00  0.00     0.000 HD 
HETATM   15  C   UNL     1     -13.203   7.322  71.845  1.00  0.00    -0.289 A  
BRANCH  11  16
HETATM   16  O   UNL     1     -12.899  10.926  72.192  1.00  0.00    -0.341 OA 
HETATM   17  C   UNL     1     -13.008  11.958  71.217  1.00  0.00    -0.236 C  
ENDBRANCH  11  16
ENDBRANCH   2   8
TORSDOF 5
ENDMDL
MODEL      140
REMARK 921   NORMALIZED FREE ENERGY PREDICTED BY IDOCK:   -3.57 KCAL/MOL
REMARK 922        TOTAL FREE ENERGY PREDICTED BY IDOCK:   -4.98 KCAL/MOL
REMARK 923 INTER-LIGAND FREE ENERGY PREDICTED BY IDOCK:   -4.73 KCAL/MOL
REMARK 924 INTRA-LIGAND FREE ENERGY PREDICTED BY IDOCK:   -0.25 KCAL/MOL
REMARK 927      BINDING AFFINITY PREDICTED BY RF-SCORE:    0.00 PKD
ROOT
HETATM    1  C   UNL     1     -10.011  12.107  66.495  1.00  0.00    -0.230 C  
HETATM    2  C   UNL     1     -10.870  13.137  66.490  1.00  0.00    -0.291 C  
ENDROOT
BRANCH   1   3
HETATM    3  C   UNL     1     -10.149  10.928  65.614  1.00  0.00    -0.261 C  
HETATM    4  O   UNL     1     -10.873  10.940  64.631  1.00  0.00    -0.263 OA 
BRANCH   3   5
HETATM    5  O   UNL     1      -9.478   9.861  66.110  1.00  0.00    -0.174 OA 
BRANCH   5   6
HETATM    6  C   UNL     1     -10.054   9.260  67.276  1.00  0.00    -0.231 C  
HETATM    7  C   UNL     1     -10.520   7.864  66.903  1.00  0.00    -0.388 C  
ENDBRANCH   5   6
ENDBRANCH   3   5
ENDBRANCH   1   3
BRANCH   2   8
HETATM    8  C   UNL     1     -10.683  14.386  67.241  1.00  0.00    -0.285 A  
HETATM    9  O   UNL     1     -10.544  17.919  69.417  1.00  0.00    -0.384 OA 
HETATM   10  C   UNL     1     -10.850  14.355  68.636  1.00  0.00    -0.260 A  
HETATM   11  C   UNL     1     -10.800  15.534  69.382  1.00  0.00    -0.261 A  
HETATM   12  C   UNL     1     -10.463  15.615  66.600  1.00  0.00    -0.301 A  
HETATM   13  C   UNL     1     -10.575  16.744  68.718  1.00  0.00    -0.348 A  
HETATM   14  H   UNL     1     -10.392  18.741  68.966  1.00  0.00     0.000 HD 
HETATM   15  C   UNL     1     -10.402  16.795  67.341  1.00  0.00    -0.302 A  
BRANCH  11  16
HETATM   16  O   UNL     1     -10.970  15.637  70.739  1.00  0.00    -0.324 OA 
HETATM   17  C   UNL     1     -12.306  15.809  71.199  1.00  0.00    -0.427 C  
ENDBRANCH  11  16
ENDBRANCH   2   8
TORSDOF 5
ENDMDL
MODEL      141
REMARK 921   NORMALIZED FREE ENERGY PREDICTED BY IDOCK:   -3.55 KCAL/MOL
REMARK 922        TOTAL FREE ENERGY PREDICTED BY IDOCK:   -4.95 KCAL/MOL
REMARK 923 INTER-LIGAND FREE ENERGY PREDICTED BY IDOCK:   -4.52 KCAL/MOL
REMARK 924 INTRA-LIGAND FREE ENERGY PREDICTED BY IDOCK:   -0.44 KCAL/MOL
REMARK 927      BINDING AFFINITY PREDICTED BY RF-SCORE:    0.00 PKD
ROOT
HETATM    1  C   UNL     1     -11.543   7.045  70.515  1.00  0.00    -0.364 C  
HETATM    2  C   UNL     1     -10.474   7.722  70.068  1.00  0.00    -0.230 C  
ENDROOT
BRANCH   1   3
HETATM    3  C   UNL     1     -11.874   6.901  71.948  1.00  0.00    -0.315 C  
HETATM    4  O   UNL     1     -12.003   5.806  72.473  1.00  0.00    -0.275 OA 
BRANCH   3   5
HETATM    5  O   UNL     1     -12.115   8.104  72.522  1.00  0.00    -0.365 OA 
BRANCH   5   6
HETATM    6  C   UNL     1     -13.322   8.754  72.105  1.00  0.00    -0.423 C  
HETATM    7  C   UNL     1     -12.996  10.210  71.821  1.00  0.00    -0.567 C  
ENDBRANCH   5   6
ENDBRANCH   3   5
ENDBRANCH   1   3
BRANCH   2   8
HETATM    8  C   UNL     1     -10.197   8.011  68.655  1.00  0.00    -0.225 A  
HETATM    9  O   UNL     1      -9.040   8.878  64.763  1.00  0.00    -0.422 OA 
HETATM   10  C   UNL     1      -9.495   7.053  67.904  1.00  0.00    -0.128 A  
HETATM   11  C   UNL     1      -9.104   7.327  66.593  1.00  0.00    -0.154 A  
HETATM   12  C   UNL     1     -10.506   9.251  68.073  1.00  0.00    -0.275 A  
HETATM   13  C   UNL     1      -9.429   8.569  66.038  1.00  0.00    -0.186 A  
HETATM   14  H   UNL     1      -9.260   9.721  64.386  1.00  0.00     0.000 HD 
HETATM   15  C   UNL     1     -10.127   9.527  66.760  1.00  0.00    -0.312 A  
BRANCH  11  16
HETATM   16  O   UNL     1      -8.398   6.488  65.770  1.00  0.00    -0.131 OA 
HETATM   17  C   UNL     1      -9.022   5.252  65.438  1.00  0.00    -0.144 C  
ENDBRANCH  11  16
ENDBRANCH   2   8
TORSDOF 5
ENDMDL
MODEL      142
REMARK 921   NORMALIZED FREE ENERGY PREDICTED BY IDOCK:   -3.53 KCAL/MOL
REMARK 922        TOTAL FREE ENERGY PREDICTED BY IDOCK:   -4.92 KCAL/MOL
REMARK 923 INTER-LIGAND FREE ENERGY PREDICTED BY IDOCK:   -4.55 KCAL/MOL
REMARK 924 INTRA-LIGAND FREE ENERGY PREDICTED BY IDOCK:   -0.38 KCAL/MOL
REMARK 927      BINDING AFFINITY PREDICTED BY RF-SCORE:    0.00 PKD
ROOT
HETATM    1  C   UNL     1     -11.562   6.530  70.793  1.00  0.00    -0.437 C  
HETATM    2  C   UNL     1     -10.648   5.712  70.248  1.00  0.00    -0.370 C  
ENDROOT
BRANCH   1   3
HETATM    3  C   UNL     1     -11.630   6.825  72.240  1.00  0.00    -0.273 C  
HETATM    4  O   UNL     1     -11.259   6.020  73.080  1.00  0.00    -0.254 OA 
BRANCH   3   5
HETATM    5  O   UNL     1     -12.246   8.009  72.473  1.00  0.00    -0.318 OA 
BRANCH   5   6
HETATM    6  C   UNL     1     -11.692   9.137  71.785  1.00  0.00    -0.386 C  
HETATM    7  C   UNL     1     -12.837  10.053  71.389  1.00  0.00    -0.519 C  
ENDBRANCH   5   6
ENDBRANCH   3   5
ENDBRANCH   1   3
BRANCH   2   8
HETATM    8  C   UNL     1     -10.456   5.514  68.806  1.00  0.00    -0.261 A  
HETATM    9  O   UNL     1      -9.558   5.108  64.773  1.00  0.00    -0.359 OA 
HETATM   10  C   UNL     1      -9.573   4.506  68.384  1.00  0.00    -0.207 A  
HETATM   11  C   UNL     1      -9.266   4.353  67.031  1.00  0.00    -0.141 A  
HETATM   12  C   UNL     1     -11.032   6.369  67.853  1.00  0.00    -0.416 A  
HETATM   13  C   UNL     1      -9.856   5.216  66.103  1.00  0.00    -0.185 A  
HETATM   14  H   UNL     1      -9.958   5.695  64.143  1.00  0.00     0.000 HD 
HETATM   15  C   UNL     1     -10.737   6.215  66.499  1.00  0.00    -0.207 A  
BRANCH  11  16
HETATM   16  O   UNL     1      -8.405   3.427  66.500  1.00  0.00    -0.098 OA 
HETATM   17  C   UNL     1      -8.749   2.059  66.688  1.00  0.00    -0.116 C  
ENDBRANCH  11  16
ENDBRANCH   2   8
TORSDOF 5
ENDMDL
MODEL      143
REMARK 921   NORMALIZED FREE ENERGY PREDICTED BY IDOCK:   -3.51 KCAL/MOL
REMARK 922        TOTAL FREE ENERGY PREDICTED BY IDOCK:   -4.90 KCAL/MOL
REMARK 923 INTER-LIGAND FREE ENERGY PREDICTED BY IDOCK:   -4.54 KCAL/MOL
REMARK 924 INTRA-LIGAND FREE ENERGY PREDICTED BY IDOCK:   -0.36 KCAL/MOL
REMARK 927      BINDING AFFINITY PREDICTED BY RF-SCORE:    0.00 PKD
ROOT
HETATM    1  C   UNL     1     -11.336  11.552  67.924  1.00  0.00    -0.372 C  
HETATM    2  C   UNL     1     -10.797  10.447  67.385  1.00  0.00    -0.344 C  
ENDROOT
BRANCH   1   3
HETATM    3  C   UNL     1     -11.460  12.833  67.198  1.00  0.00    -0.337 C  
HETATM    4  O   UNL     1     -10.951  13.005  66.101  1.00  0.00    -0.276 OA 
BRANCH   3   5
HETATM    5  O   UNL     1     -12.086  13.768  67.952  1.00  0.00    -0.365 OA 
BRANCH   5   6
HETATM    6  C   UNL     1     -11.707  13.801  69.333  1.00  0.00    -0.325 C  
HETATM    7  C   UNL     1     -12.157  15.131  69.911  1.00  0.00    -0.373 C  
ENDBRANCH   5   6
ENDBRANCH   3   5
ENDBRANCH   1   3
BRANCH   2   8
HETATM    8  C   UNL     1     -10.793   9.123  68.021  1.00  0.00    -0.135 A  
HETATM    9  O   UNL     1     -10.419   5.461  69.941  1.00  0.00    -0.283 OA 
HETATM   10  C   UNL     1     -10.870   9.057  69.422  1.00  0.00    -0.152 A  
HETATM   11  C   UNL     1     -10.752   7.833  70.082  1.00  0.00    -0.240 A  
HETATM   12  C   UNL     1     -10.599   7.944  67.285  1.00  0.00    -0.365 A  
HETATM   13  C   UNL     1     -10.562   6.673  69.323  1.00  0.00    -0.238 A  
HETATM   14  H   UNL     1     -10.290   4.674  69.426  1.00  0.00     0.000 HD 
HETATM   15  C   UNL     1     -10.490   6.716  67.938  1.00  0.00    -0.267 A  
BRANCH  11  16
HETATM   16  O   UNL     1     -10.787   7.642  71.440  1.00  0.00    -0.224 OA 
HETATM   17  C   UNL     1      -9.715   8.206  72.187  1.00  0.00    -0.244 C  
ENDBRANCH  11  16
ENDBRANCH   2   8
TORSDOF 5
ENDMDL
MODEL      144
REMARK 921   NORMALIZED FREE ENERGY PREDICTED BY IDOCK:   -3.48 KCAL/MOL
REMARK 922        TOTAL FREE ENERGY PREDICTED BY IDOCK:   -4.87 KCAL/MOL
REMARK 923 INTER-LIGAND FREE ENERGY PREDICTED BY IDOCK:   -4.56 KCAL/MOL
REMARK 924 INTRA-LIGAND FREE ENERGY PREDICTED BY IDOCK:   -0.31 KCAL/MOL
REMARK 927      BINDING AFFINITY PREDICTED BY RF-SCORE:    0.00 PKD
ROOT
HETATM    1  C   UNL     1     -10.372   9.460  66.505  1.00  0.00    -0.268 C  
HETATM    2  C   UNL     1     -10.249  10.056  67.701  1.00  0.00    -0.249 C  
ENDROOT
BRANCH   1   3
HETATM    3  C   UNL     1      -9.740   8.166  66.172  1.00  0.00    -0.084 C  
HETATM    4  O   UNL     1      -9.999   7.144  66.790  1.00  0.00    -0.204 OA 
BRANCH   3   5
HETATM    5  O   UNL     1      -8.796   8.310  65.212  1.00  0.00    -0.138 OA 
BRANCH   5   6
HETATM    6  C   UNL     1      -8.730   9.606  64.603  1.00  0.00    -0.201 C  
HETATM    7  C   UNL     1      -7.265   9.971  64.438  1.00  0.00    -0.134 C  
ENDBRANCH   5   6
ENDBRANCH   3   5
ENDBRANCH   1   3
BRANCH   2   8
HETATM    8  C   UNL     1     -10.981  11.261  68.114  1.00  0.00    -0.284 A  
HETATM    9  O   UNL     1     -12.702  14.854  69.281  1.00  0.00    -0.535 OA 
HETATM   10  C   UNL     1     -11.136  12.298  67.179  1.00  0.00    -0.330 A  
HETATM   11  C   UNL     1     -11.718  13.510  67.555  1.00  0.00    -0.367 A  
HETATM   12  C   UNL     1     -11.419  11.451  69.434  1.00  0.00    -0.378 A  
HETATM   13  C   UNL     1     -12.149  13.670  68.875  1.00  0.00    -0.300 A  
HETATM   14  H   UNL     1     -12.994  14.963  70.178  1.00  0.00     0.000 HD 
HETATM   15  C   UNL     1     -12.010  12.656  69.813  1.00  0.00    -0.365 A  
BRANCH  11  16
HETATM   16  O   UNL     1     -11.903  14.601  66.745  1.00  0.00    -0.377 OA 
HETATM   17  C   UNL     1     -11.195  14.601  65.509  1.00  0.00    -0.343 C  
ENDBRANCH  11  16
ENDBRANCH   2   8
TORSDOF 5
ENDMDL
MODEL      145
REMARK 921   NORMALIZED FREE ENERGY PREDICTED BY IDOCK:   -3.48 KCAL/MOL
REMARK 922        TOTAL FREE ENERGY PREDICTED BY IDOCK:   -4.86 KCAL/MOL
REMARK 923 INTER-LIGAND FREE ENERGY PREDICTED BY IDOCK:   -4.50 KCAL/MOL
REMARK 924 INTRA-LIGAND FREE ENERGY PREDICTED BY IDOCK:   -0.36 KCAL/MOL
REMARK 927      BINDING AFFINITY PREDICTED BY RF-SCORE:    0.00 PKD
ROOT
HETATM    1  C   UNL     1      -7.899  13.149  68.161  1.00  0.00    -0.145 C  
HETATM    2  C   UNL     1      -8.966  12.438  67.767  1.00  0.00    -0.182 C  
ENDROOT
BRANCH   1   3
HETATM    3  C   UNL     1      -6.847  12.613  69.050  1.00  0.00    -0.083 C  
HETATM    4  O   UNL     1      -6.955  11.525  69.595  1.00  0.00    -0.089 OA 
BRANCH   3   5
HETATM    5  O   UNL     1      -5.859  13.519  69.247  1.00  0.00    -0.078 OA 
BRANCH   5   6
HETATM    6  C   UNL     1      -6.158  14.561  70.184  1.00  0.00    -0.160 C  
HETATM    7  C   UNL     1      -5.527  14.190  71.515  1.00  0.00    -0.216 C  
ENDBRANCH   5   6
ENDBRANCH   3   5
ENDBRANCH   1   3
BRANCH   2   8
HETATM    8  C   UNL     1      -9.948  12.885  66.771  1.00  0.00    -0.243 A  
HETATM    9  O   UNL     1     -12.867  14.390  64.231  1.00  0.00    -0.593 OA 
HETATM   10  C   UNL     1      -9.807  14.174  66.229  1.00  0.00    -0.321 A  
HETATM   11  C   UNL     1     -10.776  14.692  65.369  1.00  0.00    -0.369 A  
HETATM   12  C   UNL     1     -11.075  12.117  66.437  1.00  0.00    -0.358 A  
HETATM   13  C   UNL     1     -11.887  13.903  65.052  1.00  0.00    -0.373 A  
HETATM   14  H   UNL     1     -13.621  13.855  64.015  1.00  0.00     0.000 HD 
HETATM   15  C   UNL     1     -12.042  12.625  65.571  1.00  0.00    -0.515 A  
BRANCH  11  16
HETATM   16  O   UNL     1     -10.764  15.938  64.797  1.00  0.00    -0.559 OA 
HETATM   17  C   UNL     1     -10.456  17.028  65.659  1.00  0.00    -0.216 C  
ENDBRANCH  11  16
ENDBRANCH   2   8
TORSDOF 5
ENDMDL
MODEL      146
REMARK 921   NORMALIZED FREE ENERGY PREDICTED BY IDOCK:   -3.42 KCAL/MOL
REMARK 922        TOTAL FREE ENERGY PREDICTED BY IDOCK:   -4.79 KCAL/MOL
REMARK 923 INTER-LIGAND FREE ENERGY PREDICTED BY IDOCK:   -4.35 KCAL/MOL
REMARK 924 INTRA-LIGAND FREE ENERGY PREDICTED BY IDOCK:   -0.44 KCAL/MOL
REMARK 927      BINDING AFFINITY PREDICTED BY RF-SCORE:    0.00 PKD
ROOT
HETATM    1  C   UNL     1     -11.015   9.224  67.493  1.00  0.00    -0.047 C  
HETATM    2  C   UNL     1     -10.535  10.018  68.462  1.00  0.00    -0.229 C  
ENDROOT
BRANCH   1   3
HETATM    3  C   UNL     1     -10.347   7.979  67.056  1.00  0.00    -0.344 C  
HETATM    4  O   UNL     1     -10.981   6.982  66.748  1.00  0.00    -0.317 OA 
BRANCH   3   5
HETATM    5  O   UNL     1      -9.001   8.079  67.162  1.00  0.00    -0.131 OA 
BRANCH   5   6
HETATM    6  C   UNL     1      -8.346   6.957  67.767  1.00  0.00    -0.120 C  
HETATM    7  C   UNL     1      -7.948   7.351  69.178  1.00  0.00    -0.118 C  
ENDBRANCH   5   6
ENDBRANCH   3   5
ENDBRANCH   1   3
BRANCH   2   8
HETATM    8  C   UNL     1     -11.244  11.176  69.022  1.00  0.00    -0.318 A  
HETATM    9  O   UNL     1     -12.896  14.607  70.676  1.00  0.00    -0.344 OA 
HETATM   10  C   UNL     1     -11.241  12.376  68.291  1.00  0.00    -0.309 A  
HETATM   11  C   UNL     1     -11.797  13.536  68.831  1.00  0.00    -0.345 A  
HETATM   12  C   UNL     1     -11.815  11.151  70.304  1.00  0.00    -0.455 A  
HETATM   13  C   UNL     1     -12.363  13.482  70.109  1.00  0.00    -0.275 A  
HETATM   14  H   UNL     1     -13.279  14.571  71.544  1.00  0.00     0.000 HD 
HETATM   15  C   UNL     1     -12.382  12.305  70.845  1.00  0.00    -0.363 A  
BRANCH  11  16
HETATM   16  O   UNL     1     -11.835  14.768  68.229  1.00  0.00    -0.320 OA 
HETATM   17  C   UNL     1     -10.888  14.995  67.191  1.00  0.00    -0.314 C  
ENDBRANCH  11  16
ENDBRANCH   2   8
TORSDOF 5
ENDMDL
MODEL      147
REMARK 921   NORMALIZED FREE ENERGY PREDICTED BY IDOCK:   -3.41 KCAL/MOL
REMARK 922        TOTAL FREE ENERGY PREDICTED BY IDOCK:   -4.77 KCAL/MOL
REMARK 923 INTER-LIGAND FREE ENERGY PREDICTED BY IDOCK:   -4.32 KCAL/MOL
REMARK 924 INTRA-LIGAND FREE ENERGY PREDICTED BY IDOCK:   -0.45 KCAL/MOL
REMARK 927      BINDING AFFINITY PREDICTED BY RF-SCORE:    0.00 PKD
ROOT
HETATM    1  C   UNL     1      -7.586  11.299  67.639  1.00  0.00    -0.106 C  
HETATM    2  C   UNL     1      -8.436  12.214  67.149  1.00  0.00    -0.182 C  
ENDROOT
BRANCH   1   3
HETATM    3  C   UNL     1      -6.850  11.470  68.909  1.00  0.00    -0.095 C  
HETATM    4  O   UNL     1      -7.027  10.728  69.862  1.00  0.00    -0.149 OA 
BRANCH   3   5
HETATM    5  O   UNL     1      -6.084  12.587  68.888  1.00  0.00    -0.066 OA 
BRANCH   5   6
HETATM    6  C   UNL     1      -6.306  13.506  69.965  1.00  0.00    -0.045 C  
HETATM    7  C   UNL     1      -6.696  14.846  69.365  1.00  0.00    -0.153 C  
ENDBRANCH   5   6
ENDBRANCH   3   5
ENDBRANCH   1   3
BRANCH   2   8
HETATM    8  C   UNL     1      -9.294  12.015  65.973  1.00  0.00    -0.196 A  
HETATM    9  O   UNL     1     -12.003  11.348  62.899  1.00  0.00    -0.898 OA 
HETATM   10  C   UNL     1     -10.328  12.937  65.740  1.00  0.00    -0.297 A  
HETATM   11  C   UNL     1     -11.243  12.729  64.707  1.00  0.00    -0.305 A  
HETATM   12  C   UNL     1      -9.185  10.881  65.154  1.00  0.00    -0.240 A  
HETATM   13  C   UNL     1     -11.109  11.592  63.905  1.00  0.00    -0.401 A  
HETATM   14  H   UNL     1     -11.912  10.575  62.354  1.00  0.00     0.000 HD 
HETATM   15  C   UNL     1     -10.090  10.673  64.114  1.00  0.00    -0.402 A  
BRANCH  11  16
HETATM   16  O   UNL     1     -12.305  13.540  64.396  1.00  0.00    -0.515 OA 
HETATM   17  C   UNL     1     -12.932  14.211  65.484  1.00  0.00    -0.272 C  
ENDBRANCH  11  16
ENDBRANCH   2   8
TORSDOF 5
ENDMDL
MODEL      148
REMARK 921   NORMALIZED FREE ENERGY PREDICTED BY IDOCK:   -3.40 KCAL/MOL
REMARK 922        TOTAL FREE ENERGY PREDICTED BY IDOCK:   -4.77 KCAL/MOL
REMARK 923 INTER-LIGAND FREE ENERGY PREDICTED BY IDOCK:   -4.46 KCAL/MOL
REMARK 924 INTRA-LIGAND FREE ENERGY PREDICTED BY IDOCK:   -0.30 KCAL/MOL
REMARK 927      BINDING AFFINITY PREDICTED BY RF-SCORE:    0.00 PKD
ROOT
HETATM    1  C   UNL     1     -11.314  10.118  68.174  1.00  0.00    -0.171 C  
HETATM    2  C   UNL     1     -11.493  10.319  69.489  1.00  0.00    -0.273 C  
ENDROOT
BRANCH   1   3
HETATM    3  C   UNL     1     -11.357  11.205  67.173  1.00  0.00    -0.181 C  
HETATM    4  O   UNL     1     -12.009  12.221  67.352  1.00  0.00    -0.530 OA 
BRANCH   3   5
HETATM    5  O   UNL     1     -10.695  10.859  66.042  1.00  0.00    -0.224 OA 
BRANCH   5   6
HETATM    6  C   UNL     1      -9.905  11.897  65.449  1.00  0.00    -0.233 C  
HETATM    7  C   UNL     1     -10.456  12.169  64.060  1.00  0.00    -0.418 C  
ENDBRANCH   5   6
ENDBRANCH   3   5
ENDBRANCH   1   3
BRANCH   2   8
HETATM    8  C   UNL     1     -11.310   9.293  70.524  1.00  0.00    -0.306 A  
HETATM    9  O   UNL     1     -10.974   6.144  73.208  1.00  0.00    -0.337 OA 
HETATM   10  C   UNL     1     -10.371   8.274  70.292  1.00  0.00    -0.211 A  
HETATM   11  C   UNL     1     -10.242   7.211  71.188  1.00  0.00    -0.191 A  
HETATM   12  C   UNL     1     -12.120   9.237  71.669  1.00  0.00    -0.451 A  
HETATM   13  C   UNL     1     -11.059   7.183  72.323  1.00  0.00    -0.254 A  
HETATM   14  H   UNL     1     -11.529   6.124  73.979  1.00  0.00     0.000 HD 
HETATM   15  C   UNL     1     -11.988   8.183  72.574  1.00  0.00    -0.410 A  
BRANCH  11  16
HETATM   16  O   UNL     1      -9.383   6.150  71.062  1.00  0.00    -0.162 OA 
HETATM   17  C   UNL     1      -7.997   6.434  71.209  1.00  0.00    -0.112 C  
ENDBRANCH  11  16
ENDBRANCH   2   8
TORSDOF 5
ENDMDL
MODEL      149
REMARK 921   NORMALIZED FREE ENERGY PREDICTED BY IDOCK:   -3.39 KCAL/MOL
REMARK 922        TOTAL FREE ENERGY PREDICTED BY IDOCK:   -4.75 KCAL/MOL
REMARK 923 INTER-LIGAND FREE ENERGY PREDICTED BY IDOCK:   -4.35 KCAL/MOL
REMARK 924 INTRA-LIGAND FREE ENERGY PREDICTED BY IDOCK:   -0.40 KCAL/MOL
REMARK 927      BINDING AFFINITY PREDICTED BY RF-SCORE:    0.00 PKD
ROOT
HETATM    1  C   UNL     1     -11.226  11.821  64.890  1.00  0.00    -0.328 C  
HETATM    2  C   UNL     1     -10.717  11.004  65.825  1.00  0.00    -0.216 C  
ENDROOT
BRANCH   1   3
HETATM    3  C   UNL     1     -12.084  12.983  65.205  1.00  0.00    -0.433 C  
HETATM    4  O   UNL     1     -13.200  13.109  64.725  1.00  0.00    -0.670 OA 
BRANCH   3   5
HETATM    5  O   UNL     1     -11.426  13.888  65.968  1.00  0.00    -0.325 OA 
BRANCH   5   6
HETATM    6  C   UNL     1     -10.526  14.751  65.261  1.00  0.00    -0.404 C  
HETATM    7  C   UNL     1      -9.669  15.474  66.286  1.00  0.00    -0.328 C  
ENDBRANCH   5   6
ENDBRANCH   3   5
ENDBRANCH   1   3
BRANCH   2   8
HETATM    8  C   UNL     1      -9.745   9.935  65.562  1.00  0.00    -0.370 A  
HETATM    9  O   UNL     1      -7.268   6.748  64.590  1.00  0.00    -0.066 OA 
HETATM   10  C   UNL     1      -9.151   9.873  64.290  1.00  0.00    -0.297 A  
HETATM   11  C   UNL     1      -8.311   8.811  63.950  1.00  0.00    -0.141 A  
HETATM   12  C   UNL     1      -9.484   8.918  66.494  1.00  0.00    -0.272 A  
HETATM   13  C   UNL     1      -8.067   7.814  64.899  1.00  0.00    -0.136 A  
HETATM   14  H   UNL     1      -7.102   6.070  65.234  1.00  0.00     0.000 HD 
HETATM   15  C   UNL     1      -8.638   7.860  66.164  1.00  0.00    -0.164 A  
BRANCH  11  16
HETATM   16  O   UNL     1      -7.694   8.627  62.739  1.00  0.00    -0.108 OA 
HETATM   17  C   UNL     1      -6.642   9.531  62.419  1.00  0.00    -0.095 C  
ENDBRANCH  11  16
ENDBRANCH   2   8
TORSDOF 5
ENDMDL
MODEL      150
REMARK 921   NORMALIZED FREE ENERGY PREDICTED BY IDOCK:   -3.38 KCAL/MOL
REMARK 922        TOTAL FREE ENERGY PREDICTED BY IDOCK:   -4.74 KCAL/MOL
REMARK 923 INTER-LIGAND FREE ENERGY PREDICTED BY IDOCK:   -4.41 KCAL/MOL
REMARK 924 INTRA-LIGAND FREE ENERGY PREDICTED BY IDOCK:   -0.34 KCAL/MOL
REMARK 927      BINDING AFFINITY PREDICTED BY RF-SCORE:    0.00 PKD
ROOT
HETATM    1  C   UNL     1     -12.344   7.150  71.144  1.00  0.00    -0.404 C  
HETATM    2  C   UNL     1     -11.660   6.389  72.012  1.00  0.00    -0.368 C  
ENDROOT
BRANCH   1   3
HETATM    3  C   UNL     1     -13.106   8.352  71.541  1.00  0.00    -0.296 C  
HETATM    4  O   UNL     1     -14.326   8.355  71.591  1.00  0.00    -0.431 OA 
BRANCH   3   5
HETATM    5  O   UNL     1     -12.289   9.419  71.712  1.00  0.00    -0.350 OA 
BRANCH   5   6
HETATM    6  C   UNL     1     -12.864  10.692  71.391  1.00  0.00    -0.451 C  
HETATM    7  C   UNL     1     -12.152  11.231  70.162  1.00  0.00    -0.448 C  
ENDBRANCH   5   6
ENDBRANCH   3   5
ENDBRANCH   1   3
BRANCH   2   8
HETATM    8  C   UNL     1     -10.774   5.280  71.636  1.00  0.00    -0.227 A  
HETATM    9  O   UNL     1      -8.581   1.980  70.397  1.00  0.00    -0.048 OA 
HETATM   10  C   UNL     1     -10.402   5.154  70.287  1.00  0.00    -0.331 A  
HETATM   11  C   UNL     1      -9.660   4.053  69.856  1.00  0.00    -0.211 A  
HETATM   12  C   UNL     1     -10.390   4.288  72.552  1.00  0.00    -0.239 A  
HETATM   13  C   UNL     1      -9.288   3.082  70.791  1.00  0.00    -0.153 A  
HETATM   14  H   UNL     1      -8.329   1.320  71.031  1.00  0.00     0.000 HD 
HETATM   15  C   UNL     1      -9.640   3.191  72.129  1.00  0.00    -0.209 A  
BRANCH  11  16
HETATM   16  O   UNL     1      -9.257   3.806  68.568  1.00  0.00    -0.131 OA 
HETATM   17  C   UNL     1      -9.032   4.945  67.744  1.00  0.00    -0.109 C  
ENDBRANCH  11  16
ENDBRANCH   2   8
TORSDOF 5
ENDMDL
MODEL      151
REMARK 921   NORMALIZED FREE ENERGY PREDICTED BY IDOCK:   -3.36 KCAL/MOL
REMARK 922        TOTAL FREE ENERGY PREDICTED BY IDOCK:   -4.71 KCAL/MOL
REMARK 923 INTER-LIGAND FREE ENERGY PREDICTED BY IDOCK:   -4.50 KCAL/MOL
REMARK 924 INTRA-LIGAND FREE ENERGY PREDICTED BY IDOCK:   -0.21 KCAL/MOL
REMARK 927      BINDING AFFINITY PREDICTED BY RF-SCORE:    0.00 PKD
ROOT
HETATM    1  C   UNL     1     -10.035  10.685  68.345  1.00  0.00    -0.176 C  
HETATM    2  C   UNL     1     -10.262   9.383  68.571  1.00  0.00    -0.223 C  
ENDROOT
BRANCH   1   3
HETATM    3  C   UNL     1     -10.033  11.288  66.996  1.00  0.00    -0.198 C  
HETATM    4  O   UNL     1     -10.806  12.182  66.687  1.00  0.00    -0.248 OA 
BRANCH   3   5
HETATM    5  O   UNL     1      -9.171  10.647  66.171  1.00  0.00    -0.163 OA 
BRANCH   5   6
HETATM    6  C   UNL     1      -9.771   9.740  65.238  1.00  0.00    -0.300 C  
HETATM    7  C   UNL     1      -9.667  10.354  63.853  1.00  0.00    -0.367 C  
ENDBRANCH   5   6
ENDBRANCH   3   5
ENDBRANCH   1   3
BRANCH   2   8
HETATM    8  C   UNL     1     -10.419   8.779  69.901  1.00  0.00    -0.227 A  
HETATM    9  O   UNL     1     -11.136   7.348  73.732  1.00  0.00    -0.557 OA 
HETATM   10  C   UNL     1     -11.593   8.054  70.169  1.00  0.00     0.080 A  
HETATM   11  C   UNL     1     -11.845   7.561  71.450  1.00  0.00    -0.294 A  
HETATM   12  C   UNL     1      -9.498   9.004  70.936  1.00  0.00    -0.331 A  
HETATM   13  C   UNL     1     -10.907   7.797  72.460  1.00  0.00    -0.328 A  
HETATM   14  H   UNL     1     -10.499   7.508  74.418  1.00  0.00     0.000 HD 
HETATM   15  C   UNL     1      -9.739   8.505  72.215  1.00  0.00    -0.380 A  
BRANCH  11  16
HETATM   16  O   UNL     1     -12.959   6.863  71.840  1.00  0.00    -0.325 OA 
HETATM   17  C   UNL     1     -14.216   7.481  71.589  1.00  0.00    -0.458 C  
ENDBRANCH  11  16
ENDBRANCH   2   8
TORSDOF 5
ENDMDL
MODEL      152
REMARK 921   NORMALIZED FREE ENERGY PREDICTED BY IDOCK:   -3.34 KCAL/MOL
REMARK 922        TOTAL FREE ENERGY PREDICTED BY IDOCK:   -4.69 KCAL/MOL
REMARK 923 INTER-LIGAND FREE ENERGY PREDICTED BY IDOCK:   -4.28 KCAL/MOL
REMARK 924 INTRA-LIGAND FREE ENERGY PREDICTED BY IDOCK:   -0.41 KCAL/MOL
REMARK 927      BINDING AFFINITY PREDICTED BY RF-SCORE:    0.00 PKD
ROOT
HETATM    1  C   UNL     1     -12.232   6.800  70.516  1.00  0.00    -0.253 C  
HETATM    2  C   UNL     1     -11.139   6.071  70.786  1.00  0.00    -0.355 C  
ENDROOT
BRANCH   1   3
HETATM    3  C   UNL     1     -12.955   7.591  71.534  1.00  0.00    -0.359 C  
HETATM    4  O   UNL     1     -14.134   7.393  71.786  1.00  0.00    -0.395 OA 
BRANCH   3   5
HETATM    5  O   UNL     1     -12.181   8.588  72.024  1.00  0.00    -0.320 OA 
BRANCH   5   6
HETATM    6  C   UNL     1     -12.653   9.917  71.767  1.00  0.00    -0.414 C  
HETATM    7  C   UNL     1     -11.835  10.491  70.623  1.00  0.00    -0.458 C  
ENDBRANCH   5   6
ENDBRANCH   3   5
ENDBRANCH   1   3
BRANCH   2   8
HETATM    8  C   UNL     1     -10.312   5.396  69.777  1.00  0.00    -0.375 A  
HETATM    9  O   UNL     1      -8.308   3.406  66.734  1.00  0.00    -0.097 OA 
HETATM   10  C   UNL     1     -10.167   6.006  68.520  1.00  0.00    -0.227 A  
HETATM   11  C   UNL     1      -9.491   5.353  67.488  1.00  0.00    -0.121 A  
HETATM   12  C   UNL     1      -9.768   4.120  69.990  1.00  0.00    -0.282 A  
HETATM   13  C   UNL     1      -8.956   4.084  67.730  1.00  0.00    -0.125 A  
HETATM   14  H   UNL     1      -7.945   2.544  66.898  1.00  0.00     0.000 HD 
HETATM   15  C   UNL     1      -9.083   3.466  68.967  1.00  0.00    -0.205 A  
BRANCH  11  16
HETATM   16  O   UNL     1      -9.304   5.831  66.217  1.00  0.00    -0.155 OA 
HETATM   17  C   UNL     1      -8.927   7.199  66.102  1.00  0.00    -0.140 C  
ENDBRANCH  11  16
ENDBRANCH   2   8
TORSDOF 5
ENDMDL
MODEL      153
REMARK 921   NORMALIZED FREE ENERGY PREDICTED BY IDOCK:   -3.32 KCAL/MOL
REMARK 922        TOTAL FREE ENERGY PREDICTED BY IDOCK:   -4.66 KCAL/MOL
REMARK 923 INTER-LIGAND FREE ENERGY PREDICTED BY IDOCK:   -4.31 KCAL/MOL
REMARK 924 INTRA-LIGAND FREE ENERGY PREDICTED BY IDOCK:   -0.35 KCAL/MOL
REMARK 927      BINDING AFFINITY PREDICTED BY RF-SCORE:    0.00 PKD
ROOT
HETATM    1  C   UNL     1      -9.439  12.707  68.149  1.00  0.00    -0.218 C  
HETATM    2  C   UNL     1      -8.231  13.165  67.786  1.00  0.00    -0.168 C  
ENDROOT
BRANCH   1   3
HETATM    3  C   UNL     1      -9.664  11.352  68.694  1.00  0.00    -0.176 C  
HETATM    4  O   UNL     1      -8.749  10.673  69.133  1.00  0.00    -0.163 OA 
BRANCH   3   5
HETATM    5  O   UNL     1     -10.950  10.961  68.527  1.00  0.00    -0.195 OA 
BRANCH   5   6
HETATM    6  C   UNL     1     -11.910  11.633  69.352  1.00  0.00    -0.342 C  
HETATM    7  C   UNL     1     -12.054  10.845  70.642  1.00  0.00    -0.468 C  
ENDBRANCH   5   6
ENDBRANCH   3   5
ENDBRANCH   1   3
BRANCH   2   8
HETATM    8  C   UNL     1      -7.948  14.549  67.382  1.00  0.00    -0.221 A  
HETATM    9  O   UNL     1      -7.161  18.335  65.871  1.00  0.00    -0.310 OA 
HETATM   10  C   UNL     1      -8.981  15.295  66.790  1.00  0.00    -0.291 A  
HETATM   11  C   UNL     1      -8.734  16.571  66.283  1.00  0.00    -0.333 A  
HETATM   12  C   UNL     1      -6.660  15.100  67.463  1.00  0.00    -0.167 A  
HETATM   13  C   UNL     1      -7.442  17.097  66.380  1.00  0.00    -0.306 A  
HETATM   14  H   UNL     1      -6.283  18.692  65.937  1.00  0.00     0.000 HD 
HETATM   15  C   UNL     1      -6.408  16.379  66.967  1.00  0.00    -0.176 A  
BRANCH  11  16
HETATM   16  O   UNL     1      -9.649  17.384  65.664  1.00  0.00    -0.519 OA 
HETATM   17  C   UNL     1     -10.548  18.088  66.513  1.00  0.00    -0.253 C  
ENDBRANCH  11  16
ENDBRANCH   2   8
TORSDOF 5
ENDMDL
MODEL      154
REMARK 921   NORMALIZED FREE ENERGY PREDICTED BY IDOCK:   -3.27 KCAL/MOL
REMARK 922        TOTAL FREE ENERGY PREDICTED BY IDOCK:   -4.60 KCAL/MOL
REMARK 923 INTER-LIGAND FREE ENERGY PREDICTED BY IDOCK:   -4.19 KCAL/MOL
REMARK 924 INTRA-LIGAND FREE ENERGY PREDICTED BY IDOCK:   -0.41 KCAL/MOL
REMARK 927      BINDING AFFINITY PREDICTED BY RF-SCORE:    0.00 PKD
ROOT
HETATM    1  C   UNL     1      -8.442  10.982  68.142  1.00  0.00    -0.135 C  
HETATM    2  C   UNL     1      -9.570  11.688  67.974  1.00  0.00    -0.184 C  
ENDROOT
BRANCH   1   3
HETATM    3  C   UNL     1      -7.925  10.577  69.467  1.00  0.00    -0.109 C  
HETATM    4  O   UNL     1      -6.787  10.841  69.823  1.00  0.00    -0.128 OA 
BRANCH   3   5
HETATM    5  O   UNL     1      -8.821   9.809  70.131  1.00  0.00    -0.218 OA 
BRANCH   5   6
HETATM    6  C   UNL     1      -8.337   8.530  70.559  1.00  0.00    -0.135 C  
HETATM    7  C   UNL     1      -8.823   7.489  69.565  1.00  0.00    -0.137 C  
ENDBRANCH   5   6
ENDBRANCH   3   5
ENDBRANCH   1   3
BRANCH   2   8
HETATM    8  C   UNL     1     -10.190  11.979  66.675  1.00  0.00    -0.229 A  
HETATM    9  O   UNL     1     -11.584  12.894  62.873  1.00  0.00    -0.747 OA 
HETATM   10  C   UNL     1      -9.946  11.096  65.609  1.00  0.00    -0.297 A  
HETATM   11  C   UNL     1     -10.413  11.387  64.326  1.00  0.00    -0.342 A  
HETATM   12  C   UNL     1     -10.913  13.159  66.440  1.00  0.00    -0.305 A  
HETATM   13  C   UNL     1     -11.133  12.568  64.122  1.00  0.00    -0.376 A  
HETATM   14  H   UNL     1     -12.073  13.696  62.734  1.00  0.00     0.000 HD 
HETATM   15  C   UNL     1     -11.391  13.450  65.163  1.00  0.00    -0.316 A  
BRANCH  11  16
HETATM   16  O   UNL     1     -10.220  10.621  63.205  1.00  0.00    -0.274 OA 
HETATM   17  C   UNL     1      -8.974   9.939  63.110  1.00  0.00    -0.258 C  
ENDBRANCH  11  16
ENDBRANCH   2   8
TORSDOF 5
ENDMDL
MODEL      155
REMARK 921   NORMALIZED FREE ENERGY PREDICTED BY IDOCK:   -3.27 KCAL/MOL
REMARK 922        TOTAL FREE ENERGY PREDICTED BY IDOCK:   -4.59 KCAL/MOL
REMARK 923 INTER-LIGAND FREE ENERGY PREDICTED BY IDOCK:   -4.59 KCAL/MOL
REMARK 924 INTRA-LIGAND FREE ENERGY PREDICTED BY IDOCK:   -0.00 KCAL/MOL
REMARK 927      BINDING AFFINITY PREDICTED BY RF-SCORE:    0.00 PKD
ROOT
HETATM    1  C   UNL     1     -10.106  10.088  66.679  1.00  0.00    -0.289 C  
HETATM    2  C   UNL     1     -10.830  10.656  67.655  1.00  0.00    -0.346 C  
ENDROOT
BRANCH   1   3
HETATM    3  C   UNL     1      -9.624  10.823  65.490  1.00  0.00    -0.222 C  
HETATM    4  O   UNL     1      -8.958  10.280  64.622  1.00  0.00    -0.178 OA 
BRANCH   3   5
HETATM    5  O   UNL     1      -9.919  12.143  65.574  1.00  0.00    -0.246 OA 
BRANCH   5   6
HETATM    6  C   UNL     1     -10.841  12.632  64.592  1.00  0.00    -0.319 C  
HETATM    7  C   UNL     1     -11.840  11.527  64.297  1.00  0.00    -0.099 C  
ENDBRANCH   5   6
ENDBRANCH   3   5
ENDBRANCH   1   3
BRANCH   2   8
HETATM    8  C   UNL     1     -11.197   9.998  68.916  1.00  0.00    -0.179 A  
HETATM    9  O   UNL     1     -12.005   8.400  72.661  1.00  0.00    -0.418 OA 
HETATM   10  C   UNL     1     -12.056  10.678  69.796  1.00  0.00    -0.343 A  
HETATM   11  C   UNL     1     -12.341  10.151  71.056  1.00  0.00    -0.373 A  
HETATM   12  C   UNL     1     -10.629   8.778  69.313  1.00  0.00    -0.210 A  
HETATM   13  C   UNL     1     -11.763   8.932  71.424  1.00  0.00    -0.315 A  
HETATM   14  H   UNL     1     -11.612   7.572  72.912  1.00  0.00     0.000 HD 
HETATM   15  C   UNL     1     -10.918   8.241  70.567  1.00  0.00    -0.253 A  
BRANCH  11  16
HETATM   16  O   UNL     1     -13.141  10.728  72.010  1.00  0.00    -0.483 OA 
HETATM   17  C   UNL     1     -13.362  12.129  71.888  1.00  0.00    -0.318 C  
ENDBRANCH  11  16
ENDBRANCH   2   8
TORSDOF 5
ENDMDL
MODEL      156
REMARK 921   NORMALIZED FREE ENERGY PREDICTED BY IDOCK:   -3.27 KCAL/MOL
REMARK 922        TOTAL FREE ENERGY PREDICTED BY IDOCK:   -4.59 KCAL/MOL
REMARK 923 INTER-LIGAND FREE ENERGY PREDICTED BY IDOCK:   -4.21 KCAL/MOL
REMARK 924 INTRA-LIGAND FREE ENERGY PREDICTED BY IDOCK:   -0.38 KCAL/MOL
REMARK 927      BINDING AFFINITY PREDICTED BY RF-SCORE:    0.00 PKD
ROOT
HETATM    1  C   UNL     1      -7.979   8.465  71.706  1.00  0.00    -0.173 C  
HETATM    2  C   UNL     1      -9.013   8.915  70.977  1.00  0.00    -0.298 C  
ENDROOT
BRANCH   1   3
HETATM    3  C   UNL     1      -6.575   8.849  71.449  1.00  0.00    -0.081 C  
HETATM    4  O   UNL     1      -6.089   8.805  70.329  1.00  0.00    -0.030 OA 
BRANCH   3   5
HETATM    5  O   UNL     1      -5.920   9.125  72.602  1.00  0.00    -0.220 OA 
BRANCH   5   6
HETATM    6  C   UNL     1      -6.223   8.260  73.704  1.00  0.00    -0.112 C  
HETATM    7  C   UNL     1      -5.142   7.196  73.775  1.00  0.00    -0.042 C  
ENDBRANCH   5   6
ENDBRANCH   3   5
ENDBRANCH   1   3
BRANCH   2   8
HETATM    8  C   UNL     1     -10.427   8.674  71.294  1.00  0.00    -0.311 A  
HETATM    9  O   UNL     1     -14.345   8.127  72.552  1.00  0.00    -0.616 OA 
HETATM   10  C   UNL     1     -11.269   9.786  71.462  1.00  0.00    -0.291 A  
HETATM   11  C   UNL     1     -12.591   9.618  71.878  1.00  0.00    -0.396 A  
HETATM   12  C   UNL     1     -10.926   7.387  71.548  1.00  0.00    -0.255 A  
HETATM   13  C   UNL     1     -13.062   8.324  72.120  1.00  0.00    -0.287 A  
HETATM   14  H   UNL     1     -14.666   7.248  72.716  1.00  0.00     0.000 HD 
HETATM   15  C   UNL     1     -12.248   7.212  71.954  1.00  0.00    -0.358 A  
BRANCH  11  16
HETATM   16  O   UNL     1     -13.500  10.621  72.099  1.00  0.00    -0.373 OA 
HETATM   17  C   UNL     1     -13.036  11.952  71.905  1.00  0.00    -0.369 C  
ENDBRANCH  11  16
ENDBRANCH   2   8
TORSDOF 5
ENDMDL
MODEL      157
REMARK 921   NORMALIZED FREE ENERGY PREDICTED BY IDOCK:   -3.26 KCAL/MOL
REMARK 922        TOTAL FREE ENERGY PREDICTED BY IDOCK:   -4.57 KCAL/MOL
REMARK 923 INTER-LIGAND FREE ENERGY PREDICTED BY IDOCK:   -4.24 KCAL/MOL
REMARK 924 INTRA-LIGAND FREE ENERGY PREDICTED BY IDOCK:   -0.33 KCAL/MOL
REMARK 927      BINDING AFFINITY PREDICTED BY RF-SCORE:    0.00 PKD
ROOT
HETATM    1  C   UNL     1      -9.896   6.485  72.264  1.00  0.00    -0.166 C  
HETATM    2  C   UNL     1     -11.198   6.806  72.223  1.00  0.00    -0.295 C  
ENDROOT
BRANCH   1   3
HETATM    3  C   UNL     1      -9.403   5.117  72.530  1.00  0.00    -0.135 C  
HETATM    4  O   UNL     1      -8.267   4.906  72.924  1.00  0.00    -0.100 OA 
BRANCH   3   5
HETATM    5  O   UNL     1     -10.319   4.185  72.171  1.00  0.00    -0.172 OA 
BRANCH   5   6
HETATM    6  C   UNL     1      -9.814   2.853  72.018  1.00  0.00    -0.172 C  
HETATM    7  C   UNL     1      -9.345   2.692  70.583  1.00  0.00    -0.215 C  
ENDBRANCH   5   6
ENDBRANCH   3   5
ENDBRANCH   1   3
BRANCH   2   8
HETATM    8  C   UNL     1     -11.725   8.116  71.816  1.00  0.00    -0.343 A  
HETATM    9  O   UNL     1     -12.925  11.978  70.880  1.00  0.00    -0.167 OA 
HETATM   10  C   UNL     1     -10.983   8.875  70.895  1.00  0.00    -0.325 A  
HETATM   11  C   UNL     1     -11.377  10.172  70.566  1.00  0.00    -0.338 A  
HETATM   12  C   UNL     1     -12.871   8.673  72.404  1.00  0.00    -0.413 A  
HETATM   13  C   UNL     1     -12.525  10.701  71.163  1.00  0.00    -0.418 A  
HETATM   14  H   UNL     1     -13.705  12.337  71.286  1.00  0.00     0.000 HD 
HETATM   15  C   UNL     1     -13.276   9.965  72.071  1.00  0.00    -0.555 A  
BRANCH  11  16
HETATM   16  O   UNL     1     -10.727  11.018  69.703  1.00  0.00    -0.224 OA 
HETATM   17  C   UNL     1      -9.620  10.472  68.994  1.00  0.00    -0.202 C  
ENDBRANCH  11  16
ENDBRANCH   2   8
TORSDOF 5
ENDMDL
MODEL      158
REMARK 921   NORMALIZED FREE ENERGY PREDICTED BY IDOCK:   -3.25 KCAL/MOL
REMARK 922        TOTAL FREE ENERGY PREDICTED BY IDOCK:   -4.56 KCAL/MOL
REMARK 923 INTER-LIGAND FREE ENERGY PREDICTED BY IDOCK:   -4.22 KCAL/MOL
REMARK 924 INTRA-LIGAND FREE ENERGY PREDICTED BY IDOCK:   -0.35 KCAL/MOL
REMARK 927      BINDING AFFINITY PREDICTED BY RF-SCORE:    0.00 PKD
ROOT
HETATM    1  C   UNL     1     -10.576   5.579  71.745  1.00  0.00    -0.296 C  
HETATM    2  C   UNL     1     -10.806   6.784  71.201  1.00  0.00    -0.275 C  
ENDROOT
BRANCH   1   3
HETATM    3  C   UNL     1     -10.980   5.218  73.120  1.00  0.00    -0.305 C  
HETATM    4  O   UNL     1     -11.566   4.175  73.367  1.00  0.00    -0.231 OA 
BRANCH   3   5
HETATM    5  O   UNL     1     -10.721   6.223  73.991  1.00  0.00    -0.224 OA 
BRANCH   5   6
HETATM    6  C   UNL     1      -9.398   6.234  74.541  1.00  0.00    -0.204 C  
HETATM    7  C   UNL     1      -8.713   7.512  74.089  1.00  0.00    -0.282 C  
ENDBRANCH   5   6
ENDBRANCH   3   5
ENDBRANCH   1   3
BRANCH   2   8
HETATM    8  C   UNL     1     -10.554   7.128  69.795  1.00  0.00    -0.250 A  
HETATM    9  O   UNL     1     -10.135   8.363  65.854  1.00  0.00    -0.432 OA 
HETATM   10  C   UNL     1      -9.959   8.369  69.510  1.00  0.00    -0.190 A  
HETATM   11  C   UNL     1      -9.806   8.795  68.190  1.00  0.00    -0.168 A  
HETATM   12  C   UNL     1     -10.994   6.316  68.738  1.00  0.00    -0.424 A  
HETATM   13  C   UNL     1     -10.249   7.964  67.157  1.00  0.00    -0.290 A  
HETATM   14  H   UNL     1     -10.437   7.799  65.152  1.00  0.00     0.000 HD 
HETATM   15  C   UNL     1     -10.834   6.732  67.417  1.00  0.00    -0.417 A  
BRANCH  11  16
HETATM   16  O   UNL     1      -9.264   9.988  67.786  1.00  0.00    -0.134 OA 
HETATM   17  C   UNL     1      -7.845  10.040  67.686  1.00  0.00    -0.095 C  
ENDBRANCH  11  16
ENDBRANCH   2   8
TORSDOF 5
ENDMDL
MODEL      159
REMARK 921   NORMALIZED FREE ENERGY PREDICTED BY IDOCK:   -3.24 KCAL/MOL
REMARK 922        TOTAL FREE ENERGY PREDICTED BY IDOCK:   -4.55 KCAL/MOL
REMARK 923 INTER-LIGAND FREE ENERGY PREDICTED BY IDOCK:   -4.17 KCAL/MOL
REMARK 924 INTRA-LIGAND FREE ENERGY PREDICTED BY IDOCK:   -0.38 KCAL/MOL
REMARK 927      BINDING AFFINITY PREDICTED BY RF-SCORE:    0.00 PKD
ROOT
HETATM    1  C   UNL     1      -7.834  10.436  68.270  1.00  0.00    -0.105 C  
HETATM    2  C   UNL     1      -8.702  11.371  67.855  1.00  0.00    -0.145 C  
ENDROOT
BRANCH   1   3
HETATM    3  C   UNL     1      -7.359  10.329  69.665  1.00  0.00    -0.150 C  
HETATM    4  O   UNL     1      -6.184  10.484  69.961  1.00  0.00    -0.072 OA 
BRANCH   3   5
HETATM    5  O   UNL     1      -8.354   9.936  70.496  1.00  0.00    -0.182 OA 
BRANCH   5   6
HETATM    6  C   UNL     1      -8.053   8.809  71.328  1.00  0.00    -0.154 C  
HETATM    7  C   UNL     1      -8.710   7.585  70.714  1.00  0.00    -0.140 C  
ENDBRANCH   5   6
ENDBRANCH   3   5
ENDBRANCH   1   3
BRANCH   2   8
HETATM    8  C   UNL     1      -9.307  11.415  66.517  1.00  0.00    -0.204 A  
HETATM    9  O   UNL     1     -11.339  11.380  62.897  1.00  0.00    -0.814 OA 
HETATM   10  C   UNL     1     -10.331  12.348  66.281  1.00  0.00    -0.267 A  
HETATM   11  C   UNL     1     -11.020  12.353  65.067  1.00  0.00    -0.298 A  
HETATM   12  C   UNL     1      -8.979  10.486  65.518  1.00  0.00    -0.203 A  
HETATM   13  C   UNL     1     -10.668  11.418  64.088  1.00  0.00    -0.371 A  
HETATM   14  H   UNL     1     -11.101  10.745  62.233  1.00  0.00     0.000 HD 
HETATM   15  C   UNL     1      -9.656  10.492  64.300  1.00  0.00    -0.364 A  
BRANCH  11  16
HETATM   16  O   UNL     1     -12.049  13.193  64.727  1.00  0.00    -0.368 OA 
HETATM   17  C   UNL     1     -12.860  13.668  65.796  1.00  0.00    -0.333 C  
ENDBRANCH  11  16
ENDBRANCH   2   8
TORSDOF 5
ENDMDL
MODEL      160
REMARK 921   NORMALIZED FREE ENERGY PREDICTED BY IDOCK:   -3.22 KCAL/MOL
REMARK 922        TOTAL FREE ENERGY PREDICTED BY IDOCK:   -4.53 KCAL/MOL
REMARK 923 INTER-LIGAND FREE ENERGY PREDICTED BY IDOCK:   -4.10 KCAL/MOL
REMARK 924 INTRA-LIGAND FREE ENERGY PREDICTED BY IDOCK:   -0.44 KCAL/MOL
REMARK 927      BINDING AFFINITY PREDICTED BY RF-SCORE:    0.00 PKD
ROOT
HETATM    1  C   UNL     1      -8.319  15.958  68.159  1.00  0.00    -0.162 C  
HETATM    2  C   UNL     1      -8.204  15.096  67.137  1.00  0.00    -0.251 C  
ENDROOT
BRANCH   1   3
HETATM    3  C   UNL     1      -7.179  16.712  68.720  1.00  0.00    -0.206 C  
HETATM    4  O   UNL     1      -7.244  17.912  68.937  1.00  0.00    -0.267 OA 
BRANCH   3   5
HETATM    5  O   UNL     1      -6.078  15.930  68.833  1.00  0.00    -0.113 OA 
BRANCH   5   6
HETATM    6  C   UNL     1      -5.989  15.163  70.039  1.00  0.00    -0.142 C  
HETATM    7  C   UNL     1      -5.780  13.708  69.655  1.00  0.00    -0.102 C  
ENDBRANCH   5   6
ENDBRANCH   3   5
ENDBRANCH   1   3
BRANCH   2   8
HETATM    8  C   UNL     1      -9.333  14.445  66.460  1.00  0.00    -0.300 A  
HETATM    9  O   UNL     1     -12.260  12.420  64.323  1.00  0.00    -0.412 OA 
HETATM   10  C   UNL     1      -9.554  13.078  66.700  1.00  0.00    -0.259 A  
HETATM   11  C   UNL     1     -10.539  12.385  65.994  1.00  0.00    -0.256 A  
HETATM   12  C   UNL     1     -10.114  15.112  65.503  1.00  0.00    -0.402 A  
HETATM   13  C   UNL     1     -11.304  13.075  65.049  1.00  0.00    -0.296 A  
HETATM   14  H   UNL     1     -12.780  12.888  63.681  1.00  0.00     0.000 HD 
HETATM   15  C   UNL     1     -11.105  14.427  64.802  1.00  0.00    -0.402 A  
BRANCH  11  16
HETATM   16  O   UNL     1     -10.833  11.051  66.120  1.00  0.00    -0.234 OA 
HETATM   17  C   UNL     1     -10.837  10.525  67.443  1.00  0.00    -0.291 C  
ENDBRANCH  11  16
ENDBRANCH   2   8
TORSDOF 5
ENDMDL
MODEL      161
REMARK 921   NORMALIZED FREE ENERGY PREDICTED BY IDOCK:   -3.21 KCAL/MOL
REMARK 922        TOTAL FREE ENERGY PREDICTED BY IDOCK:   -4.51 KCAL/MOL
REMARK 923 INTER-LIGAND FREE ENERGY PREDICTED BY IDOCK:   -4.16 KCAL/MOL
REMARK 924 INTRA-LIGAND FREE ENERGY PREDICTED BY IDOCK:   -0.36 KCAL/MOL
REMARK 927      BINDING AFFINITY PREDICTED BY RF-SCORE:    0.00 PKD
ROOT
HETATM    1  C   UNL     1     -12.209   7.099  71.165  1.00  0.00    -0.405 C  
HETATM    2  C   UNL     1     -11.480   6.338  71.995  1.00  0.00    -0.359 C  
ENDROOT
BRANCH   1   3
HETATM    3  C   UNL     1     -13.071   8.208  71.626  1.00  0.00    -0.335 C  
HETATM    4  O   UNL     1     -14.290   8.141  71.576  1.00  0.00    -0.426 OA 
BRANCH   3   5
HETATM    5  O   UNL     1     -12.337   9.291  71.975  1.00  0.00    -0.365 OA 
BRANCH   5   6
HETATM    6  C   UNL     1     -12.935  10.561  71.685  1.00  0.00    -0.476 C  
HETATM    7  C   UNL     1     -12.220  11.152  70.483  1.00  0.00    -0.475 C  
ENDBRANCH   5   6
ENDBRANCH   3   5
ENDBRANCH   1   3
BRANCH   2   8
HETATM    8  C   UNL     1     -10.502   5.330  71.564  1.00  0.00    -0.279 A  
HETATM    9  O   UNL     1      -7.462   2.754  70.401  1.00  0.00    -0.040 OA 
HETATM   10  C   UNL     1      -9.646   4.777  72.532  1.00  0.00    -0.174 A  
HETATM   11  C   UNL     1      -8.623   3.904  72.157  1.00  0.00    -0.100 A  
HETATM   12  C   UNL     1     -10.322   4.996  70.213  1.00  0.00    -0.299 A  
HETATM   13  C   UNL     1      -8.469   3.587  70.804  1.00  0.00    -0.069 A  
HETATM   14  H   UNL     1      -7.357   2.538  69.483  1.00  0.00     0.000 HD 
HETATM   15  C   UNL     1      -9.308   4.117  69.834  1.00  0.00    -0.235 A  
BRANCH  11  16
HETATM   16  O   UNL     1      -7.713   3.321  73.000  1.00  0.00    -0.058 OA 
HETATM   17  C   UNL     1      -7.111   4.170  73.971  1.00  0.00    -0.062 C  
ENDBRANCH  11  16
ENDBRANCH   2   8
TORSDOF 5
ENDMDL
MODEL      162
REMARK 921   NORMALIZED FREE ENERGY PREDICTED BY IDOCK:   -3.20 KCAL/MOL
REMARK 922        TOTAL FREE ENERGY PREDICTED BY IDOCK:   -4.50 KCAL/MOL
REMARK 923 INTER-LIGAND FREE ENERGY PREDICTED BY IDOCK:   -4.16 KCAL/MOL
REMARK 924 INTRA-LIGAND FREE ENERGY PREDICTED BY IDOCK:   -0.34 KCAL/MOL
REMARK 927      BINDING AFFINITY PREDICTED BY RF-SCORE:    0.00 PKD
ROOT
HETATM    1  C   UNL     1     -10.340   8.917  66.649  1.00  0.00    -0.294 C  
HETATM    2  C   UNL     1     -10.040   9.943  67.459  1.00  0.00    -0.244 C  
ENDROOT
BRANCH   1   3
HETATM    3  C   UNL     1      -9.954   7.518  66.931  1.00  0.00    -0.248 C  
HETATM    4  O   UNL     1     -10.528   6.848  67.775  1.00  0.00    -0.184 OA 
BRANCH   3   5
HETATM    5  O   UNL     1      -8.849   7.162  66.232  1.00  0.00    -0.140 OA 
BRANCH   5   6
HETATM    6  C   UNL     1      -7.604   7.330  66.921  1.00  0.00    -0.105 C  
HETATM    7  C   UNL     1      -6.490   7.303  65.888  1.00  0.00    -0.045 C  
ENDBRANCH   5   6
ENDBRANCH   3   5
ENDBRANCH   1   3
BRANCH   2   8
HETATM    8  C   UNL     1     -10.534  11.316  67.288  1.00  0.00    -0.249 A  
HETATM    9  O   UNL     1     -11.708  15.216  66.480  1.00  0.00    -0.202 OA 
HETATM   10  C   UNL     1     -11.440  11.572  66.244  1.00  0.00    -0.124 A  
HETATM   11  C   UNL     1     -11.849  12.877  65.964  1.00  0.00    -0.430 A  
HETATM   12  C   UNL     1     -10.043  12.386  68.051  1.00  0.00    -0.214 A  
HETATM   13  C   UNL     1     -11.346  13.923  66.744  1.00  0.00    -0.333 A  
HETATM   14  H   UNL     1     -11.366  15.926  67.009  1.00  0.00     0.000 HD 
HETATM   15  C   UNL     1     -10.455  13.691  67.783  1.00  0.00    -0.241 A  
BRANCH  11  16
HETATM   16  O   UNL     1     -12.706  13.256  64.963  1.00  0.00    -0.623 OA 
HETATM   17  C   UNL     1     -12.254  13.048  63.629  1.00  0.00    -0.491 C  
ENDBRANCH  11  16
ENDBRANCH   2   8
TORSDOF 5
ENDMDL
MODEL      163
REMARK 921   NORMALIZED FREE ENERGY PREDICTED BY IDOCK:   -3.19 KCAL/MOL
REMARK 922        TOTAL FREE ENERGY PREDICTED BY IDOCK:   -4.49 KCAL/MOL
REMARK 923 INTER-LIGAND FREE ENERGY PREDICTED BY IDOCK:   -4.14 KCAL/MOL
REMARK 924 INTRA-LIGAND FREE ENERGY PREDICTED BY IDOCK:   -0.36 KCAL/MOL
REMARK 927      BINDING AFFINITY PREDICTED BY RF-SCORE:    0.00 PKD
ROOT
HETATM    1  C   UNL     1     -10.249  10.840  65.699  1.00  0.00    -0.320 C  
HETATM    2  C   UNL     1      -9.258   9.938  65.768  1.00  0.00    -0.228 C  
ENDROOT
BRANCH   1   3
HETATM    3  C   UNL     1     -10.077  12.194  65.132  1.00  0.00    -0.261 C  
HETATM    4  O   UNL     1     -10.083  12.395  63.927  1.00  0.00    -0.376 OA 
BRANCH   3   5
HETATM    5  O   UNL     1      -9.808  13.103  66.099  1.00  0.00    -0.281 OA 
BRANCH   5   6
HETATM    6  C   UNL     1     -10.644  14.267  66.101  1.00  0.00    -0.293 C  
HETATM    7  C   UNL     1     -11.815  14.002  67.030  1.00  0.00    -0.458 C  
ENDBRANCH   5   6
ENDBRANCH   3   5
ENDBRANCH   1   3
BRANCH   2   8
HETATM    8  C   UNL     1      -9.427   8.540  66.185  1.00  0.00    -0.286 A  
HETATM    9  O   UNL     1     -10.050   4.518  67.005  1.00  0.00    -0.199 OA 
HETATM   10  C   UNL     1      -8.568   7.573  65.636  1.00  0.00    -0.131 A  
HETATM   11  C   UNL     1      -8.761   6.218  65.907  1.00  0.00    -0.149 A  
HETATM   12  C   UNL     1     -10.483   8.132  67.014  1.00  0.00    -0.396 A  
HETATM   13  C   UNL     1      -9.819   5.840  66.739  1.00  0.00    -0.162 A  
HETATM   14  H   UNL     1     -10.769   4.261  67.570  1.00  0.00     0.000 HD 
HETATM   15  C   UNL     1     -10.675   6.780  67.297  1.00  0.00    -0.423 A  
BRANCH  11  16
HETATM   16  O   UNL     1      -8.009   5.182  65.414  1.00  0.00    -0.103 OA 
HETATM   17  C   UNL     1      -7.655   5.254  64.037  1.00  0.00    -0.071 C  
ENDBRANCH  11  16
ENDBRANCH   2   8
TORSDOF 5
ENDMDL
MODEL      164
REMARK 921   NORMALIZED FREE ENERGY PREDICTED BY IDOCK:   -3.19 KCAL/MOL
REMARK 922        TOTAL FREE ENERGY PREDICTED BY IDOCK:   -4.49 KCAL/MOL
REMARK 923 INTER-LIGAND FREE ENERGY PREDICTED BY IDOCK:   -4.14 KCAL/MOL
REMARK 924 INTRA-LIGAND FREE ENERGY PREDICTED BY IDOCK:   -0.35 KCAL/MOL
REMARK 927      BINDING AFFINITY PREDICTED BY RF-SCORE:    0.00 PKD
ROOT
HETATM    1  C   UNL     1      -7.796   8.401  72.930  1.00  0.00    -0.143 C  
HETATM    2  C   UNL     1      -8.286   8.642  71.705  1.00  0.00    -0.199 C  
ENDROOT
BRANCH   1   3
HETATM    3  C   UNL     1      -6.351   8.307  73.225  1.00  0.00    -0.102 C  
HETATM    4  O   UNL     1      -5.666   9.300  73.417  1.00  0.00    -0.245 OA 
BRANCH   3   5
HETATM    5  O   UNL     1      -5.911   7.030  73.133  1.00  0.00    -0.048 OA 
BRANCH   5   6
HETATM    6  C   UNL     1      -5.810   6.322  74.375  1.00  0.00    -0.063 C  
HETATM    7  C   UNL     1      -6.715   5.105  74.295  1.00  0.00    -0.076 C  
ENDBRANCH   5   6
ENDBRANCH   3   5
ENDBRANCH   1   3
BRANCH   2   8
HETATM    8  C   UNL     1      -9.702   8.889  71.403  1.00  0.00    -0.370 A  
HETATM    9  O   UNL     1     -13.650   9.952  70.683  1.00  0.00    -0.574 OA 
HETATM   10  C   UNL     1     -10.016   9.717  70.311  1.00  0.00    -0.326 A  
HETATM   11  C   UNL     1     -11.339  10.078  70.053  1.00  0.00    -0.275 A  
HETATM   12  C   UNL     1     -10.733   8.425  72.234  1.00  0.00    -0.417 A  
HETATM   13  C   UNL     1     -12.346   9.597  70.895  1.00  0.00    -0.263 A  
HETATM   14  H   UNL     1     -14.335   9.626  71.255  1.00  0.00     0.000 HD 
HETATM   15  C   UNL     1     -12.058   8.773  71.975  1.00  0.00    -0.447 A  
BRANCH  11  16
HETATM   16  O   UNL     1     -11.768  10.894  69.038  1.00  0.00    -0.295 OA 
HETATM   17  C   UNL     1     -11.529  12.288  69.201  1.00  0.00    -0.296 C  
ENDBRANCH  11  16
ENDBRANCH   2   8
TORSDOF 5
ENDMDL
MODEL      165
REMARK 921   NORMALIZED FREE ENERGY PREDICTED BY IDOCK:   -3.18 KCAL/MOL
REMARK 922        TOTAL FREE ENERGY PREDICTED BY IDOCK:   -4.48 KCAL/MOL
REMARK 923 INTER-LIGAND FREE ENERGY PREDICTED BY IDOCK:   -4.11 KCAL/MOL
REMARK 924 INTRA-LIGAND FREE ENERGY PREDICTED BY IDOCK:   -0.36 KCAL/MOL
REMARK 927      BINDING AFFINITY PREDICTED BY RF-SCORE:    0.00 PKD
ROOT
HETATM    1  C   UNL     1     -10.044   4.930  66.760  1.00  0.00    -0.269 C  
HETATM    2  C   UNL     1     -10.878   5.941  67.047  1.00  0.00    -0.379 C  
ENDROOT
BRANCH   1   3
HETATM    3  C   UNL     1     -10.033   4.230  65.459  1.00  0.00    -0.225 C  
HETATM    4  O   UNL     1     -10.999   4.241  64.712  1.00  0.00    -0.249 OA 
BRANCH   3   5
HETATM    5  O   UNL     1      -8.893   3.516  65.293  1.00  0.00    -0.115 OA 
BRANCH   5   6
HETATM    6  C   UNL     1      -8.204   3.734  64.056  1.00  0.00    -0.090 C  
HETATM    7  C   UNL     1      -7.482   5.066  64.151  1.00  0.00    -0.064 C  
ENDBRANCH   5   6
ENDBRANCH   3   5
ENDBRANCH   1   3
BRANCH   2   8
HETATM    8  C   UNL     1     -10.818   6.755  68.269  1.00  0.00    -0.290 A  
HETATM    9  O   UNL     1     -11.031   9.117  71.676  1.00  0.00    -0.335 OA 
HETATM   10  C   UNL     1     -11.402   6.242  69.440  1.00  0.00    -0.448 A  
HETATM   11  C   UNL     1     -11.476   7.022  70.595  1.00  0.00    -0.324 A  
HETATM   12  C   UNL     1     -10.304   8.061  68.270  1.00  0.00    -0.240 A  
HETATM   13  C   UNL     1     -10.953   8.319  70.568  1.00  0.00    -0.242 A  
HETATM   14  H   UNL     1     -10.676   9.997  71.658  1.00  0.00     0.000 HD 
HETATM   15  C   UNL     1     -10.366   8.841  69.424  1.00  0.00    -0.217 A  
BRANCH  11  16
HETATM   16  O   UNL     1     -12.040   6.645  71.787  1.00  0.00    -0.331 OA 
HETATM   17  C   UNL     1     -11.335   5.664  72.540  1.00  0.00    -0.294 C  
ENDBRANCH  11  16
ENDBRANCH   2   8
TORSDOF 5
ENDMDL
MODEL      166
REMARK 921   NORMALIZED FREE ENERGY PREDICTED BY IDOCK:   -3.13 KCAL/MOL
REMARK 922        TOTAL FREE ENERGY PREDICTED BY IDOCK:   -4.41 KCAL/MOL
REMARK 923 INTER-LIGAND FREE ENERGY PREDICTED BY IDOCK:   -4.15 KCAL/MOL
REMARK 924 INTRA-LIGAND FREE ENERGY PREDICTED BY IDOCK:   -0.26 KCAL/MOL
REMARK 927      BINDING AFFINITY PREDICTED BY RF-SCORE:    0.00 PKD
ROOT
HETATM    1  C   UNL     1      -9.678   9.605  70.261  1.00  0.00    -0.314 C  
HETATM    2  C   UNL     1     -10.727  10.423  70.085  1.00  0.00    -0.292 C  
ENDROOT
BRANCH   1   3
HETATM    3  C   UNL     1      -9.698   8.440  71.171  1.00  0.00    -0.186 C  
HETATM    4  O   UNL     1      -9.531   8.559  72.375  1.00  0.00    -0.273 OA 
BRANCH   3   5
HETATM    5  O   UNL     1      -9.804   7.278  70.482  1.00  0.00    -0.183 OA 
BRANCH   5   6
HETATM    6  C   UNL     1     -11.132   6.915  70.087  1.00  0.00    -0.299 C  
HETATM    7  C   UNL     1     -11.933   6.625  71.344  1.00  0.00    -0.405 C  
ENDBRANCH   5   6
ENDBRANCH   3   5
ENDBRANCH   1   3
BRANCH   2   8
HETATM    8  C   UNL     1     -10.793  11.495  69.084  1.00  0.00    -0.241 A  
HETATM    9  O   UNL     1     -10.792  14.754  66.512  1.00  0.00    -0.307 OA 
HETATM   10  C   UNL     1      -9.605  11.874  68.434  1.00  0.00    -0.196 A  
HETATM   11  C   UNL     1      -9.591  12.963  67.563  1.00  0.00    -0.200 A  
HETATM   12  C   UNL     1     -11.969  12.222  68.847  1.00  0.00    -0.300 A  
HETATM   13  C   UNL     1     -10.778  13.667  67.342  1.00  0.00    -0.267 A  
HETATM   14  H   UNL     1     -11.599  15.233  66.362  1.00  0.00     0.000 HD 
HETATM   15  C   UNL     1     -11.964  13.306  67.969  1.00  0.00    -0.351 A  
BRANCH  11  16
HETATM   16  O   UNL     1      -8.496  13.443  66.890  1.00  0.00    -0.160 OA 
HETATM   17  C   UNL     1      -7.336  13.706  67.673  1.00  0.00    -0.176 C  
ENDBRANCH  11  16
ENDBRANCH   2   8
TORSDOF 5
ENDMDL
MODEL      167
REMARK 921   NORMALIZED FREE ENERGY PREDICTED BY IDOCK:   -3.11 KCAL/MOL
REMARK 922        TOTAL FREE ENERGY PREDICTED BY IDOCK:   -4.39 KCAL/MOL
REMARK 923 INTER-LIGAND FREE ENERGY PREDICTED BY IDOCK:   -4.03 KCAL/MOL
REMARK 924 INTRA-LIGAND FREE ENERGY PREDICTED BY IDOCK:   -0.36 KCAL/MOL
REMARK 927      BINDING AFFINITY PREDICTED BY RF-SCORE:    0.00 PKD
ROOT
HETATM    1  C   UNL     1      -9.820   5.561  67.026  1.00  0.00    -0.176 C  
HETATM    2  C   UNL     1     -10.610   6.629  66.843  1.00  0.00    -0.376 C  
ENDROOT
BRANCH   1   3
HETATM    3  C   UNL     1      -9.991   4.288  66.295  1.00  0.00    -0.211 C  
HETATM    4  O   UNL     1      -9.474   3.250  66.677  1.00  0.00    -0.173 OA 
BRANCH   3   5
HETATM    5  O   UNL     1     -10.670   4.472  65.137  1.00  0.00    -0.218 OA 
BRANCH   5   6
HETATM    6  C   UNL     1     -10.573   3.402  64.189  1.00  0.00    -0.159 C  
HETATM    7  C   UNL     1      -9.543   3.795  63.144  1.00  0.00    -0.132 C  
ENDBRANCH   5   6
ENDBRANCH   3   5
ENDBRANCH   1   3
BRANCH   2   8
HETATM    8  C   UNL     1     -10.380   7.952  67.439  1.00  0.00    -0.349 A  
HETATM    9  O   UNL     1     -10.106  11.684  69.237  1.00  0.00    -0.415 OA 
HETATM   10  C   UNL     1     -10.335   8.052  68.840  1.00  0.00    -0.222 A  
HETATM   11  C   UNL     1     -10.237   9.299  69.459  1.00  0.00    -0.207 A  
HETATM   12  C   UNL     1     -10.324   9.120  66.663  1.00  0.00    -0.289 A  
HETATM   13  C   UNL     1     -10.179  10.445  68.661  1.00  0.00    -0.181 A  
HETATM   14  H   UNL     1     -10.067  12.463  68.695  1.00  0.00     0.000 HD 
HETATM   15  C   UNL     1     -10.216  10.368  67.275  1.00  0.00    -0.258 A  
BRANCH  11  16
HETATM   16  O   UNL     1     -10.207   9.528  70.811  1.00  0.00    -0.275 OA 
HETATM   17  C   UNL     1     -11.422   9.303  71.519  1.00  0.00    -0.384 C  
ENDBRANCH  11  16
ENDBRANCH   2   8
TORSDOF 5
ENDMDL
MODEL      168
REMARK 921   NORMALIZED FREE ENERGY PREDICTED BY IDOCK:   -3.11 KCAL/MOL
REMARK 922        TOTAL FREE ENERGY PREDICTED BY IDOCK:   -4.38 KCAL/MOL
REMARK 923 INTER-LIGAND FREE ENERGY PREDICTED BY IDOCK:   -4.30 KCAL/MOL
REMARK 924 INTRA-LIGAND FREE ENERGY PREDICTED BY IDOCK:   -0.08 KCAL/MOL
REMARK 927      BINDING AFFINITY PREDICTED BY RF-SCORE:    0.00 PKD
ROOT
HETATM    1  C   UNL     1     -10.905  10.717  66.632  1.00  0.00    -0.228 C  
HETATM    2  C   UNL     1      -9.864  10.533  67.457  1.00  0.00    -0.196 C  
ENDROOT
BRANCH   1   3
HETATM    3  C   UNL     1     -11.044  11.894  65.748  1.00  0.00    -0.317 C  
HETATM    4  O   UNL     1     -10.106  12.322  65.093  1.00  0.00    -0.271 OA 
BRANCH   3   5
HETATM    5  O   UNL     1     -12.269  12.458  65.867  1.00  0.00    -0.629 OA 
BRANCH   5   6
HETATM    6  C   UNL     1     -12.283  13.888  65.955  1.00  0.00    -0.467 C  
HETATM    7  C   UNL     1     -12.297  14.445  64.542  1.00  0.00    -0.440 C  
ENDBRANCH   5   6
ENDBRANCH   3   5
ENDBRANCH   1   3
BRANCH   2   8
HETATM    8  C   UNL     1      -9.619   9.311  68.235  1.00  0.00    -0.160 A  
HETATM    9  O   UNL     1      -8.848   6.091  70.740  1.00  0.00    -0.136 OA 
HETATM   10  C   UNL     1     -10.556   8.949  69.218  1.00  0.00    -0.219 A  
HETATM   11  C   UNL     1     -10.314   7.866  70.064  1.00  0.00    -0.221 A  
HETATM   12  C   UNL     1      -8.434   8.570  68.108  1.00  0.00    -0.134 A  
HETATM   13  C   UNL     1      -9.126   7.144  69.912  1.00  0.00    -0.141 A  
HETATM   14  H   UNL     1      -8.041   5.601  70.637  1.00  0.00     0.000 HD 
HETATM   15  C   UNL     1      -8.191   7.481  68.943  1.00  0.00    -0.128 A  
BRANCH  11  16
HETATM   16  O   UNL     1     -11.135   7.431  71.072  1.00  0.00    -0.248 OA 
HETATM   17  C   UNL     1     -11.381   8.349  72.131  1.00  0.00    -0.366 C  
ENDBRANCH  11  16
ENDBRANCH   2   8
TORSDOF 5
ENDMDL
MODEL      169
REMARK 921   NORMALIZED FREE ENERGY PREDICTED BY IDOCK:   -3.07 KCAL/MOL
REMARK 922        TOTAL FREE ENERGY PREDICTED BY IDOCK:   -4.34 KCAL/MOL
REMARK 923 INTER-LIGAND FREE ENERGY PREDICTED BY IDOCK:   -4.00 KCAL/MOL
REMARK 924 INTRA-LIGAND FREE ENERGY PREDICTED BY IDOCK:   -0.34 KCAL/MOL
REMARK 927      BINDING AFFINITY PREDICTED BY RF-SCORE:    0.00 PKD
ROOT
HETATM    1  C   UNL     1      -9.075   8.027  67.625  1.00  0.00    -0.144 C  
HETATM    2  C   UNL     1      -9.941   7.233  68.273  1.00  0.00    -0.177 C  
ENDROOT
BRANCH   1   3
HETATM    3  C   UNL     1      -8.570   7.741  66.266  1.00  0.00    -0.150 C  
HETATM    4  O   UNL     1      -8.685   8.544  65.353  1.00  0.00    -0.175 OA 
BRANCH   3   5
HETATM    5  O   UNL     1      -8.098   6.475  66.171  1.00  0.00    -0.108 OA 
BRANCH   5   6
HETATM    6  C   UNL     1      -8.428   5.783  64.960  1.00  0.00    -0.124 C  
HETATM    7  C   UNL     1      -7.937   4.352  65.089  1.00  0.00    -0.097 C  
ENDBRANCH   5   6
ENDBRANCH   3   5
ENDBRANCH   1   3
BRANCH   2   8
HETATM    8  C   UNL     1     -10.576   7.559  69.557  1.00  0.00    -0.239 A  
HETATM    9  O   UNL     1     -12.708   8.357  73.029  1.00  0.00    -0.697 OA 
HETATM   10  C   UNL     1     -10.983   6.500  70.386  1.00  0.00    -0.353 A  
HETATM   11  C   UNL     1     -11.696   6.753  71.559  1.00  0.00    -0.317 A  
HETATM   12  C   UNL     1     -10.889   8.878  69.919  1.00  0.00    -0.219 A  
HETATM   13  C   UNL     1     -11.991   8.077  71.898  1.00  0.00    -0.314 A  
HETATM   14  H   UNL     1     -12.909   9.256  73.259  1.00  0.00     0.000 HD 
HETATM   15  C   UNL     1     -11.592   9.138  71.096  1.00  0.00    -0.386 A  
BRANCH  11  16
HETATM   16  O   UNL     1     -12.167   5.809  72.435  1.00  0.00    -0.207 OA 
HETATM   17  C   UNL     1     -11.202   4.924  72.994  1.00  0.00    -0.289 C  
ENDBRANCH  11  16
ENDBRANCH   2   8
TORSDOF 5
ENDMDL
MODEL      170
REMARK 921   NORMALIZED FREE ENERGY PREDICTED BY IDOCK:   -3.07 KCAL/MOL
REMARK 922        TOTAL FREE ENERGY PREDICTED BY IDOCK:   -4.34 KCAL/MOL
REMARK 923 INTER-LIGAND FREE ENERGY PREDICTED BY IDOCK:   -4.06 KCAL/MOL
REMARK 924 INTRA-LIGAND FREE ENERGY PREDICTED BY IDOCK:   -0.27 KCAL/MOL
REMARK 927      BINDING AFFINITY PREDICTED BY RF-SCORE:    0.00 PKD
ROOT
HETATM    1  C   UNL     1      -9.466  15.388  66.891  1.00  0.00    -0.246 C  
HETATM    2  C   UNL     1      -8.967  14.269  67.435  1.00  0.00    -0.205 C  
ENDROOT
BRANCH   1   3
HETATM    3  C   UNL     1      -9.003  16.745  67.251  1.00  0.00    -0.212 C  
HETATM    4  O   UNL     1      -7.932  16.934  67.807  1.00  0.00    -0.175 OA 
BRANCH   3   5
HETATM    5  O   UNL     1      -9.953  17.675  66.993  1.00  0.00    -0.295 OA 
BRANCH   5   6
HETATM    6  C   UNL     1      -9.464  18.990  66.699  1.00  0.00    -0.342 C  
HETATM    7  C   UNL     1     -10.660  19.883  66.421  1.00  0.00    -0.532 C  
ENDBRANCH   5   6
ENDBRANCH   3   5
ENDBRANCH   1   3
BRANCH   2   8
HETATM    8  C   UNL     1      -9.295  12.906  66.995  1.00  0.00    -0.235 A  
HETATM    9  O   UNL     1      -9.838   8.999  65.701  1.00  0.00    -0.461 OA 
HETATM   10  C   UNL     1      -8.972  11.836  67.847  1.00  0.00    -0.180 A  
HETATM   11  C   UNL     1      -9.154  10.517  67.428  1.00  0.00    -0.139 A  
HETATM   12  C   UNL     1      -9.808  12.638  65.716  1.00  0.00    -0.236 A  
HETATM   13  C   UNL     1      -9.670  10.280  66.150  1.00  0.00    -0.211 A  
HETATM   14  H   UNL     1     -10.188   8.838  64.833  1.00  0.00     0.000 HD 
HETATM   15  C   UNL     1     -10.002  11.323  65.296  1.00  0.00    -0.301 A  
BRANCH  11  16
HETATM   16  O   UNL     1      -8.856   9.392  68.154  1.00  0.00    -0.124 OA 
HETATM   17  C   UNL     1      -9.532   9.242  69.398  1.00  0.00    -0.168 C  
ENDBRANCH  11  16
ENDBRANCH   2   8
TORSDOF 5
ENDMDL
MODEL      171
REMARK 921   NORMALIZED FREE ENERGY PREDICTED BY IDOCK:   -3.04 KCAL/MOL
REMARK 922        TOTAL FREE ENERGY PREDICTED BY IDOCK:   -4.30 KCAL/MOL
REMARK 923 INTER-LIGAND FREE ENERGY PREDICTED BY IDOCK:   -3.86 KCAL/MOL
REMARK 924 INTRA-LIGAND FREE ENERGY PREDICTED BY IDOCK:   -0.44 KCAL/MOL
REMARK 927      BINDING AFFINITY PREDICTED BY RF-SCORE:    0.00 PKD
ROOT
HETATM    1  C   UNL     1      -8.887  17.059  66.165  1.00  0.00    -0.251 C  
HETATM    2  C   UNL     1     -10.012  16.449  66.567  1.00  0.00    -0.294 C  
ENDROOT
BRANCH   1   3
HETATM    3  C   UNL     1      -8.524  18.436  66.558  1.00  0.00    -0.270 C  
HETATM    4  O   UNL     1      -7.809  18.665  67.522  1.00  0.00    -0.228 OA 
BRANCH   3   5
HETATM    5  O   UNL     1      -9.170  19.353  65.798  1.00  0.00    -0.379 OA 
BRANCH   5   6
HETATM    6  C   UNL     1      -9.937  20.323  66.522  1.00  0.00    -0.397 C  
HETATM    7  C   UNL     1     -11.405  19.961  66.381  1.00  0.00     0.518 C  
ENDBRANCH   5   6
ENDBRANCH   3   5
ENDBRANCH   1   3
BRANCH   2   8
HETATM    8  C   UNL     1     -10.333  15.037  66.320  1.00  0.00    -0.304 A  
HETATM    9  O   UNL     1     -10.856  10.970  65.667  1.00  0.00    -0.198 OA 
HETATM   10  C   UNL     1     -10.272  14.141  67.401  1.00  0.00    -0.244 A  
HETATM   11  C   UNL     1     -10.451  12.772  67.199  1.00  0.00    -0.233 A  
HETATM   12  C   UNL     1     -10.579  14.543  65.030  1.00  0.00    -0.458 A  
HETATM   13  C   UNL     1     -10.699  12.308  65.903  1.00  0.00    -0.258 A  
HETATM   14  H   UNL     1     -11.024  10.655  64.788  1.00  0.00     0.000 HD 
HETATM   15  C   UNL     1     -10.770  13.177  64.822  1.00  0.00    -0.381 A  
BRANCH  11  16
HETATM   16  O   UNL     1     -10.392  11.800  68.164  1.00  0.00    -0.187 OA 
HETATM   17  C   UNL     1     -11.515  11.698  69.032  1.00  0.00    -0.294 C  
ENDBRANCH  11  16
ENDBRANCH   2   8
TORSDOF 5
ENDMDL
MODEL      172
REMARK 921   NORMALIZED FREE ENERGY PREDICTED BY IDOCK:   -3.02 KCAL/MOL
REMARK 922        TOTAL FREE ENERGY PREDICTED BY IDOCK:   -4.27 KCAL/MOL
REMARK 923 INTER-LIGAND FREE ENERGY PREDICTED BY IDOCK:   -3.90 KCAL/MOL
REMARK 924 INTRA-LIGAND FREE ENERGY PREDICTED BY IDOCK:   -0.38 KCAL/MOL
REMARK 927      BINDING AFFINITY PREDICTED BY RF-SCORE:    0.00 PKD
ROOT
HETATM    1  C   UNL     1      -9.661   5.920  66.949  1.00  0.00    -0.156 C  
HETATM    2  C   UNL     1     -10.700   6.762  67.057  1.00  0.00    -0.435 C  
ENDROOT
BRANCH   1   3
HETATM    3  C   UNL     1      -9.687   4.700  66.116  1.00  0.00    -0.203 C  
HETATM    4  O   UNL     1     -10.611   4.458  65.355  1.00  0.00    -0.268 OA 
BRANCH   3   5
HETATM    5  O   UNL     1      -8.645   3.884  66.405  1.00  0.00    -0.108 OA 
BRANCH   5   6
HETATM    6  C   UNL     1      -8.487   3.552  67.790  1.00  0.00    -0.095 C  
HETATM    7  C   UNL     1      -7.002   3.546  68.104  1.00  0.00    -0.050 C  
ENDBRANCH   5   6
ENDBRANCH   3   5
ENDBRANCH   1   3
BRANCH   2   8
HETATM    8  C   UNL     1     -10.660   8.056  67.752  1.00  0.00    -0.239 A  
HETATM    9  O   UNL     1     -10.916  11.641  69.830  1.00  0.00    -0.469 OA 
HETATM   10  C   UNL     1     -10.614   8.055  69.157  1.00  0.00    -0.181 A  
HETATM   11  C   UNL     1     -10.693   9.252  69.869  1.00  0.00    -0.234 A  
HETATM   12  C   UNL     1     -10.783   9.275  67.068  1.00  0.00    -0.199 A  
HETATM   13  C   UNL     1     -10.812  10.452  69.161  1.00  0.00    -0.236 A  
HETATM   14  H   UNL     1     -10.997  12.456  69.350  1.00  0.00     0.000 HD 
HETATM   15  C   UNL     1     -10.852  10.475  67.774  1.00  0.00    -0.347 A  
BRANCH  11  16
HETATM   16  O   UNL     1     -10.684   9.380  71.235  1.00  0.00    -0.316 OA 
HETATM   17  C   UNL     1     -11.574   8.536  71.957  1.00  0.00    -0.362 C  
ENDBRANCH  11  16
ENDBRANCH   2   8
TORSDOF 5
ENDMDL
MODEL      173
REMARK 921   NORMALIZED FREE ENERGY PREDICTED BY IDOCK:   -3.02 KCAL/MOL
REMARK 922        TOTAL FREE ENERGY PREDICTED BY IDOCK:   -4.27 KCAL/MOL
REMARK 923 INTER-LIGAND FREE ENERGY PREDICTED BY IDOCK:   -3.96 KCAL/MOL
REMARK 924 INTRA-LIGAND FREE ENERGY PREDICTED BY IDOCK:   -0.31 KCAL/MOL
REMARK 927      BINDING AFFINITY PREDICTED BY RF-SCORE:    0.00 PKD
ROOT
HETATM    1  C   UNL     1      -9.924  12.022  65.848  1.00  0.00    -0.260 C  
HETATM    2  C   UNL     1     -10.066  11.253  66.939  1.00  0.00    -0.246 C  
ENDROOT
BRANCH   1   3
HETATM    3  C   UNL     1     -10.108  13.488  65.856  1.00  0.00    -0.303 C  
HETATM    4  O   UNL     1     -10.033  14.142  66.886  1.00  0.00    -0.250 OA 
BRANCH   3   5
HETATM    5  O   UNL     1     -10.470  13.947  64.634  1.00  0.00    -0.425 OA 
BRANCH   5   6
HETATM    6  C   UNL     1     -11.877  13.939  64.366  1.00  0.00    -0.429 C  
HETATM    7  C   UNL     1     -12.142  12.910  63.280  1.00  0.00    -0.520 C  
ENDBRANCH   5   6
ENDBRANCH   3   5
ENDBRANCH   1   3
BRANCH   2   8
HETATM    8  C   UNL     1      -9.747   9.821  67.001  1.00  0.00    -0.233 A  
HETATM    9  O   UNL     1      -8.919   5.758  66.791  1.00  0.00    -0.115 OA 
HETATM   10  C   UNL     1      -8.545   9.381  66.421  1.00  0.00    -0.144 A  
HETATM   11  C   UNL     1      -8.250   8.019  66.348  1.00  0.00    -0.113 A  
HETATM   12  C   UNL     1     -10.652   8.877  67.510  1.00  0.00    -0.307 A  
HETATM   13  C   UNL     1      -9.168   7.101  66.867  1.00  0.00    -0.148 A  
HETATM   14  H   UNL     1      -9.542   5.135  67.143  1.00  0.00     0.000 HD 
HETATM   15  C   UNL     1     -10.358   7.515  67.450  1.00  0.00    -0.346 A  
BRANCH  11  16
HETATM   16  O   UNL     1      -7.126   7.467  65.789  1.00  0.00    -0.063 OA 
HETATM   17  C   UNL     1      -6.538   8.183  64.708  1.00  0.00    -0.059 C  
ENDBRANCH  11  16
ENDBRANCH   2   8
TORSDOF 5
ENDMDL
MODEL      174
REMARK 921   NORMALIZED FREE ENERGY PREDICTED BY IDOCK:   -3.01 KCAL/MOL
REMARK 922        TOTAL FREE ENERGY PREDICTED BY IDOCK:   -4.26 KCAL/MOL
REMARK 923 INTER-LIGAND FREE ENERGY PREDICTED BY IDOCK:   -3.91 KCAL/MOL
REMARK 924 INTRA-LIGAND FREE ENERGY PREDICTED BY IDOCK:   -0.34 KCAL/MOL
REMARK 927      BINDING AFFINITY PREDICTED BY RF-SCORE:    0.00 PKD
ROOT
HETATM    1  C   UNL     1     -11.446   6.427  70.353  1.00  0.00    -0.458 C  
HETATM    2  C   UNL     1     -10.987   7.420  69.575  1.00  0.00    -0.155 C  
ENDROOT
BRANCH   1   3
HETATM    3  C   UNL     1     -12.282   6.652  71.550  1.00  0.00    -0.340 C  
HETATM    4  O   UNL     1     -13.328   7.280  71.497  1.00  0.00    -0.379 OA 
BRANCH   3   5
HETATM    5  O   UNL     1     -11.678   6.183  72.668  1.00  0.00    -0.246 OA 
BRANCH   5   6
HETATM    6  C   UNL     1     -10.644   5.216  72.451  1.00  0.00    -0.221 C  
HETATM    7  C   UNL     1     -10.732   4.179  73.556  1.00  0.00    -0.310 C  
ENDBRANCH   5   6
ENDBRANCH   3   5
ENDBRANCH   1   3
BRANCH   2   8
HETATM    8  C   UNL     1     -10.282   7.227  68.301  1.00  0.00    -0.208 A  
HETATM    9  O   UNL     1      -8.623   6.790  64.520  1.00  0.00    -0.347 OA 
HETATM   10  C   UNL     1      -9.937   8.365  67.553  1.00  0.00    -0.259 A  
HETATM   11  C   UNL     1      -9.373   8.234  66.283  1.00  0.00    -0.204 A  
HETATM   12  C   UNL     1     -10.053   5.952  67.761  1.00  0.00    -0.190 A  
HETATM   13  C   UNL     1      -9.153   6.952  65.771  1.00  0.00     0.060 A  
HETATM   14  H   UNL     1      -8.474   5.919  64.172  1.00  0.00     0.000 HD 
HETATM   15  C   UNL     1      -9.481   5.815  66.497  1.00  0.00    -0.168 A  
BRANCH  11  16
HETATM   16  O   UNL     1      -9.016   9.263  65.449  1.00  0.00    -0.182 OA 
HETATM   17  C   UNL     1     -10.030  10.216  65.147  1.00  0.00    -0.309 C  
ENDBRANCH  11  16
ENDBRANCH   2   8
TORSDOF 5
ENDMDL
MODEL      175
REMARK 921   NORMALIZED FREE ENERGY PREDICTED BY IDOCK:   -3.00 KCAL/MOL
REMARK 922        TOTAL FREE ENERGY PREDICTED BY IDOCK:   -4.24 KCAL/MOL
REMARK 923 INTER-LIGAND FREE ENERGY PREDICTED BY IDOCK:   -3.80 KCAL/MOL
REMARK 924 INTRA-LIGAND FREE ENERGY PREDICTED BY IDOCK:   -0.44 KCAL/MOL
REMARK 927      BINDING AFFINITY PREDICTED BY RF-SCORE:    0.00 PKD
ROOT
HETATM    1  C   UNL     1      -7.881   9.576  67.155  1.00  0.00    -0.095 C  
HETATM    2  C   UNL     1      -9.070   9.521  66.536  1.00  0.00    -0.185 C  
ENDROOT
BRANCH   1   3
HETATM    3  C   UNL     1      -6.829   8.550  66.989  1.00  0.00    -0.067 C  
HETATM    4  O   UNL     1      -5.654   8.849  66.844  1.00  0.00    -0.040 OA 
BRANCH   3   5
HETATM    5  O   UNL     1      -7.362   7.307  66.906  1.00  0.00    -0.087 OA 
BRANCH   5   6
HETATM    6  C   UNL     1      -6.824   6.475  65.872  1.00  0.00    -0.053 C  
HETATM    7  C   UNL     1      -7.935   6.188  64.876  1.00  0.00    -0.123 C  
ENDBRANCH   5   6
ENDBRANCH   3   5
ENDBRANCH   1   3
BRANCH   2   8
HETATM    8  C   UNL     1     -10.075  10.592  66.559  1.00  0.00    -0.280 A  
HETATM    9  O   UNL     1     -12.623  13.869  66.561  1.00  0.00    -0.448 OA 
HETATM   10  C   UNL     1     -10.406  11.221  65.347  1.00  0.00    -0.328 A  
HETATM   11  C   UNL     1     -11.266  12.320  65.331  1.00  0.00    -0.328 A  
HETATM   12  C   UNL     1     -10.620  11.077  67.758  1.00  0.00    -0.250 A  
HETATM   13  C   UNL     1     -11.796  12.780  66.540  1.00  0.00    -0.405 A  
HETATM   14  H   UNL     1     -12.984  14.182  67.382  1.00  0.00     0.000 HD 
HETATM   15  C   UNL     1     -11.488  12.168  67.747  1.00  0.00    -0.398 A  
BRANCH  11  16
HETATM   16  O   UNL     1     -11.644  13.031  64.221  1.00  0.00    -0.345 OA 
HETATM   17  C   UNL     1     -12.570  12.396  63.346  1.00  0.00    -0.366 C  
ENDBRANCH  11  16
ENDBRANCH   2   8
TORSDOF 5
ENDMDL
MODEL      176
REMARK 921   NORMALIZED FREE ENERGY PREDICTED BY IDOCK:   -2.98 KCAL/MOL
REMARK 922        TOTAL FREE ENERGY PREDICTED BY IDOCK:   -4.22 KCAL/MOL
REMARK 923 INTER-LIGAND FREE ENERGY PREDICTED BY IDOCK:   -3.87 KCAL/MOL
REMARK 924 INTRA-LIGAND FREE ENERGY PREDICTED BY IDOCK:   -0.35 KCAL/MOL
REMARK 927      BINDING AFFINITY PREDICTED BY RF-SCORE:    0.00 PKD
ROOT
HETATM    1  C   UNL     1     -10.660   8.376  69.123  1.00  0.00    -0.177 C  
HETATM    2  C   UNL     1     -10.077   7.878  68.022  1.00  0.00    -0.235 C  
ENDROOT
BRANCH   1   3
HETATM    3  C   UNL     1     -11.008   9.804  69.284  1.00  0.00    -0.193 C  
HETATM    4  O   UNL     1     -11.214  10.530  68.323  1.00  0.00    -0.278 OA 
BRANCH   3   5
HETATM    5  O   UNL     1     -10.946  10.183  70.583  1.00  0.00    -0.308 OA 
BRANCH   5   6
HETATM    6  C   UNL     1     -12.128  10.805  71.100  1.00  0.00    -0.309 C  
HETATM    7  C   UNL     1     -12.979   9.728  71.749  1.00  0.00    -0.536 C  
ENDBRANCH   5   6
ENDBRANCH   3   5
ENDBRANCH   1   3
BRANCH   2   8
HETATM    8  C   UNL     1      -9.855   6.448  67.767  1.00  0.00    -0.136 A  
HETATM    9  O   UNL     1      -9.614   2.373  67.013  1.00  0.00    -0.402 OA 
HETATM   10  C   UNL     1     -10.055   5.966  66.463  1.00  0.00    -0.206 A  
HETATM   11  C   UNL     1      -9.971   4.599  66.192  1.00  0.00    -0.247 A  
HETATM   12  C   UNL     1      -9.567   5.543  68.800  1.00  0.00    -0.175 A  
HETATM   13  C   UNL     1      -9.680   3.720  67.240  1.00  0.00    -0.097 A  
HETATM   14  H   UNL     1      -9.417   1.776  67.724  1.00  0.00     0.000 HD 
HETATM   15  C   UNL     1      -9.472   4.177  68.534  1.00  0.00    -0.216 A  
BRANCH  11  16
HETATM   16  O   UNL     1     -10.168   4.006  64.972  1.00  0.00    -0.210 OA 
HETATM   17  C   UNL     1      -9.144   4.195  64.001  1.00  0.00    -0.144 C  
ENDBRANCH  11  16
ENDBRANCH   2   8
TORSDOF 5
ENDMDL
MODEL      177
REMARK 921   NORMALIZED FREE ENERGY PREDICTED BY IDOCK:   -2.98 KCAL/MOL
REMARK 922        TOTAL FREE ENERGY PREDICTED BY IDOCK:   -4.22 KCAL/MOL
REMARK 923 INTER-LIGAND FREE ENERGY PREDICTED BY IDOCK:   -3.93 KCAL/MOL
REMARK 924 INTRA-LIGAND FREE ENERGY PREDICTED BY IDOCK:   -0.28 KCAL/MOL
REMARK 927      BINDING AFFINITY PREDICTED BY RF-SCORE:    0.00 PKD
ROOT
HETATM    1  C   UNL     1     -10.075   9.581  67.973  1.00  0.00    -0.226 C  
HETATM    2  C   UNL     1     -10.554   8.416  68.435  1.00  0.00    -0.155 C  
ENDROOT
BRANCH   1   3
HETATM    3  C   UNL     1     -10.232  10.028  66.573  1.00  0.00    -0.224 C  
HETATM    4  O   UNL     1     -10.904  11.004  66.279  1.00  0.00    -0.247 OA 
BRANCH   3   5
HETATM    5  O   UNL     1      -9.646   9.162  65.711  1.00  0.00    -0.262 OA 
BRANCH   5   6
HETATM    6  C   UNL     1      -8.792   9.756  64.726  1.00  0.00    -0.207 C  
HETATM    7  C   UNL     1      -8.457   8.694  63.694  1.00  0.00    -0.070 C  
ENDBRANCH   5   6
ENDBRANCH   3   5
ENDBRANCH   1   3
BRANCH   2   8
HETATM    8  C   UNL     1     -10.547   8.010  69.847  1.00  0.00    -0.242 A  
HETATM    9  O   UNL     1     -10.882   6.700  73.772  1.00  0.00    -0.479 OA 
HETATM   10  C   UNL     1     -10.378   6.647  70.146  1.00  0.00    -0.236 A  
HETATM   11  C   UNL     1     -10.482   6.192  71.461  1.00  0.00    -0.222 A  
HETATM   12  C   UNL     1     -10.820   8.915  70.885  1.00  0.00    -0.308 A  
HETATM   13  C   UNL     1     -10.751   7.117  72.476  1.00  0.00    -0.250 A  
HETATM   14  H   UNL     1     -11.064   7.327  74.461  1.00  0.00     0.000 HD 
HETATM   15  C   UNL     1     -10.914   8.468  72.202  1.00  0.00    -0.427 A  
BRANCH  11  16
HETATM   16  O   UNL     1     -10.361   4.891  71.876  1.00  0.00    -0.200 OA 
HETATM   17  C   UNL     1      -9.657   4.011  71.006  1.00  0.00    -0.179 C  
ENDBRANCH  11  16
ENDBRANCH   2   8
TORSDOF 5
ENDMDL
MODEL      178
REMARK 921   NORMALIZED FREE ENERGY PREDICTED BY IDOCK:   -2.98 KCAL/MOL
REMARK 922        TOTAL FREE ENERGY PREDICTED BY IDOCK:   -4.21 KCAL/MOL
REMARK 923 INTER-LIGAND FREE ENERGY PREDICTED BY IDOCK:   -3.86 KCAL/MOL
REMARK 924 INTRA-LIGAND FREE ENERGY PREDICTED BY IDOCK:   -0.35 KCAL/MOL
REMARK 927      BINDING AFFINITY PREDICTED BY RF-SCORE:    0.00 PKD
ROOT
HETATM    1  C   UNL     1     -10.532   8.246  67.498  1.00  0.00    -0.325 C  
HETATM    2  C   UNL     1     -10.508   8.189  68.838  1.00  0.00    -0.202 C  
ENDROOT
BRANCH   1   3
HETATM    3  C   UNL     1     -10.380   9.503  66.734  1.00  0.00    -0.228 C  
HETATM    4  O   UNL     1      -9.575   9.609  65.822  1.00  0.00    -0.223 OA 
BRANCH   3   5
HETATM    5  O   UNL     1     -11.143  10.492  67.257  1.00  0.00    -0.292 OA 
BRANCH   5   6
HETATM    6  C   UNL     1     -11.100  11.740  66.553  1.00  0.00    -0.310 C  
HETATM    7  C   UNL     1     -10.289  12.719  67.384  1.00  0.00    -0.222 C  
ENDBRANCH   5   6
ENDBRANCH   3   5
ENDBRANCH   1   3
BRANCH   2   8
HETATM    8  C   UNL     1     -10.506   6.947  69.623  1.00  0.00    -0.240 A  
HETATM    9  O   UNL     1     -10.157   3.553  71.988  1.00  0.00    -0.167 OA 
HETATM   10  C   UNL     1     -10.721   7.035  71.008  1.00  0.00    -0.256 A  
HETATM   11  C   UNL     1     -10.613   5.902  71.816  1.00  0.00    -0.234 A  
HETATM   12  C   UNL     1     -10.182   5.706  69.053  1.00  0.00    -0.291 A  
HETATM   13  C   UNL     1     -10.293   4.678  71.221  1.00  0.00    -0.078 A  
HETATM   14  H   UNL     1      -9.939   2.721  71.584  1.00  0.00     0.000 HD 
HETATM   15  C   UNL     1     -10.083   4.568  69.853  1.00  0.00    -0.195 A  
BRANCH  11  16
HETATM   16  O   UNL     1     -10.776   5.863  73.177  1.00  0.00    -0.232 OA 
HETATM   17  C   UNL     1     -10.228   6.952  73.913  1.00  0.00    -0.367 C  
ENDBRANCH  11  16
ENDBRANCH   2   8
TORSDOF 5
ENDMDL
MODEL      179
REMARK 921   NORMALIZED FREE ENERGY PREDICTED BY IDOCK:   -2.96 KCAL/MOL
REMARK 922        TOTAL FREE ENERGY PREDICTED BY IDOCK:   -4.20 KCAL/MOL
REMARK 923 INTER-LIGAND FREE ENERGY PREDICTED BY IDOCK:   -3.83 KCAL/MOL
REMARK 924 INTRA-LIGAND FREE ENERGY PREDICTED BY IDOCK:   -0.37 KCAL/MOL
REMARK 927      BINDING AFFINITY PREDICTED BY RF-SCORE:    0.00 PKD
ROOT
HETATM    1  C   UNL     1      -9.431   8.381  67.540  1.00  0.00    -0.182 C  
HETATM    2  C   UNL     1     -10.418   9.256  67.295  1.00  0.00    -0.334 C  
ENDROOT
BRANCH   1   3
HETATM    3  C   UNL     1      -8.981   7.368  66.561  1.00  0.00    -0.159 C  
HETATM    4  O   UNL     1      -9.652   6.383  66.298  1.00  0.00    -0.146 OA 
BRANCH   3   5
HETATM    5  O   UNL     1      -7.726   7.630  66.122  1.00  0.00    -0.085 OA 
BRANCH   5   6
HETATM    6  C   UNL     1      -6.844   8.211  67.091  1.00  0.00    -0.070 C  
HETATM    7  C   UNL     1      -5.881   7.131  67.554  1.00  0.00    -0.025 C  
ENDBRANCH   5   6
ENDBRANCH   3   5
ENDBRANCH   1   3
BRANCH   2   8
HETATM    8  C   UNL     1     -10.789  10.367  68.181  1.00  0.00    -0.311 A  
HETATM    9  O   UNL     1     -12.214  13.427  70.599  1.00  0.00    -0.356 OA 
HETATM   10  C   UNL     1     -11.385  10.063  69.416  1.00  0.00    -0.192 A  
HETATM   11  C   UNL     1     -11.863  11.080  70.243  1.00  0.00    -0.367 A  
HETATM   12  C   UNL     1     -10.676  11.709  67.783  1.00  0.00    -0.244 A  
HETATM   13  C   UNL     1     -11.734  12.408  69.823  1.00  0.00    -0.291 A  
HETATM   14  H   UNL     1     -12.126  14.329  70.313  1.00  0.00     0.000 HD 
HETATM   15  C   UNL     1     -11.143  12.730  68.609  1.00  0.00    -0.304 A  
BRANCH  11  16
HETATM   16  O   UNL     1     -12.482  10.911  71.455  1.00  0.00    -0.367 OA 
HETATM   17  C   UNL     1     -12.616   9.571  71.917  1.00  0.00    -0.396 C  
ENDBRANCH  11  16
ENDBRANCH   2   8
TORSDOF 5
ENDMDL
MODEL      180
REMARK 921   NORMALIZED FREE ENERGY PREDICTED BY IDOCK:   -2.95 KCAL/MOL
REMARK 922        TOTAL FREE ENERGY PREDICTED BY IDOCK:   -4.17 KCAL/MOL
REMARK 923 INTER-LIGAND FREE ENERGY PREDICTED BY IDOCK:   -3.81 KCAL/MOL
REMARK 924 INTRA-LIGAND FREE ENERGY PREDICTED BY IDOCK:   -0.36 KCAL/MOL
REMARK 927      BINDING AFFINITY PREDICTED BY RF-SCORE:    0.00 PKD
ROOT
HETATM    1  C   UNL     1     -11.479   6.372  70.273  1.00  0.00    -0.468 C  
HETATM    2  C   UNL     1     -11.137   7.313  69.379  1.00  0.00    -0.092 C  
ENDROOT
BRANCH   1   3
HETATM    3  C   UNL     1     -12.241   6.660  71.506  1.00  0.00    -0.340 C  
HETATM    4  O   UNL     1     -13.139   7.488  71.531  1.00  0.00    -0.349 OA 
BRANCH   3   5
HETATM    5  O   UNL     1     -11.733   5.989  72.567  1.00  0.00    -0.292 OA 
BRANCH   5   6
HETATM    6  C   UNL     1     -10.516   5.274  72.319  1.00  0.00    -0.218 C  
HETATM    7  C   UNL     1     -10.550   3.994  73.135  1.00  0.00    -0.265 C  
ENDBRANCH   5   6
ENDBRANCH   3   5
ENDBRANCH   1   3
BRANCH   2   8
HETATM    8  C   UNL     1     -10.514   7.043  68.077  1.00  0.00    -0.255 A  
HETATM    9  O   UNL     1      -8.446   6.135  64.593  1.00  0.00    -0.292 OA 
HETATM   10  C   UNL     1     -10.413   5.708  67.651  1.00  0.00    -0.284 A  
HETATM   11  C   UNL     1      -9.726   5.387  66.479  1.00  0.00    -0.164 A  
HETATM   12  C   UNL     1      -9.919   8.057  67.310  1.00  0.00    -0.282 A  
HETATM   13  C   UNL     1      -9.146   6.418  65.734  1.00  0.00     0.003 A  
HETATM   14  H   UNL     1      -8.052   6.835  64.087  1.00  0.00     0.000 HD 
HETATM   15  C   UNL     1      -9.240   7.744  66.133  1.00  0.00    -0.182 A  
BRANCH  11  16
HETATM   16  O   UNL     1      -9.539   4.126  65.974  1.00  0.00    -0.166 OA 
HETATM   17  C   UNL     1      -9.161   3.119  66.906  1.00  0.00    -0.163 C  
ENDBRANCH  11  16
ENDBRANCH   2   8
TORSDOF 5
ENDMDL
MODEL      181
REMARK 921   NORMALIZED FREE ENERGY PREDICTED BY IDOCK:   -2.95 KCAL/MOL
REMARK 922        TOTAL FREE ENERGY PREDICTED BY IDOCK:   -4.17 KCAL/MOL
REMARK 923 INTER-LIGAND FREE ENERGY PREDICTED BY IDOCK:   -3.79 KCAL/MOL
REMARK 924 INTRA-LIGAND FREE ENERGY PREDICTED BY IDOCK:   -0.38 KCAL/MOL
REMARK 927      BINDING AFFINITY PREDICTED BY RF-SCORE:    0.00 PKD
ROOT
HETATM    1  C   UNL     1     -10.430   9.703  70.164  1.00  0.00    -0.321 C  
HETATM    2  C   UNL     1     -10.925  10.200  69.020  1.00  0.00    -0.265 C  
ENDROOT
BRANCH   1   3
HETATM    3  C   UNL     1     -11.250   9.473  71.372  1.00  0.00    -0.382 C  
HETATM    4  O   UNL     1     -12.299  10.068  71.563  1.00  0.00    -0.369 OA 
BRANCH   3   5
HETATM    5  O   UNL     1     -10.628   8.637  72.238  1.00  0.00    -0.334 OA 
BRANCH   5   6
HETATM    6  C   UNL     1      -9.447   7.998  71.737  1.00  0.00    -0.169 C  
HETATM    7  C   UNL     1      -8.421   7.965  72.856  1.00  0.00    -0.222 C  
ENDBRANCH   5   6
ENDBRANCH   3   5
ENDBRANCH   1   3
BRANCH   2   8
HETATM    8  C   UNL     1     -10.177  10.302  67.760  1.00  0.00    -0.225 A  
HETATM    9  O   UNL     1      -7.852  10.874  64.369  1.00  0.00    -0.351 OA 
HETATM   10  C   UNL     1      -8.853   9.830  67.732  1.00  0.00    -0.129 A  
HETATM   11  C   UNL     1      -8.061  10.010  66.597  1.00  0.00    -0.118 A  
HETATM   12  C   UNL     1     -10.699  10.955  66.634  1.00  0.00    -0.289 A  
HETATM   13  C   UNL     1      -8.609  10.661  65.488  1.00  0.00    -0.185 A  
HETATM   14  H   UNL     1      -8.223  11.317  63.615  1.00  0.00     0.000 HD 
HETATM   15  C   UNL     1      -9.916  11.129  65.493  1.00  0.00    -0.298 A  
BRANCH  11  16
HETATM   16  O   UNL     1      -6.754   9.617  66.455  1.00  0.00    -0.076 OA 
HETATM   17  C   UNL     1      -6.314   8.562  67.303  1.00  0.00    -0.057 C  
ENDBRANCH  11  16
ENDBRANCH   2   8
TORSDOF 5
ENDMDL
MODEL      182
REMARK 921   NORMALIZED FREE ENERGY PREDICTED BY IDOCK:   -2.91 KCAL/MOL
REMARK 922        TOTAL FREE ENERGY PREDICTED BY IDOCK:   -4.13 KCAL/MOL
REMARK 923 INTER-LIGAND FREE ENERGY PREDICTED BY IDOCK:   -3.68 KCAL/MOL
REMARK 924 INTRA-LIGAND FREE ENERGY PREDICTED BY IDOCK:   -0.45 KCAL/MOL
REMARK 927      BINDING AFFINITY PREDICTED BY RF-SCORE:    0.00 PKD
ROOT
HETATM    1  C   UNL     1      -6.643  14.615  70.087  1.00  0.00    -0.143 C  
HETATM    2  C   UNL     1      -6.714  14.617  68.747  1.00  0.00    -0.088 C  
ENDROOT
BRANCH   1   3
HETATM    3  C   UNL     1      -5.886  13.608  70.860  1.00  0.00    -0.168 C  
HETATM    4  O   UNL     1      -5.691  13.729  72.059  1.00  0.00    -0.380 OA 
BRANCH   3   5
HETATM    5  O   UNL     1      -5.372  12.650  70.051  1.00  0.00    -0.085 OA 
BRANCH   5   6
HETATM    6  C   UNL     1      -5.712  11.302  70.399  1.00  0.00    -0.146 C  
HETATM    7  C   UNL     1      -7.008  10.948  69.691  1.00  0.00    -0.128 C  
ENDBRANCH   5   6
ENDBRANCH   3   5
ENDBRANCH   1   3
BRANCH   2   8
HETATM    8  C   UNL     1      -7.329  15.682  67.944  1.00  0.00    -0.151 A  
HETATM    9  O   UNL     1      -9.315  18.748  65.972  1.00  0.00    -0.478 OA 
HETATM   10  C   UNL     1      -7.117  17.016  68.332  1.00  0.00    -0.188 A  
HETATM   11  C   UNL     1      -7.773  18.058  67.675  1.00  0.00    -0.215 A  
HETATM   12  C   UNL     1      -8.207  15.404  66.884  1.00  0.00    -0.281 A  
HETATM   13  C   UNL     1      -8.639  17.752  66.621  1.00  0.00    -0.258 A  
HETATM   14  H   UNL     1      -9.903  18.541  65.256  1.00  0.00     0.000 HD 
HETATM   15  C   UNL     1      -8.857  16.441  66.217  1.00  0.00    -0.367 A  
BRANCH  11  16
HETATM   16  O   UNL     1      -7.667  19.392  67.974  1.00  0.00    -0.277 OA 
HETATM   17  C   UNL     1      -6.970  19.721  69.171  1.00  0.00    -0.329 C  
ENDBRANCH  11  16
ENDBRANCH   2   8
TORSDOF 5
ENDMDL
MODEL      183
REMARK 921   NORMALIZED FREE ENERGY PREDICTED BY IDOCK:   -2.91 KCAL/MOL
REMARK 922        TOTAL FREE ENERGY PREDICTED BY IDOCK:   -4.12 KCAL/MOL
REMARK 923 INTER-LIGAND FREE ENERGY PREDICTED BY IDOCK:   -3.79 KCAL/MOL
REMARK 924 INTRA-LIGAND FREE ENERGY PREDICTED BY IDOCK:   -0.34 KCAL/MOL
REMARK 927      BINDING AFFINITY PREDICTED BY RF-SCORE:    0.00 PKD
ROOT
HETATM    1  C   UNL     1     -10.708   9.318  67.432  1.00  0.00    -0.263 C  
HETATM    2  C   UNL     1     -10.160   8.424  68.269  1.00  0.00    -0.232 C  
ENDROOT
BRANCH   1   3
HETATM    3  C   UNL     1     -10.765  10.768  67.714  1.00  0.00    -0.251 C  
HETATM    4  O   UNL     1     -10.320  11.242  68.747  1.00  0.00    -0.195 OA 
BRANCH   3   5
HETATM    5  O   UNL     1     -11.457  11.430  66.755  1.00  0.00    -0.427 OA 
BRANCH   5   6
HETATM    6  C   UNL     1     -10.662  12.030  65.725  1.00  0.00    -0.279 C  
HETATM    7  C   UNL     1     -11.535  12.191  64.493  1.00  0.00    -0.397 C  
ENDBRANCH   5   6
ENDBRANCH   3   5
ENDBRANCH   1   3
BRANCH   2   8
HETATM    8  C   UNL     1      -9.952   7.004  67.957  1.00  0.00    -0.178 A  
HETATM    9  O   UNL     1      -9.727   2.990  66.923  1.00  0.00    -0.412 OA 
HETATM   10  C   UNL     1      -9.770   6.637  66.613  1.00  0.00    -0.210 A  
HETATM   11  C   UNL     1      -9.687   5.292  66.250  1.00  0.00    -0.169 A  
HETATM   12  C   UNL     1     -10.047   6.004  68.937  1.00  0.00    -0.220 A  
HETATM   13  C   UNL     1      -9.781   4.317  67.248  1.00  0.00    -0.175 A  
HETATM   14  H   UNL     1      -9.791   2.327  67.600  1.00  0.00     0.000 HD 
HETATM   15  C   UNL     1      -9.954   4.659  68.583  1.00  0.00    -0.140 A  
BRANCH  11  16
HETATM   16  O   UNL     1      -9.534   4.809  64.976  1.00  0.00    -0.149 OA 
HETATM   17  C   UNL     1      -8.479   5.374  64.205  1.00  0.00    -0.092 C  
ENDBRANCH  11  16
ENDBRANCH   2   8
TORSDOF 5
ENDMDL
MODEL      184
REMARK 921   NORMALIZED FREE ENERGY PREDICTED BY IDOCK:   -2.90 KCAL/MOL
REMARK 922        TOTAL FREE ENERGY PREDICTED BY IDOCK:   -4.12 KCAL/MOL
REMARK 923 INTER-LIGAND FREE ENERGY PREDICTED BY IDOCK:   -3.84 KCAL/MOL
REMARK 924 INTRA-LIGAND FREE ENERGY PREDICTED BY IDOCK:   -0.28 KCAL/MOL
REMARK 927      BINDING AFFINITY PREDICTED BY RF-SCORE:    0.00 PKD
ROOT
HETATM    1  C   UNL     1      -8.959   8.392  66.073  1.00  0.00    -0.228 C  
HETATM    2  C   UNL     1      -9.281   9.070  64.962  1.00  0.00    -0.116 C  
ENDROOT
BRANCH   1   3
HETATM    3  C   UNL     1      -8.488   6.990  66.064  1.00  0.00    -0.139 C  
HETATM    4  O   UNL     1      -7.523   6.639  65.403  1.00  0.00    -0.073 OA 
BRANCH   3   5
HETATM    5  O   UNL     1      -9.322   6.186  66.765  1.00  0.00    -0.132 OA 
BRANCH   5   6
HETATM    6  C   UNL     1      -9.058   4.781  66.657  1.00  0.00    -0.117 C  
HETATM    7  C   UNL     1      -9.659   4.097  67.872  1.00  0.00    -0.203 C  
ENDBRANCH   5   6
ENDBRANCH   3   5
ENDBRANCH   1   3
BRANCH   2   8
HETATM    8  C   UNL     1      -9.607  10.501  64.920  1.00  0.00    -0.334 A  
HETATM    9  O   UNL     1     -10.861  14.458  64.990  1.00  0.00    -0.359 OA 
HETATM   10  C   UNL     1      -9.548  11.233  66.118  1.00  0.00    -0.241 A  
HETATM   11  C   UNL     1      -9.961  12.565  66.157  1.00  0.00    -0.255 A  
HETATM   12  C   UNL     1     -10.083  11.124  63.756  1.00  0.00    -0.416 A  
HETATM   13  C   UNL     1     -10.428  13.161  64.981  1.00  0.00    -0.342 A  
HETATM   14  H   UNL     1     -11.179  14.863  64.192  1.00  0.00     0.000 HD 
HETATM   15  C   UNL     1     -10.488  12.458  63.785  1.00  0.00    -0.475 A  
BRANCH  11  16
HETATM   16  O   UNL     1      -9.973  13.374  67.264  1.00  0.00    -0.227 OA 
HETATM   17  C   UNL     1      -8.727  13.564  67.925  1.00  0.00    -0.183 C  
ENDBRANCH  11  16
ENDBRANCH   2   8
TORSDOF 5
ENDMDL
MODEL      185
REMARK 921   NORMALIZED FREE ENERGY PREDICTED BY IDOCK:   -2.88 KCAL/MOL
REMARK 922        TOTAL FREE ENERGY PREDICTED BY IDOCK:   -4.09 KCAL/MOL
REMARK 923 INTER-LIGAND FREE ENERGY PREDICTED BY IDOCK:   -3.70 KCAL/MOL
REMARK 924 INTRA-LIGAND FREE ENERGY PREDICTED BY IDOCK:   -0.39 KCAL/MOL
REMARK 927      BINDING AFFINITY PREDICTED BY RF-SCORE:    0.00 PKD
ROOT
HETATM    1  C   UNL     1     -11.504   7.726  70.432  1.00  0.00    -0.171 C  
HETATM    2  C   UNL     1     -11.074   8.984  70.250  1.00  0.00    -0.263 C  
ENDROOT
BRANCH   1   3
HETATM    3  C   UNL     1     -12.396   7.324  71.540  1.00  0.00    -0.362 C  
HETATM    4  O   UNL     1     -13.327   8.025  71.905  1.00  0.00    -0.330 OA 
BRANCH   3   5
HETATM    5  O   UNL     1     -11.968   6.181  72.128  1.00  0.00    -0.331 OA 
BRANCH   5   6
HETATM    6  C   UNL     1     -10.570   6.134  72.438  1.00  0.00    -0.210 C  
HETATM    7  C   UNL     1     -10.404   6.474  73.909  1.00  0.00    -0.356 C  
ENDBRANCH   5   6
ENDBRANCH   3   5
ENDBRANCH   1   3
BRANCH   2   8
HETATM    8  C   UNL     1     -10.313   9.447  69.082  1.00  0.00    -0.221 A  
HETATM    9  O   UNL     1      -8.188  11.117  65.931  1.00  0.00    -0.277 OA 
HETATM   10  C   UNL     1      -8.983   9.858  69.275  1.00  0.00    -0.184 A  
HETATM   11  C   UNL     1      -8.254  10.416  68.224  1.00  0.00    -0.114 A  
HETATM   12  C   UNL     1     -10.904   9.599  67.819  1.00  0.00    -0.278 A  
HETATM   13  C   UNL     1      -8.867  10.553  66.975  1.00  0.00    -0.136 A  
HETATM   14  H   UNL     1      -8.604  11.211  65.083  1.00  0.00     0.000 HD 
HETATM   15  C   UNL     1     -10.178  10.147  66.762  1.00  0.00    -0.289 A  
BRANCH  11  16
HETATM   16  O   UNL     1      -6.963  10.874  68.293  1.00  0.00    -0.066 OA 
HETATM   17  C   UNL     1      -6.682  11.828  69.312  1.00  0.00    -0.110 C  
ENDBRANCH  11  16
ENDBRANCH   2   8
TORSDOF 5
ENDMDL
MODEL      186
REMARK 921   NORMALIZED FREE ENERGY PREDICTED BY IDOCK:   -2.87 KCAL/MOL
REMARK 922        TOTAL FREE ENERGY PREDICTED BY IDOCK:   -4.07 KCAL/MOL
REMARK 923 INTER-LIGAND FREE ENERGY PREDICTED BY IDOCK:   -3.69 KCAL/MOL
REMARK 924 INTRA-LIGAND FREE ENERGY PREDICTED BY IDOCK:   -0.38 KCAL/MOL
REMARK 927      BINDING AFFINITY PREDICTED BY RF-SCORE:    0.00 PKD
ROOT
HETATM    1  C   UNL     1     -10.543  15.035  67.800  1.00  0.00    -0.264 C  
HETATM    2  C   UNL     1      -9.226  14.843  67.628  1.00  0.00    -0.187 C  
ENDROOT
BRANCH   1   3
HETATM    3  C   UNL     1     -11.147  16.361  68.046  1.00  0.00    -0.292 C  
HETATM    4  O   UNL     1     -10.750  17.366  67.475  1.00  0.00    -0.347 OA 
BRANCH   3   5
HETATM    5  O   UNL     1     -12.072  16.306  69.034  1.00  0.00    -0.148 OA 
BRANCH   5   6
HETATM    6  C   UNL     1     -11.626  15.720  70.263  1.00  0.00    -0.365 C  
HETATM    7  C   UNL     1     -12.759  14.874  70.816  1.00  0.00    -0.421 C  
ENDBRANCH   5   6
ENDBRANCH   3   5
ENDBRANCH   1   3
BRANCH   2   8
HETATM    8  C   UNL     1      -8.610  13.569  67.235  1.00  0.00    -0.218 A  
HETATM    9  O   UNL     1      -7.058   9.804  66.428  1.00  0.00    -0.090 OA 
HETATM   10  C   UNL     1      -9.429  12.584  66.657  1.00  0.00    -0.242 A  
HETATM   11  C   UNL     1      -8.920  11.316  66.374  1.00  0.00    -0.188 A  
HETATM   12  C   UNL     1      -7.271  13.268  67.526  1.00  0.00    -0.157 A  
HETATM   13  C   UNL     1      -7.581  11.044  66.671  1.00  0.00    -0.146 A  
HETATM   14  H   UNL     1      -6.149   9.619  66.630  1.00  0.00     0.000 HD 
HETATM   15  C   UNL     1      -6.754  12.005  67.237  1.00  0.00    -0.144 A  
BRANCH  11  16
HETATM   16  O   UNL     1      -9.621  10.268  65.834  1.00  0.00    -0.183 OA 
HETATM   17  C   UNL     1     -10.098  10.442  64.504  1.00  0.00    -0.295 C  
ENDBRANCH  11  16
ENDBRANCH   2   8
TORSDOF 5
ENDMDL
MODEL      187
REMARK 921   NORMALIZED FREE ENERGY PREDICTED BY IDOCK:   -2.86 KCAL/MOL
REMARK 922        TOTAL FREE ENERGY PREDICTED BY IDOCK:   -4.06 KCAL/MOL
REMARK 923 INTER-LIGAND FREE ENERGY PREDICTED BY IDOCK:   -3.74 KCAL/MOL
REMARK 924 INTRA-LIGAND FREE ENERGY PREDICTED BY IDOCK:   -0.32 KCAL/MOL
REMARK 927      BINDING AFFINITY PREDICTED BY RF-SCORE:    0.00 PKD
ROOT
HETATM    1  C   UNL     1     -10.199  15.449  66.899  1.00  0.00    -0.273 C  
HETATM    2  C   UNL     1     -10.002  14.507  67.833  1.00  0.00    -0.226 C  
ENDROOT
BRANCH   1   3
HETATM    3  C   UNL     1      -9.986  16.892  67.141  1.00  0.00    -0.276 C  
HETATM    4  O   UNL     1     -10.760  17.737  66.719  1.00  0.00    -0.269 OA 
BRANCH   3   5
HETATM    5  O   UNL     1      -8.805  17.118  67.763  1.00  0.00    -0.219 OA 
BRANCH   5   6
HETATM    6  C   UNL     1      -8.730  18.332  68.521  1.00  0.00    -0.308 C  
HETATM    7  C   UNL     1      -7.333  18.432  69.109  1.00  0.00    -0.155 C  
ENDBRANCH   5   6
ENDBRANCH   3   5
ENDBRANCH   1   3
BRANCH   2   8
HETATM    8  C   UNL     1     -10.059  13.060  67.587  1.00  0.00    -0.217 A  
HETATM    9  O   UNL     1     -10.260   9.055  66.510  1.00  0.00    -0.278 OA 
HETATM   10  C   UNL     1      -8.959  12.447  66.963  1.00  0.00    -0.209 A  
HETATM   11  C   UNL     1      -9.009  11.100  66.600  1.00  0.00    -0.170 A  
HETATM   12  C   UNL     1     -11.212  12.304  67.846  1.00  0.00    -0.328 A  
HETATM   13  C   UNL     1     -10.170  10.371  66.874  1.00  0.00    -0.227 A  
HETATM   14  H   UNL     1     -11.048   8.559  66.696  1.00  0.00     0.000 HD 
HETATM   15  C   UNL     1     -11.265  10.955  67.496  1.00  0.00    -0.364 A  
BRANCH  11  16
HETATM   16  O   UNL     1      -8.015  10.398  65.968  1.00  0.00    -0.132 OA 
HETATM   17  C   UNL     1      -6.738  10.401  66.597  1.00  0.00    -0.090 C  
ENDBRANCH  11  16
ENDBRANCH   2   8
TORSDOF 5
ENDMDL
MODEL      188
REMARK 921   NORMALIZED FREE ENERGY PREDICTED BY IDOCK:   -2.79 KCAL/MOL
REMARK 922        TOTAL FREE ENERGY PREDICTED BY IDOCK:   -3.98 KCAL/MOL
REMARK 923 INTER-LIGAND FREE ENERGY PREDICTED BY IDOCK:   -3.63 KCAL/MOL
REMARK 924 INTRA-LIGAND FREE ENERGY PREDICTED BY IDOCK:   -0.35 KCAL/MOL
REMARK 927      BINDING AFFINITY PREDICTED BY RF-SCORE:    0.00 PKD
ROOT
HETATM    1  C   UNL     1      -9.874  15.810  67.003  1.00  0.00    -0.238 C  
HETATM    2  C   UNL     1      -8.646  15.770  67.542  1.00  0.00    -0.180 C  
ENDROOT
BRANCH   1   3
HETATM    3  C   UNL     1     -10.536  17.062  66.580  1.00  0.00    -0.250 C  
HETATM    4  O   UNL     1     -10.760  17.307  65.404  1.00  0.00    -0.583 OA 
BRANCH   3   5
HETATM    5  O   UNL     1     -10.732  17.895  67.629  1.00  0.00    -0.399 OA 
BRANCH   5   6
HETATM    6  C   UNL     1     -10.777  19.291  67.308  1.00  0.00    -0.488 C  
HETATM    7  C   UNL     1      -9.395  19.872  67.548  1.00  0.00    -0.465 C  
ENDBRANCH   5   6
ENDBRANCH   3   5
ENDBRANCH   1   3
BRANCH   2   8
HETATM    8  C   UNL     1      -7.901  14.538  67.835  1.00  0.00    -0.153 A  
HETATM    9  O   UNL     1      -6.108  10.938  68.866  1.00  0.00    -0.040 OA 
HETATM   10  C   UNL     1      -8.303  13.350  67.202  1.00  0.00    -0.149 A  
HETATM   11  C   UNL     1      -7.706  12.133  67.533  1.00  0.00    -0.159 A  
HETATM   12  C   UNL     1      -6.888  14.493  68.806  1.00  0.00    -0.094 A  
HETATM   13  C   UNL     1      -6.697  12.118  68.501  1.00  0.00    -0.071 A  
HETATM   14  H   UNL     1      -5.424  10.927  69.524  1.00  0.00     0.000 HD 
HETATM   15  C   UNL     1      -6.281  13.281  69.134  1.00  0.00    -0.099 A  
BRANCH  11  16
HETATM   16  O   UNL     1      -8.025  10.908  67.005  1.00  0.00    -0.122 OA 
HETATM   17  C   UNL     1      -7.346  10.536  65.811  1.00  0.00    -0.137 C  
ENDBRANCH  11  16
ENDBRANCH   2   8
TORSDOF 5
ENDMDL
MODEL      189
REMARK 921   NORMALIZED FREE ENERGY PREDICTED BY IDOCK:   -2.77 KCAL/MOL
REMARK 922        TOTAL FREE ENERGY PREDICTED BY IDOCK:   -3.94 KCAL/MOL
REMARK 923 INTER-LIGAND FREE ENERGY PREDICTED BY IDOCK:   -3.53 KCAL/MOL
REMARK 924 INTRA-LIGAND FREE ENERGY PREDICTED BY IDOCK:   -0.41 KCAL/MOL
REMARK 927      BINDING AFFINITY PREDICTED BY RF-SCORE:    0.00 PKD
ROOT
HETATM    1  C   UNL     1     -11.298   7.168  70.463  1.00  0.00    -0.333 C  
HETATM    2  C   UNL     1     -11.258   8.499  70.291  1.00  0.00    -0.185 C  
ENDROOT
BRANCH   1   3
HETATM    3  C   UNL     1     -12.151   6.503  71.469  1.00  0.00    -0.308 C  
HETATM    4  O   UNL     1     -13.308   6.845  71.661  1.00  0.00    -0.341 OA 
BRANCH   3   5
HETATM    5  O   UNL     1     -11.450   5.592  72.185  1.00  0.00    -0.213 OA 
BRANCH   5   6
HETATM    6  C   UNL     1     -10.179   6.038  72.674  1.00  0.00    -0.183 C  
HETATM    7  C   UNL     1     -10.389   6.624  74.059  1.00  0.00    -0.377 C  
ENDBRANCH   5   6
ENDBRANCH   3   5
ENDBRANCH   1   3
BRANCH   2   8
HETATM    8  C   UNL     1     -10.539   9.181  69.208  1.00  0.00    -0.229 A  
HETATM    9  O   UNL     1      -8.182  10.937  66.276  1.00  0.00    -0.156 OA 
HETATM   10  C   UNL     1     -10.082   8.412  68.124  1.00  0.00    -0.239 A  
HETATM   11  C   UNL     1      -9.294   8.990  67.128  1.00  0.00    -0.147 A  
HETATM   12  C   UNL     1     -10.198  10.541  69.280  1.00  0.00    -0.245 A  
HETATM   13  C   UNL     1      -8.972  10.347  67.224  1.00  0.00    -0.135 A  
HETATM   14  H   UNL     1      -7.962  11.859  66.341  1.00  0.00     0.000 HD 
HETATM   15  C   UNL     1      -9.419  11.126  68.283  1.00  0.00    -0.182 A  
BRANCH  11  16
HETATM   16  O   UNL     1      -8.770   8.342  66.038  1.00  0.00    -0.139 OA 
HETATM   17  C   UNL     1      -8.100   7.113  66.292  1.00  0.00    -0.118 C  
ENDBRANCH  11  16
ENDBRANCH   2   8
TORSDOF 5
ENDMDL
MODEL      190
REMARK 921   NORMALIZED FREE ENERGY PREDICTED BY IDOCK:   -2.76 KCAL/MOL
REMARK 922        TOTAL FREE ENERGY PREDICTED BY IDOCK:   -3.93 KCAL/MOL
REMARK 923 INTER-LIGAND FREE ENERGY PREDICTED BY IDOCK:   -3.60 KCAL/MOL
REMARK 924 INTRA-LIGAND FREE ENERGY PREDICTED BY IDOCK:   -0.33 KCAL/MOL
REMARK 927      BINDING AFFINITY PREDICTED BY RF-SCORE:    0.00 PKD
ROOT
HETATM    1  C   UNL     1     -10.416  10.901  67.231  1.00  0.00    -0.275 C  
HETATM    2  C   UNL     1      -9.636  11.898  67.678  1.00  0.00    -0.185 C  
ENDROOT
BRANCH   1   3
HETATM    3  C   UNL     1     -10.056   9.472  67.346  1.00  0.00    -0.208 C  
HETATM    4  O   UNL     1     -10.900   8.607  67.518  1.00  0.00    -0.202 OA 
BRANCH   3   5
HETATM    5  O   UNL     1      -8.712   9.302  67.353  1.00  0.00    -0.118 OA 
BRANCH   5   6
HETATM    6  C   UNL     1      -8.151   8.782  66.141  1.00  0.00    -0.107 C  
HETATM    7  C   UNL     1      -6.894   8.009  66.500  1.00  0.00    -0.067 C  
ENDBRANCH   5   6
ENDBRANCH   3   5
ENDBRANCH   1   3
BRANCH   2   8
HETATM    8  C   UNL     1     -10.026  13.313  67.714  1.00  0.00    -0.223 A  
HETATM    9  O   UNL     1     -10.954  17.334  68.170  1.00  0.00    -0.347 OA 
HETATM   10  C   UNL     1      -9.022  14.285  67.560  1.00  0.00    -0.197 A  
HETATM   11  C   UNL     1      -9.320  15.640  67.704  1.00  0.00    -0.206 A  
HETATM   12  C   UNL     1     -11.336  13.718  68.013  1.00  0.00    -0.318 A  
HETATM   13  C   UNL     1     -10.635  16.015  67.999  1.00  0.00    -0.295 A  
HETATM   14  H   UNL     1     -11.847  17.589  68.370  1.00  0.00     0.000 HD 
HETATM   15  C   UNL     1     -11.642  15.072  68.148  1.00  0.00    -0.360 A  
BRANCH  11  16
HETATM   16  O   UNL     1      -8.428  16.677  67.602  1.00  0.00    -0.188 OA 
HETATM   17  C   UNL     1      -8.030  17.043  66.285  1.00  0.00    -0.308 C  
ENDBRANCH  11  16
ENDBRANCH   2   8
TORSDOF 5
ENDMDL
MODEL      191
REMARK 921   NORMALIZED FREE ENERGY PREDICTED BY IDOCK:   -2.75 KCAL/MOL
REMARK 922        TOTAL FREE ENERGY PREDICTED BY IDOCK:   -3.92 KCAL/MOL
REMARK 923 INTER-LIGAND FREE ENERGY PREDICTED BY IDOCK:   -3.75 KCAL/MOL
REMARK 924 INTRA-LIGAND FREE ENERGY PREDICTED BY IDOCK:   -0.17 KCAL/MOL
REMARK 927      BINDING AFFINITY PREDICTED BY RF-SCORE:    0.00 PKD
ROOT
HETATM    1  C   UNL     1     -10.521  11.386  65.543  1.00  0.00    -0.322 C  
HETATM    2  C   UNL     1      -9.546  10.471  65.663  1.00  0.00    -0.278 C  
ENDROOT
BRANCH   1   3
HETATM    3  C   UNL     1     -10.533  12.429  64.495  1.00  0.00    -0.325 C  
HETATM    4  O   UNL     1     -10.905  12.194  63.356  1.00  0.00    -0.431 OA 
BRANCH   3   5
HETATM    5  O   UNL     1      -9.985  13.584  64.943  1.00  0.00    -0.263 OA 
BRANCH   5   6
HETATM    6  C   UNL     1     -10.910  14.651  65.185  1.00  0.00    -0.401 C  
HETATM    7  C   UNL     1     -11.335  14.582  66.641  1.00  0.00    -0.359 C  
ENDBRANCH   5   6
ENDBRANCH   3   5
ENDBRANCH   1   3
BRANCH   2   8
HETATM    8  C   UNL     1      -9.576   9.335  66.593  1.00  0.00    -0.263 A  
HETATM    9  O   UNL     1      -9.270   6.168  69.260  1.00  0.00    -0.131 OA 
HETATM   10  C   UNL     1      -9.383   9.589  67.961  1.00  0.00    -0.143 A  
HETATM   11  C   UNL     1      -9.285   8.536  68.871  1.00  0.00    -0.146 A  
HETATM   12  C   UNL     1      -9.671   8.008  66.145  1.00  0.00    -0.116 A  
HETATM   13  C   UNL     1      -9.386   7.224  68.398  1.00  0.00    -0.143 A  
HETATM   14  H   UNL     1      -9.339   5.277  68.939  1.00  0.00     0.000 HD 
HETATM   15  C   UNL     1      -9.583   6.951  67.051  1.00  0.00    -0.197 A  
BRANCH  11  16
HETATM   16  O   UNL     1      -9.074   8.654  70.221  1.00  0.00    -0.149 OA 
HETATM   17  C   UNL     1      -7.718   8.698  70.651  1.00  0.00    -0.086 C  
ENDBRANCH  11  16
ENDBRANCH   2   8
TORSDOF 5
ENDMDL
MODEL      192
REMARK 921   NORMALIZED FREE ENERGY PREDICTED BY IDOCK:   -2.74 KCAL/MOL
REMARK 922        TOTAL FREE ENERGY PREDICTED BY IDOCK:   -3.91 KCAL/MOL
REMARK 923 INTER-LIGAND FREE ENERGY PREDICTED BY IDOCK:   -3.59 KCAL/MOL
REMARK 924 INTRA-LIGAND FREE ENERGY PREDICTED BY IDOCK:   -0.32 KCAL/MOL
REMARK 927      BINDING AFFINITY PREDICTED BY RF-SCORE:    0.00 PKD
ROOT
HETATM    1  C   UNL     1      -8.468   6.752  71.812  1.00  0.00    -0.120 C  
HETATM    2  C   UNL     1      -8.697   8.069  71.935  1.00  0.00    -0.184 C  
ENDROOT
BRANCH   1   3
HETATM    3  C   UNL     1      -7.597   5.989  72.730  1.00  0.00    -0.095 C  
HETATM    4  O   UNL     1      -6.380   6.078  72.688  1.00  0.00    -0.055 OA 
BRANCH   3   5
HETATM    5  O   UNL     1      -8.318   5.136  73.498  1.00  0.00    -0.109 OA 
BRANCH   5   6
HETATM    6  C   UNL     1      -8.717   3.918  72.857  1.00  0.00    -0.098 C  
HETATM    7  C   UNL     1     -10.219   3.772  73.022  1.00  0.00    -0.229 C  
ENDBRANCH   5   6
ENDBRANCH   3   5
ENDBRANCH   1   3
BRANCH   2   8
HETATM    8  C   UNL     1      -9.668   8.827  71.135  1.00  0.00    -0.315 A  
HETATM    9  O   UNL     1     -12.197  11.290  68.950  1.00  0.00    -0.494 OA 
HETATM   10  C   UNL     1      -9.269   9.294  69.871  1.00  0.00    -0.209 A  
HETATM   11  C   UNL     1     -10.111  10.118  69.122  1.00  0.00    -0.213 A  
HETATM   12  C   UNL     1     -10.925   9.195  71.640  1.00  0.00    -0.445 A  
HETATM   13  C   UNL     1     -11.359  10.465  69.649  1.00  0.00    -0.272 A  
HETATM   14  H   UNL     1     -13.044  11.526  69.308  1.00  0.00     0.000 HD 
HETATM   15  C   UNL     1     -11.774  10.009  70.892  1.00  0.00    -0.462 A  
BRANCH  11  16
HETATM   16  O   UNL     1      -9.828  10.654  67.892  1.00  0.00    -0.158 OA 
HETATM   17  C   UNL     1      -8.674  10.148  67.230  1.00  0.00    -0.129 C  
ENDBRANCH  11  16
ENDBRANCH   2   8
TORSDOF 5
ENDMDL
MODEL      193
REMARK 921   NORMALIZED FREE ENERGY PREDICTED BY IDOCK:   -2.71 KCAL/MOL
REMARK 922        TOTAL FREE ENERGY PREDICTED BY IDOCK:   -3.87 KCAL/MOL
REMARK 923 INTER-LIGAND FREE ENERGY PREDICTED BY IDOCK:   -3.46 KCAL/MOL
REMARK 924 INTRA-LIGAND FREE ENERGY PREDICTED BY IDOCK:   -0.41 KCAL/MOL
REMARK 927      BINDING AFFINITY PREDICTED BY RF-SCORE:    0.00 PKD
ROOT
HETATM    1  C   UNL     1     -10.222   8.076  71.350  1.00  0.00    -0.239 C  
HETATM    2  C   UNL     1      -9.712   9.112  70.666  1.00  0.00    -0.314 C  
ENDROOT
BRANCH   1   3
HETATM    3  C   UNL     1     -10.562   8.141  72.787  1.00  0.00    -0.316 C  
HETATM    4  O   UNL     1      -9.780   7.780  73.652  1.00  0.00    -0.293 OA 
BRANCH   3   5
HETATM    5  O   UNL     1     -11.848   8.525  72.972  1.00  0.00    -0.169 OA 
BRANCH   5   6
HETATM    6  C   UNL     1     -12.833   7.720  72.312  1.00  0.00    -0.078 C  
HETATM    7  C   UNL     1     -14.041   8.596  72.029  1.00  0.00    -0.523 C  
ENDBRANCH   5   6
ENDBRANCH   3   5
ENDBRANCH   1   3
BRANCH   2   8
HETATM    8  C   UNL     1      -9.502   9.131  69.212  1.00  0.00    -0.158 A  
HETATM    9  O   UNL     1      -9.209   8.934  65.075  1.00  0.00    -0.419 OA 
HETATM   10  C   UNL     1     -10.450   9.791  68.411  1.00  0.00    -0.250 A  
HETATM   11  C   UNL     1     -10.361   9.739  67.019  1.00  0.00    -0.239 A  
HETATM   12  C   UNL     1      -8.460   8.418  68.599  1.00  0.00    -0.128 A  
HETATM   13  C   UNL     1      -9.311   9.024  66.436  1.00  0.00    -0.206 A  
HETATM   14  H   UNL     1      -8.496   8.448  64.679  1.00  0.00     0.000 HD 
HETATM   15  C   UNL     1      -8.360   8.371  67.209  1.00  0.00    -0.123 A  
BRANCH  11  16
HETATM   16  O   UNL     1     -11.233  10.320  66.134  1.00  0.00     0.288 OA 
HETATM   17  C   UNL     1     -11.217  11.742  66.068  1.00  0.00    -0.296 C  
ENDBRANCH  11  16
ENDBRANCH   2   8
TORSDOF 5
ENDMDL
MODEL      194
REMARK 921   NORMALIZED FREE ENERGY PREDICTED BY IDOCK:   -2.71 KCAL/MOL
REMARK 922        TOTAL FREE ENERGY PREDICTED BY IDOCK:   -3.87 KCAL/MOL
REMARK 923 INTER-LIGAND FREE ENERGY PREDICTED BY IDOCK:   -3.46 KCAL/MOL
REMARK 924 INTRA-LIGAND FREE ENERGY PREDICTED BY IDOCK:   -0.40 KCAL/MOL
REMARK 927      BINDING AFFINITY PREDICTED BY RF-SCORE:    0.00 PKD
ROOT
HETATM    1  C   UNL     1      -6.398  15.023  70.458  1.00  0.00    -0.012 C  
HETATM    2  C   UNL     1      -6.165  15.613  69.275  1.00  0.00    -0.127 C  
ENDROOT
BRANCH   1   3
HETATM    3  C   UNL     1      -5.832  13.712  70.839  1.00  0.00    -0.168 C  
HETATM    4  O   UNL     1      -5.620  13.416  72.005  1.00  0.00    -0.395 OA 
BRANCH   3   5
HETATM    5  O   UNL     1      -5.493  12.985  69.747  1.00  0.00    -0.082 OA 
BRANCH   5   6
HETATM    6  C   UNL     1      -5.880  11.606  69.782  1.00  0.00    -0.111 C  
HETATM    7  C   UNL     1      -7.158  11.457  68.975  1.00  0.00    -0.117 C  
ENDBRANCH   5   6
ENDBRANCH   3   5
ENDBRANCH   1   3
BRANCH   2   8
HETATM    8  C   UNL     1      -6.586  16.974  68.922  1.00  0.00    -0.196 A  
HETATM    9  O   UNL     1      -7.688  20.735  67.550  1.00  0.00    -0.315 OA 
HETATM   10  C   UNL     1      -7.792  17.137  68.217  1.00  0.00    -0.227 A  
HETATM   11  C   UNL     1      -8.179  18.395  67.755  1.00  0.00    -0.254 A  
HETATM   12  C   UNL     1      -5.772  18.092  69.160  1.00  0.00    -0.211 A  
HETATM   13  C   UNL     1      -7.349  19.492  68.010  1.00  0.00    -0.281 A  
HETATM   14  H   UNL     1      -7.125  21.480  67.723  1.00  0.00     0.000 HD 
HETATM   15  C   UNL     1      -6.158  19.354  68.710  1.00  0.00    -0.266 A  
BRANCH  11  16
HETATM   16  O   UNL     1      -9.314  18.677  67.039  1.00  0.00    -0.281 OA 
HETATM   17  C   UNL     1     -10.532  18.727  67.775  1.00  0.00    -0.420 C  
ENDBRANCH  11  16
ENDBRANCH   2   8
TORSDOF 5
ENDMDL
MODEL      195
REMARK 921   NORMALIZED FREE ENERGY PREDICTED BY IDOCK:   -2.71 KCAL/MOL
REMARK 922        TOTAL FREE ENERGY PREDICTED BY IDOCK:   -3.86 KCAL/MOL
REMARK 923 INTER-LIGAND FREE ENERGY PREDICTED BY IDOCK:   -3.54 KCAL/MOL
REMARK 924 INTRA-LIGAND FREE ENERGY PREDICTED BY IDOCK:   -0.33 KCAL/MOL
REMARK 927      BINDING AFFINITY PREDICTED BY RF-SCORE:    0.00 PKD
ROOT
HETATM    1  C   UNL     1      -7.086  14.435  69.646  1.00  0.00    -0.049 C  
HETATM    2  C   UNL     1      -7.249  14.320  68.319  1.00  0.00    -0.117 C  
ENDROOT
BRANCH   1   3
HETATM    3  C   UNL     1      -6.061  13.690  70.406  1.00  0.00    -0.108 C  
HETATM    4  O   UNL     1      -5.929  13.825  71.613  1.00  0.00    -0.334 OA 
BRANCH   3   5
HETATM    5  O   UNL     1      -5.262  12.970  69.583  1.00  0.00    -0.079 OA 
BRANCH   5   6
HETATM    6  C   UNL     1      -5.177  11.570  69.876  1.00  0.00    -0.064 C  
HETATM    7  C   UNL     1      -6.185  10.846  69.000  1.00  0.00    -0.043 C  
ENDBRANCH   5   6
ENDBRANCH   3   5
ENDBRANCH   1   3
BRANCH   2   8
HETATM    8  C   UNL     1      -8.153  15.151  67.512  1.00  0.00    -0.196 A  
HETATM    9  O   UNL     1     -10.633  17.256  64.933  1.00  0.00    -0.583 OA 
HETATM   10  C   UNL     1      -9.409  14.626  67.166  1.00  0.00    -0.231 A  
HETATM   11  C   UNL     1     -10.257  15.324  66.305  1.00  0.00    -0.287 A  
HETATM   12  C   UNL     1      -7.755  16.390  66.985  1.00  0.00    -0.250 A  
HETATM   13  C   UNL     1      -9.836  16.558  65.798  1.00  0.00    -0.243 A  
HETATM   14  H   UNL     1     -10.347  18.094  64.588  1.00  0.00     0.000 HD 
HETATM   15  C   UNL     1      -8.601  17.097  66.132  1.00  0.00    -0.222 A  
BRANCH  11  16
HETATM   16  O   UNL     1     -11.491  14.908  65.876  1.00  0.00    -0.342 OA 
HETATM   17  C   UNL     1     -11.523  14.156  64.668  1.00  0.00    -0.387 C  
ENDBRANCH  11  16
ENDBRANCH   2   8
TORSDOF 5
ENDMDL
MODEL      196
REMARK 921   NORMALIZED FREE ENERGY PREDICTED BY IDOCK:   -2.66 KCAL/MOL
REMARK 922        TOTAL FREE ENERGY PREDICTED BY IDOCK:   -3.81 KCAL/MOL
REMARK 923 INTER-LIGAND FREE ENERGY PREDICTED BY IDOCK:   -3.43 KCAL/MOL
REMARK 924 INTRA-LIGAND FREE ENERGY PREDICTED BY IDOCK:   -0.38 KCAL/MOL
REMARK 927      BINDING AFFINITY PREDICTED BY RF-SCORE:    0.00 PKD
ROOT
HETATM    1  C   UNL     1      -9.764   7.997  70.292  1.00  0.00    -0.175 C  
HETATM    2  C   UNL     1      -8.750   7.739  69.452  1.00  0.00    -0.135 C  
ENDROOT
BRANCH   1   3
HETATM    3  C   UNL     1      -9.593   8.700  71.581  1.00  0.00    -0.274 C  
HETATM    4  O   UNL     1      -8.495   9.054  71.982  1.00  0.00    -0.368 OA 
BRANCH   3   5
HETATM    5  O   UNL     1     -10.762   8.775  72.261  1.00  0.00    -0.344 OA 
BRANCH   5   6
HETATM    6  C   UNL     1     -11.390   7.519  72.546  1.00  0.00    -0.334 C  
HETATM    7  C   UNL     1     -10.610   6.848  73.664  1.00  0.00    -0.371 C  
ENDBRANCH   5   6
ENDBRANCH   3   5
ENDBRANCH   1   3
BRANCH   2   8
HETATM    8  C   UNL     1      -8.903   7.179  68.103  1.00  0.00    -0.126 A  
HETATM    9  O   UNL     1      -9.011   5.389  64.358  1.00  0.00    -0.350 OA 
HETATM   10  C   UNL     1      -9.299   5.836  67.981  1.00  0.00    -0.112 A  
HETATM   11  C   UNL     1      -9.346   5.222  66.728  1.00  0.00    -0.134 A  
HETATM   12  C   UNL     1      -8.556   7.902  66.951  1.00  0.00    -0.130 A  
HETATM   13  C   UNL     1      -8.998   5.968  65.598  1.00  0.00    -0.064 A  
HETATM   14  H   UNL     1      -8.774   5.895  63.591  1.00  0.00     0.000 HD 
HETATM   15  C   UNL     1      -8.610   7.298  65.696  1.00  0.00    -0.123 A  
BRANCH  11  16
HETATM   16  O   UNL     1      -9.692   3.918  66.482  1.00  0.00    -0.207 OA 
HETATM   17  C   UNL     1      -9.406   2.980  67.514  1.00  0.00    -0.185 C  
ENDBRANCH  11  16
ENDBRANCH   2   8
TORSDOF 5
ENDMDL
MODEL      197
REMARK 921   NORMALIZED FREE ENERGY PREDICTED BY IDOCK:   -2.65 KCAL/MOL
REMARK 922        TOTAL FREE ENERGY PREDICTED BY IDOCK:   -3.79 KCAL/MOL
REMARK 923 INTER-LIGAND FREE ENERGY PREDICTED BY IDOCK:   -3.45 KCAL/MOL
REMARK 924 INTRA-LIGAND FREE ENERGY PREDICTED BY IDOCK:   -0.35 KCAL/MOL
REMARK 927      BINDING AFFINITY PREDICTED BY RF-SCORE:    0.00 PKD
ROOT
HETATM    1  C   UNL     1      -8.630   7.701  65.530  1.00  0.00    -0.112 C  
HETATM    2  C   UNL     1      -8.575   8.910  66.108  1.00  0.00    -0.155 C  
ENDROOT
BRANCH   1   3
HETATM    3  C   UNL     1      -7.532   7.138  64.715  1.00  0.00    -0.096 C  
HETATM    4  O   UNL     1      -7.185   7.648  63.661  1.00  0.00    -0.070 OA 
BRANCH   3   5
HETATM    5  O   UNL     1      -7.084   5.969  65.233  1.00  0.00    -0.061 OA 
BRANCH   5   6
HETATM    6  C   UNL     1      -8.048   4.912  65.293  1.00  0.00    -0.115 C  
HETATM    7  C   UNL     1      -7.836   4.015  64.086  1.00  0.00    -0.085 C  
ENDBRANCH   5   6
ENDBRANCH   3   5
ENDBRANCH   1   3
BRANCH   2   8
HETATM    8  C   UNL     1      -9.578   9.438  67.043  1.00  0.00    -0.209 A  
HETATM    9  O   UNL     1     -12.189  11.248  69.715  1.00  0.00    -0.300 OA 
HETATM   10  C   UNL     1     -10.399  10.494  66.612  1.00  0.00    -0.295 A  
HETATM   11  C   UNL     1     -11.286  11.109  67.497  1.00  0.00    -0.301 A  
HETATM   12  C   UNL     1      -9.659   9.001  68.374  1.00  0.00    -0.163 A  
HETATM   13  C   UNL     1     -11.347  10.651  68.817  1.00  0.00    -0.277 A  
HETATM   14  H   UNL     1     -12.231  10.938  70.611  1.00  0.00     0.000 HD 
HETATM   15  C   UNL     1     -10.550   9.605  69.261  1.00  0.00    -0.236 A  
BRANCH  11  16
HETATM   16  O   UNL     1     -12.118  12.159  67.205  1.00  0.00    -0.575 OA 
HETATM   17  C   UNL     1     -11.753  12.966  66.090  1.00  0.00    -0.396 C  
ENDBRANCH  11  16
ENDBRANCH   2   8
TORSDOF 5
ENDMDL
MODEL      198
REMARK 921   NORMALIZED FREE ENERGY PREDICTED BY IDOCK:   -2.60 KCAL/MOL
REMARK 922        TOTAL FREE ENERGY PREDICTED BY IDOCK:   -3.73 KCAL/MOL
REMARK 923 INTER-LIGAND FREE ENERGY PREDICTED BY IDOCK:   -3.29 KCAL/MOL
REMARK 924 INTRA-LIGAND FREE ENERGY PREDICTED BY IDOCK:   -0.44 KCAL/MOL
REMARK 927      BINDING AFFINITY PREDICTED BY RF-SCORE:    0.00 PKD
ROOT
HETATM    1  C   UNL     1     -10.323   5.893  71.048  1.00  0.00    -0.281 C  
HETATM    2  C   UNL     1      -9.299   6.489  70.418  1.00  0.00    -0.166 C  
ENDROOT
BRANCH   1   3
HETATM    3  C   UNL     1     -10.609   6.074  72.487  1.00  0.00    -0.216 C  
HETATM    4  O   UNL     1     -10.522   5.151  73.282  1.00  0.00    -0.183 OA 
BRANCH   3   5
HETATM    5  O   UNL     1     -11.072   7.320  72.745  1.00  0.00    -0.283 OA 
BRANCH   5   6
HETATM    6  C   UNL     1     -12.349   7.634  72.176  1.00  0.00    -0.241 C  
HETATM    7  C   UNL     1     -12.312   9.078  71.709  1.00  0.00    -0.438 C  
ENDBRANCH   5   6
ENDBRANCH   3   5
ENDBRANCH   1   3
BRANCH   2   8
HETATM    8  C   UNL     1      -9.074   6.453  68.967  1.00  0.00    -0.130 A  
HETATM    9  O   UNL     1      -8.787   6.522  64.826  1.00  0.00    -0.341 OA 
HETATM   10  C   UNL     1      -8.802   7.662  68.305  1.00  0.00    -0.125 A  
HETATM   11  C   UNL     1      -8.697   7.700  66.914  1.00  0.00    -0.129 A  
HETATM   12  C   UNL     1      -9.237   5.278  68.217  1.00  0.00    -0.132 A  
HETATM   13  C   UNL     1      -8.861   6.514  66.192  1.00  0.00    -0.150 A  
HETATM   14  H   UNL     1      -8.898   5.716  64.335  1.00  0.00     0.000 HD 
HETATM   15  C   UNL     1      -9.123   5.308  66.827  1.00  0.00    -0.118 A  
BRANCH  11  16
HETATM   16  O   UNL     1      -8.460   8.817  66.154  1.00  0.00    -0.120 OA 
HETATM   17  C   UNL     1      -9.545   9.725  66.005  1.00  0.00    -0.235 C  
ENDBRANCH  11  16
ENDBRANCH   2   8
TORSDOF 5
ENDMDL
MODEL      199
REMARK 921   NORMALIZED FREE ENERGY PREDICTED BY IDOCK:   -2.53 KCAL/MOL
REMARK 922        TOTAL FREE ENERGY PREDICTED BY IDOCK:   -3.63 KCAL/MOL
REMARK 923 INTER-LIGAND FREE ENERGY PREDICTED BY IDOCK:   -3.83 KCAL/MOL
REMARK 924 INTRA-LIGAND FREE ENERGY PREDICTED BY IDOCK:    0.19 KCAL/MOL
REMARK 927      BINDING AFFINITY PREDICTED BY RF-SCORE:    0.00 PKD
ROOT
HETATM    1  C   UNL     1      -7.848  12.368  68.563  1.00  0.00    -0.112 C  
HETATM    2  C   UNL     1      -8.953  11.767  68.096  1.00  0.00    -0.181 C  
ENDROOT
BRANCH   1   3
HETATM    3  C   UNL     1      -6.821  11.671  69.365  1.00  0.00    -0.086 C  
HETATM    4  O   UNL     1      -5.630  11.769  69.112  1.00  0.00    -0.050 OA 
BRANCH   3   5
HETATM    5  O   UNL     1      -7.385  10.860  70.292  1.00  0.00    -0.026 OA 
BRANCH   5   6
HETATM    6  C   UNL     1      -7.859   9.600  69.801  1.00  0.00    -0.142 C  
HETATM    7  C   UNL     1      -6.814   8.547  70.128  1.00  0.00    -0.039 C  
ENDBRANCH   5   6
ENDBRANCH   3   5
ENDBRANCH   1   3
BRANCH   2   8
HETATM    8  C   UNL     1      -9.917  12.385  67.176  1.00  0.00    -0.211 A  
HETATM    9  O   UNL     1     -12.764  14.346  64.877  1.00  0.00    -0.614 OA 
HETATM   10  C   UNL     1      -9.703  13.718  66.786  1.00  0.00    -0.277 A  
HETATM   11  C   UNL     1     -10.649  14.389  66.008  1.00  0.00    -0.302 A  
HETATM   12  C   UNL     1     -11.091  11.729  66.774  1.00  0.00    -0.360 A  
HETATM   13  C   UNL     1     -11.807  13.709  65.620  1.00  0.00    -0.364 A  
HETATM   14  H   UNL     1     -13.551  13.885  64.614  1.00  0.00     0.000 HD 
HETATM   15  C   UNL     1     -12.034  12.390  65.989  1.00  0.00    -0.419 A  
BRANCH  11  16
HETATM   16  O   UNL     1     -10.567  15.691  65.586  1.00  0.00    -0.334 OA 
HETATM   17  C   UNL     1     -10.186  16.652  66.563  1.00  0.00    -0.310 C  
ENDBRANCH  11  16
ENDBRANCH   2   8
TORSDOF 5
ENDMDL
MODEL      200
REMARK 921   NORMALIZED FREE ENERGY PREDICTED BY IDOCK:   -2.51 KCAL/MOL
REMARK 922        TOTAL FREE ENERGY PREDICTED BY IDOCK:   -3.61 KCAL/MOL
REMARK 923 INTER-LIGAND FREE ENERGY PREDICTED BY IDOCK:   -3.44 KCAL/MOL
REMARK 924 INTRA-LIGAND FREE ENERGY PREDICTED BY IDOCK:   -0.18 KCAL/MOL
REMARK 927      BINDING AFFINITY PREDICTED BY RF-SCORE:    0.00 PKD
ROOT
HETATM    1  C   UNL     1      -9.179   7.773  69.955  1.00  0.00    -0.153 C  
HETATM    2  C   UNL     1      -9.793   7.661  68.767  1.00  0.00    -0.165 C  
ENDROOT
BRANCH   1   3
HETATM    3  C   UNL     1      -9.207   9.005  70.771  1.00  0.00    -0.245 C  
HETATM    4  O   UNL     1      -8.531   9.982  70.487  1.00  0.00    -0.092 OA 
BRANCH   3   5
HETATM    5  O   UNL     1      -9.962   8.843  71.884  1.00  0.00    -0.322 OA 
BRANCH   5   6
HETATM    6  C   UNL     1     -11.373   9.005  71.700  1.00  0.00    -0.360 C  
HETATM    7  C   UNL     1     -11.601  10.297  70.934  1.00  0.00    -0.454 C  
ENDBRANCH   5   6
ENDBRANCH   3   5
ENDBRANCH   1   3
BRANCH   2   8
HETATM    8  C   UNL     1      -9.912   6.413  68.002  1.00  0.00    -0.144 A  
HETATM    9  O   UNL     1      -9.937   3.002  65.635  1.00  0.00    -0.374 OA 
HETATM   10  C   UNL     1      -8.951   5.409  68.211  1.00  0.00    -0.112 A  
HETATM   11  C   UNL     1      -8.949   4.255  67.427  1.00  0.00    -0.120 A  
HETATM   12  C   UNL     1     -10.877   6.243  66.997  1.00  0.00    -0.458 A  
HETATM   13  C   UNL     1      -9.925   4.111  66.436  1.00  0.00    -0.155 A  
HETATM   14  H   UNL     1     -10.599   2.904  64.961  1.00  0.00     0.000 HD 
HETATM   15  C   UNL     1     -10.888   5.087  66.218  1.00  0.00    -0.150 A  
BRANCH  11  16
HETATM   16  O   UNL     1      -8.054   3.220  67.517  1.00  0.00    -0.080 OA 
HETATM   17  C   UNL     1      -6.748   3.464  67.006  1.00  0.00    -0.049 C  
ENDBRANCH  11  16
ENDBRANCH   2   8
TORSDOF 5
ENDMDL
MODEL      201
REMARK 921   NORMALIZED FREE ENERGY PREDICTED BY IDOCK:   -2.45 KCAL/MOL
REMARK 922        TOTAL FREE ENERGY PREDICTED BY IDOCK:   -3.53 KCAL/MOL
REMARK 923 INTER-LIGAND FREE ENERGY PREDICTED BY IDOCK:   -3.11 KCAL/MOL
REMARK 924 INTRA-LIGAND FREE ENERGY PREDICTED BY IDOCK:   -0.42 KCAL/MOL
REMARK 927      BINDING AFFINITY PREDICTED BY RF-SCORE:    0.00 PKD
ROOT
HETATM    1  C   UNL     1      -7.872   8.362  68.723  1.00  0.00    -0.115 C  
HETATM    2  C   UNL     1      -9.166   8.062  68.913  1.00  0.00    -0.147 C  
ENDROOT
BRANCH   1   3
HETATM    3  C   UNL     1      -7.368   9.072  67.529  1.00  0.00    -0.081 C  
HETATM    4  O   UNL     1      -6.365   9.767  67.567  1.00  0.00    -0.062 OA 
BRANCH   3   5
HETATM    5  O   UNL     1      -8.214   8.934  66.480  1.00  0.00    -0.111 OA 
BRANCH   5   6
HETATM    6  C   UNL     1      -8.498  10.136  65.754  1.00  0.00    -0.147 C  
HETATM    7  C   UNL     1     -10.006  10.292  65.677  1.00  0.00    -0.347 C  
ENDBRANCH   5   6
ENDBRANCH   3   5
ENDBRANCH   1   3
BRANCH   2   8
HETATM    8  C   UNL     1      -9.721   7.495  70.149  1.00  0.00    -0.172 A  
HETATM    9  O   UNL     1     -11.556   5.710  73.417  1.00  0.00    -0.464 OA 
HETATM   10  C   UNL     1      -9.530   6.125  70.396  1.00  0.00    -0.179 A  
HETATM   11  C   UNL     1     -10.135   5.511  71.494  1.00  0.00    -0.205 A  
HETATM   12  C   UNL     1     -10.527   8.246  71.018  1.00  0.00    -0.241 A  
HETATM   13  C   UNL     1     -10.930   6.285  72.346  1.00  0.00    -0.254 A  
HETATM   14  H   UNL     1     -12.096   6.235  73.995  1.00  0.00     0.000 HD 
HETATM   15  C   UNL     1     -11.126   7.641  72.123  1.00  0.00    -0.314 A  
BRANCH  11  16
HETATM   16  O   UNL     1     -10.045   4.184  71.827  1.00  0.00    -0.182 OA 
HETATM   17  C   UNL     1      -8.750   3.704  72.173  1.00  0.00    -0.092 C  
ENDBRANCH  11  16
ENDBRANCH   2   8
TORSDOF 5
ENDMDL
MODEL      202
REMARK 921   NORMALIZED FREE ENERGY PREDICTED BY IDOCK:   -2.42 KCAL/MOL
REMARK 922        TOTAL FREE ENERGY PREDICTED BY IDOCK:   -3.50 KCAL/MOL
REMARK 923 INTER-LIGAND FREE ENERGY PREDICTED BY IDOCK:   -3.09 KCAL/MOL
REMARK 924 INTRA-LIGAND FREE ENERGY PREDICTED BY IDOCK:   -0.41 KCAL/MOL
REMARK 927      BINDING AFFINITY PREDICTED BY RF-SCORE:    0.00 PKD
ROOT
HETATM    1  C   UNL     1      -8.559   7.137  71.174  1.00  0.00    -0.129 C  
HETATM    2  C   UNL     1      -9.062   7.699  70.064  1.00  0.00    -0.151 C  
ENDROOT
BRANCH   1   3
HETATM    3  C   UNL     1      -8.748   7.699  72.528  1.00  0.00    -0.132 C  
HETATM    4  O   UNL     1      -8.318   8.800  72.835  1.00  0.00    -0.414 OA 
BRANCH   3   5
HETATM    5  O   UNL     1      -9.333   6.801  73.357  1.00  0.00    -0.137 OA 
BRANCH   5   6
HETATM    6  C   UNL     1     -10.766   6.788  73.338  1.00  0.00    -0.305 C  
HETATM    7  C   UNL     1     -11.217   5.381  72.986  1.00  0.00    -0.370 C  
ENDBRANCH   5   6
ENDBRANCH   3   5
ENDBRANCH   1   3
BRANCH   2   8
HETATM    8  C   UNL     1      -9.021   7.093  68.727  1.00  0.00    -0.128 A  
HETATM    9  O   UNL     1      -9.163   5.655  64.835  1.00  0.00    -0.363 OA 
HETATM   10  C   UNL     1      -8.363   7.790  67.699  1.00  0.00    -0.121 A  
HETATM   11  C   UNL     1      -8.397   7.316  66.387  1.00  0.00    -0.124 A  
HETATM   12  C   UNL     1      -9.714   5.910  68.423  1.00  0.00    -0.151 A  
HETATM   13  C   UNL     1      -9.091   6.133  66.114  1.00  0.00    -0.145 A  
HETATM   14  H   UNL     1      -9.634   4.852  64.649  1.00  0.00     0.000 HD 
HETATM   15  C   UNL     1      -9.742   5.426  67.116  1.00  0.00    -0.159 A  
BRANCH  11  16
HETATM   16  O   UNL     1      -7.817   7.916  65.299  1.00  0.00    -0.097 OA 
HETATM   17  C   UNL     1      -8.351   9.176  64.908  1.00  0.00    -0.162 C  
ENDBRANCH  11  16
ENDBRANCH   2   8
TORSDOF 5
ENDMDL
MODEL      203
REMARK 921   NORMALIZED FREE ENERGY PREDICTED BY IDOCK:   -2.41 KCAL/MOL
REMARK 922        TOTAL FREE ENERGY PREDICTED BY IDOCK:   -3.49 KCAL/MOL
REMARK 923 INTER-LIGAND FREE ENERGY PREDICTED BY IDOCK:   -3.16 KCAL/MOL
REMARK 924 INTRA-LIGAND FREE ENERGY PREDICTED BY IDOCK:   -0.33 KCAL/MOL
REMARK 927      BINDING AFFINITY PREDICTED BY RF-SCORE:    0.00 PKD
ROOT
HETATM    1  C   UNL     1      -9.607  10.054  67.363  1.00  0.00    -0.182 C  
HETATM    2  C   UNL     1      -9.609   8.856  67.967  1.00  0.00    -0.167 C  
ENDROOT
BRANCH   1   3
HETATM    3  C   UNL     1      -9.482  11.333  68.094  1.00  0.00    -0.184 C  
HETATM    4  O   UNL     1      -8.705  12.205  67.738  1.00  0.00    -0.155 OA 
BRANCH   3   5
HETATM    5  O   UNL     1     -10.233  11.332  69.221  1.00  0.00    -0.154 OA 
BRANCH   5   6
HETATM    6  C   UNL     1     -11.644  11.483  69.021  1.00  0.00    -0.318 C  
HETATM    7  C   UNL     1     -12.356  10.838  70.197  1.00  0.00    -0.401 C  
ENDBRANCH   5   6
ENDBRANCH   3   5
ENDBRANCH   1   3
BRANCH   2   8
HETATM    8  C   UNL     1      -9.581   7.566  67.265  1.00  0.00    -0.198 A  
HETATM    9  O   UNL     1      -9.612   4.113  64.960  1.00  0.00    -0.159 OA 
HETATM   10  C   UNL     1      -8.549   7.333  66.341  1.00  0.00    -0.141 A  
HETATM   11  C   UNL     1      -8.542   6.174  65.563  1.00  0.00    -0.130 A  
HETATM   12  C   UNL     1     -10.609   6.620  67.403  1.00  0.00    -0.370 A  
HETATM   13  C   UNL     1      -9.577   5.247  65.724  1.00  0.00    -0.089 A  
HETATM   14  H   UNL     1     -10.315   3.484  65.068  1.00  0.00     0.000 HD 
HETATM   15  C   UNL     1     -10.602   5.455  66.636  1.00  0.00    -0.359 A  
BRANCH  11  16
HETATM   16  O   UNL     1      -7.608   5.845  64.614  1.00  0.00    -0.077 OA 
HETATM   17  C   UNL     1      -7.351   6.823  63.611  1.00  0.00    -0.073 C  
ENDBRANCH  11  16
ENDBRANCH   2   8
TORSDOF 5
ENDMDL
MODEL      204
REMARK 921   NORMALIZED FREE ENERGY PREDICTED BY IDOCK:   -2.36 KCAL/MOL
REMARK 922        TOTAL FREE ENERGY PREDICTED BY IDOCK:   -3.42 KCAL/MOL
REMARK 923 INTER-LIGAND FREE ENERGY PREDICTED BY IDOCK:   -3.06 KCAL/MOL
REMARK 924 INTRA-LIGAND FREE ENERGY PREDICTED BY IDOCK:   -0.35 KCAL/MOL
REMARK 927      BINDING AFFINITY PREDICTED BY RF-SCORE:    0.00 PKD
ROOT
HETATM    1  C   UNL     1      -9.627  11.694  68.134  1.00  0.00    -0.190 C  
HETATM    2  C   UNL     1      -8.686  12.284  67.382  1.00  0.00    -0.180 C  
ENDROOT
BRANCH   1   3
HETATM    3  C   UNL     1     -10.012  10.274  67.989  1.00  0.00    -0.153 C  
HETATM    4  O   UNL     1     -11.145   9.942  67.679  1.00  0.00    -0.267 OA 
BRANCH   3   5
HETATM    5  O   UNL     1      -9.001   9.449  68.352  1.00  0.00    -0.128 OA 
BRANCH   5   6
HETATM    6  C   UNL     1      -8.712   9.410  69.755  1.00  0.00    -0.181 C  
HETATM    7  C   UNL     1      -9.221   8.087  70.301  1.00  0.00    -0.155 C  
ENDBRANCH   5   6
ENDBRANCH   3   5
ENDBRANCH   1   3
BRANCH   2   8
HETATM    8  C   UNL     1      -8.175  13.644  67.596  1.00  0.00    -0.178 A  
HETATM    9  O   UNL     1      -6.799  17.555  67.823  1.00  0.00    -0.169 OA 
HETATM   10  C   UNL     1      -9.091  14.710  67.580  1.00  0.00    -0.192 A  
HETATM   11  C   UNL     1      -8.644  16.030  67.661  1.00  0.00    -0.166 A  
HETATM   12  C   UNL     1      -6.802  13.917  67.698  1.00  0.00    -0.193 A  
HETATM   13  C   UNL     1      -7.271  16.272  67.765  1.00  0.00    -0.134 A  
HETATM   14  H   UNL     1      -5.866  17.719  67.893  1.00  0.00     0.000 HD 
HETATM   15  C   UNL     1      -6.350  15.233  67.790  1.00  0.00    -0.181 A  
BRANCH  11  16
HETATM   16  O   UNL     1      -9.433  17.151  67.632  1.00  0.00    -0.237 OA 
HETATM   17  C   UNL     1     -10.182  17.431  68.809  1.00  0.00    -0.361 C  
ENDBRANCH  11  16
ENDBRANCH   2   8
TORSDOF 5
ENDMDL
MODEL      205
REMARK 921   NORMALIZED FREE ENERGY PREDICTED BY IDOCK:   -2.36 KCAL/MOL
REMARK 922        TOTAL FREE ENERGY PREDICTED BY IDOCK:   -3.41 KCAL/MOL
REMARK 923 INTER-LIGAND FREE ENERGY PREDICTED BY IDOCK:   -3.04 KCAL/MOL
REMARK 924 INTRA-LIGAND FREE ENERGY PREDICTED BY IDOCK:   -0.37 KCAL/MOL
REMARK 927      BINDING AFFINITY PREDICTED BY RF-SCORE:    0.00 PKD
ROOT
HETATM    1  C   UNL     1      -8.926   7.855  65.729  1.00  0.00    -0.125 C  
HETATM    2  C   UNL     1      -8.813   9.182  65.891  1.00  0.00    -0.209 C  
ENDROOT
BRANCH   1   3
HETATM    3  C   UNL     1      -8.002   7.056  64.899  1.00  0.00    -0.127 C  
HETATM    4  O   UNL     1      -7.913   7.220  63.692  1.00  0.00    -0.129 OA 
BRANCH   3   5
HETATM    5  O   UNL     1      -7.395   6.088  65.628  1.00  0.00    -0.073 OA 
BRANCH   5   6
HETATM    6  C   UNL     1      -6.233   6.503  66.356  1.00  0.00    -0.037 C  
HETATM    7  C   UNL     1      -6.001   5.504  67.476  1.00  0.00    -0.022 C  
ENDBRANCH   5   6
ENDBRANCH   3   5
ENDBRANCH   1   3
BRANCH   2   8
HETATM    8  C   UNL     1      -9.619   9.983  66.823  1.00  0.00    -0.228 A  
HETATM    9  O   UNL     1     -12.161  11.957  69.445  1.00  0.00    -0.280 OA 
HETATM   10  C   UNL     1      -9.726   9.547  68.154  1.00  0.00    -0.166 A  
HETATM   11  C   UNL     1     -10.572  10.204  69.049  1.00  0.00    -0.223 A  
HETATM   12  C   UNL     1     -10.370  11.090  66.398  1.00  0.00    -0.302 A  
HETATM   13  C   UNL     1     -11.305  11.306  68.599  1.00  0.00    -0.273 A  
HETATM   14  H   UNL     1     -12.659  12.706  69.140  1.00  0.00     0.000 HD 
HETATM   15  C   UNL     1     -11.209  11.757  67.290  1.00  0.00    -0.364 A  
BRANCH  11  16
HETATM   16  O   UNL     1     -10.780   9.862  70.361  1.00  0.00    -0.279 OA 
HETATM   17  C   UNL     1     -10.616   8.487  70.692  1.00  0.00    -0.209 C  
ENDBRANCH  11  16
ENDBRANCH   2   8
TORSDOF 5
ENDMDL
MODEL      206
REMARK 921   NORMALIZED FREE ENERGY PREDICTED BY IDOCK:   -2.26 KCAL/MOL
REMARK 922        TOTAL FREE ENERGY PREDICTED BY IDOCK:   -3.29 KCAL/MOL
REMARK 923 INTER-LIGAND FREE ENERGY PREDICTED BY IDOCK:   -2.98 KCAL/MOL
REMARK 924 INTRA-LIGAND FREE ENERGY PREDICTED BY IDOCK:   -0.31 KCAL/MOL
REMARK 927      BINDING AFFINITY PREDICTED BY RF-SCORE:    0.00 PKD
ROOT
HETATM    1  C   UNL     1      -8.656   7.720  64.527  1.00  0.00     0.201 C  
HETATM    2  C   UNL     1      -8.429   9.016  64.263  1.00  0.00    -0.185 C  
ENDROOT
BRANCH   1   3
HETATM    3  C   UNL     1      -7.915   6.616  63.882  1.00  0.00    -0.075 C  
HETATM    4  O   UNL     1      -8.458   5.839  63.112  1.00  0.00    -0.079 OA 
BRANCH   3   5
HETATM    5  O   UNL     1      -6.645   6.537  64.347  1.00  0.00    -0.036 OA 
BRANCH   5   6
HETATM    6  C   UNL     1      -6.352   5.381  65.142  1.00  0.00    -0.034 C  
HETATM    7  C   UNL     1      -5.338   5.785  66.198  1.00  0.00    -0.009 C  
ENDBRANCH   5   6
ENDBRANCH   3   5
ENDBRANCH   1   3
BRANCH   2   8
HETATM    8  C   UNL     1      -9.037  10.137  64.991  1.00  0.00    -0.245 A  
HETATM    9  O   UNL     1     -10.676  13.530  66.734  1.00  0.00    -0.276 OA 
HETATM   10  C   UNL     1     -10.284  10.616  64.554  1.00  0.00    -0.399 A  
HETATM   11  C   UNL     1     -10.851  11.752  65.134  1.00  0.00    -0.297 A  
HETATM   12  C   UNL     1      -8.364  10.812  66.021  1.00  0.00    -0.163 A  
HETATM   13  C   UNL     1     -10.159  12.401  66.161  1.00  0.00    -0.248 A  
HETATM   14  H   UNL     1     -10.206  13.972  67.432  1.00  0.00     0.000 HD 
HETATM   15  C   UNL     1      -8.929  11.941  66.612  1.00  0.00    -0.198 A  
BRANCH  11  16
HETATM   16  O   UNL     1     -12.045  12.327  64.781  1.00  0.00    -0.395 OA 
HETATM   17  C   UNL     1     -12.526  12.038  63.473  1.00  0.00    -0.540 C  
ENDBRANCH  11  16
ENDBRANCH   2   8
TORSDOF 5
ENDMDL
MODEL      207
REMARK 921   NORMALIZED FREE ENERGY PREDICTED BY IDOCK:   -2.14 KCAL/MOL
REMARK 922        TOTAL FREE ENERGY PREDICTED BY IDOCK:   -3.13 KCAL/MOL
REMARK 923 INTER-LIGAND FREE ENERGY PREDICTED BY IDOCK:   -3.23 KCAL/MOL
REMARK 924 INTRA-LIGAND FREE ENERGY PREDICTED BY IDOCK:    0.10 KCAL/MOL
REMARK 927      BINDING AFFINITY PREDICTED BY RF-SCORE:    0.00 PKD
ROOT
HETATM    1  C   UNL     1      -9.680  13.865  65.734  1.00  0.00    -0.190 C  
HETATM    2  C   UNL     1      -8.913  13.912  66.833  1.00  0.00    -0.236 C  
ENDROOT
BRANCH   1   3
HETATM    3  C   UNL     1     -10.400  15.038  65.193  1.00  0.00    -0.392 C  
HETATM    4  O   UNL     1      -9.917  16.159  65.220  1.00  0.00    -0.487 OA 
BRANCH   3   5
HETATM    5  O   UNL     1     -11.653  14.708  64.799  1.00  0.00    -0.386 OA 
BRANCH   5   6
HETATM    6  C   UNL     1     -12.138  13.448  65.277  1.00  0.00    -0.413 C  
HETATM    7  C   UNL     1     -12.505  13.611  66.742  1.00  0.00    -0.241 C  
ENDBRANCH   5   6
ENDBRANCH   3   5
ENDBRANCH   1   3
BRANCH   2   8
HETATM    8  C   UNL     1      -8.068  12.809  67.312  1.00  0.00    -0.172 A  
HETATM    9  O   UNL     1      -6.008   9.531  68.808  1.00  0.00    -0.043 OA 
HETATM   10  C   UNL     1      -8.164  11.567  66.662  1.00  0.00    -0.156 A  
HETATM   11  C   UNL     1      -7.473  10.457  67.149  1.00  0.00    -0.092 A  
HETATM   12  C   UNL     1      -7.267  12.927  68.458  1.00  0.00    -0.107 A  
HETATM   13  C   UNL     1      -6.679  10.604  68.291  1.00  0.00    -0.063 A  
HETATM   14  H   UNL     1      -5.469   9.630  69.584  1.00  0.00     0.000 HD 
HETATM   15  C   UNL     1      -6.566  11.824  68.944  1.00  0.00    -0.082 A  
BRANCH  11  16
HETATM   16  O   UNL     1      -7.503   9.192  66.620  1.00  0.00    -0.085 OA 
HETATM   17  C   UNL     1      -7.029   9.052  65.285  1.00  0.00    -0.083 C  
ENDBRANCH  11  16
ENDBRANCH   2   8
TORSDOF 5
ENDMDL
MODEL      208
REMARK 921   NORMALIZED FREE ENERGY PREDICTED BY IDOCK:   -2.10 KCAL/MOL
REMARK 922        TOTAL FREE ENERGY PREDICTED BY IDOCK:   -3.08 KCAL/MOL
REMARK 923 INTER-LIGAND FREE ENERGY PREDICTED BY IDOCK:   -2.99 KCAL/MOL
REMARK 924 INTRA-LIGAND FREE ENERGY PREDICTED BY IDOCK:   -0.09 KCAL/MOL
REMARK 927      BINDING AFFINITY PREDICTED BY RF-SCORE:    0.00 PKD
ROOT
HETATM    1  C   UNL     1     -10.865   8.557  70.076  1.00  0.00    -0.225 C  
HETATM    2  C   UNL     1      -9.935   8.664  69.116  1.00  0.00    -0.193 C  
ENDROOT
BRANCH   1   3
HETATM    3  C   UNL     1     -11.548   9.721  70.680  1.00  0.00    -0.313 C  
HETATM    4  O   UNL     1     -11.426  10.848  70.224  1.00  0.00    -0.300 OA 
BRANCH   3   5
HETATM    5  O   UNL     1     -12.193   9.378  71.820  1.00  0.00    -0.353 OA 
BRANCH   5   6
HETATM    6  C   UNL     1     -12.140   7.988  72.163  1.00  0.00    -0.343 C  
HETATM    7  C   UNL     1     -11.149   7.824  73.303  1.00  0.00    -0.190 C  
ENDBRANCH   5   6
ENDBRANCH   3   5
ENDBRANCH   1   3
BRANCH   2   8
HETATM    8  C   UNL     1      -9.347   7.529  68.392  1.00  0.00    -0.141 A  
HETATM    9  O   UNL     1      -7.827   4.091  66.628  1.00  0.00    -0.091 OA 
HETATM   10  C   UNL     1     -10.212   6.641  67.730  1.00  0.00    -0.207 A  
HETATM   11  C   UNL     1      -9.716   5.485  67.127  1.00  0.00    -0.142 A  
HETATM   12  C   UNL     1      -7.973   7.244  68.441  1.00  0.00    -0.124 A  
HETATM   13  C   UNL     1      -8.342   5.228  67.189  1.00  0.00    -0.107 A  
HETATM   14  H   UNL     1      -6.895   3.916  66.670  1.00  0.00     0.000 HD 
HETATM   15  C   UNL     1      -7.470   6.095  67.832  1.00  0.00    -0.085 A  
BRANCH  11  16
HETATM   16  O   UNL     1     -10.458   4.533  66.474  1.00  0.00    -0.209 OA 
HETATM   17  C   UNL     1     -10.620   4.708  65.071  1.00  0.00     0.038 C  
ENDBRANCH  11  16
ENDBRANCH   2   8
TORSDOF 5
ENDMDL
MODEL      209
REMARK 921   NORMALIZED FREE ENERGY PREDICTED BY IDOCK:   -1.91 KCAL/MOL
REMARK 922        TOTAL FREE ENERGY PREDICTED BY IDOCK:   -2.84 KCAL/MOL
REMARK 923 INTER-LIGAND FREE ENERGY PREDICTED BY IDOCK:   -2.54 KCAL/MOL
REMARK 924 INTRA-LIGAND FREE ENERGY PREDICTED BY IDOCK:   -0.29 KCAL/MOL
REMARK 927      BINDING AFFINITY PREDICTED BY RF-SCORE:    0.00 PKD
ROOT
HETATM    1  C   UNL     1      -8.733   8.161  68.998  1.00  0.00    -0.144 C  
HETATM    2  C   UNL     1      -7.820   8.172  68.015  1.00  0.00    -0.122 C  
ENDROOT
BRANCH   1   3
HETATM    3  C   UNL     1      -8.580   8.915  70.259  1.00  0.00    -0.167 C  
HETATM    4  O   UNL     1      -7.639   8.725  71.014  1.00  0.00    -0.088 OA 
BRANCH   3   5
HETATM    5  O   UNL     1      -9.649   9.715  70.489  1.00  0.00    -0.258 OA 
BRANCH   5   6
HETATM    6  C   UNL     1     -10.687   9.140  71.292  1.00  0.00    -0.331 C  
HETATM    7  C   UNL     1     -11.930   9.998  71.135  1.00  0.00    -0.484 C  
ENDBRANCH   5   6
ENDBRANCH   3   5
ENDBRANCH   1   3
BRANCH   2   8
HETATM    8  C   UNL     1      -8.005   7.558  66.693  1.00  0.00    -0.110 A  
HETATM    9  O   UNL     1      -8.200   5.622  63.026  1.00  0.00    -0.107 OA 
HETATM   10  C   UNL     1      -8.397   6.210  66.634  1.00  0.00    -0.111 A  
HETATM   11  C   UNL     1      -8.472   5.547  65.409  1.00  0.00    -0.146 A  
HETATM   12  C   UNL     1      -7.691   8.237  65.506  1.00  0.00    -0.101 A  
HETATM   13  C   UNL     1      -8.158   6.249  64.241  1.00  0.00    -0.080 A  
HETATM   14  H   UNL     1      -7.986   6.098  62.233  1.00  0.00     0.000 HD 
HETATM   15  C   UNL     1      -7.775   7.583  64.277  1.00  0.00    -0.128 A  
BRANCH  11  16
HETATM   16  O   UNL     1      -8.817   4.233  65.223  1.00  0.00    -0.123 OA 
HETATM   17  C   UNL     1     -10.199   3.914  65.356  1.00  0.00    -0.042 C  
ENDBRANCH  11  16
ENDBRANCH   2   8
TORSDOF 5
ENDMDL
MODEL      210
REMARK 921   NORMALIZED FREE ENERGY PREDICTED BY IDOCK:   -1.87 KCAL/MOL
REMARK 922        TOTAL FREE ENERGY PREDICTED BY IDOCK:   -2.78 KCAL/MOL
REMARK 923 INTER-LIGAND FREE ENERGY PREDICTED BY IDOCK:   -2.54 KCAL/MOL
REMARK 924 INTRA-LIGAND FREE ENERGY PREDICTED BY IDOCK:   -0.24 KCAL/MOL
REMARK 927      BINDING AFFINITY PREDICTED BY RF-SCORE:    0.00 PKD
ROOT
HETATM    1  C   UNL     1      -8.619  14.044  68.249  1.00  0.00    -0.180 C  
HETATM    2  C   UNL     1      -8.277  12.843  68.741  1.00  0.00     0.116 C  
ENDROOT
BRANCH   1   3
HETATM    3  C   UNL     1      -7.949  15.303  68.637  1.00  0.00    -0.149 C  
HETATM    4  O   UNL     1      -6.852  15.310  69.175  1.00  0.00    -0.118 OA 
BRANCH   3   5
HETATM    5  O   UNL     1      -8.750  16.374  68.424  1.00  0.00    -0.197 OA 
BRANCH   5   6
HETATM    6  C   UNL     1      -8.183  17.417  67.622  1.00  0.00    -0.206 C  
HETATM    7  C   UNL     1      -9.311  18.332  67.177  1.00  0.00    -0.264 C  
ENDBRANCH   5   6
ENDBRANCH   3   5
ENDBRANCH   1   3
BRANCH   2   8
HETATM    8  C   UNL     1      -8.817  11.561  68.270  1.00  0.00    -0.166 A  
HETATM    9  O   UNL     1      -9.974   7.808  66.925  1.00  0.00    -0.213 OA 
HETATM   10  C   UNL     1      -8.790  10.465  69.148  1.00  0.00    -0.180 A  
HETATM   11  C   UNL     1      -9.182   9.198  68.712  1.00  0.00    -0.136 A  
HETATM   12  C   UNL     1      -9.245  11.374  66.946  1.00  0.00    -0.183 A  
HETATM   13  C   UNL     1      -9.607   9.041  67.390  1.00  0.00    -0.152 A  
HETATM   14  H   UNL     1     -10.263   7.701  66.026  1.00  0.00     0.000 HD 
HETATM   15  C   UNL     1      -9.647  10.113  66.508  1.00  0.00    -0.236 A  
BRANCH  11  16
HETATM   16  O   UNL     1      -9.178   8.050  69.463  1.00  0.00    -0.152 OA 
HETATM   17  C   UNL     1      -7.928   7.381  69.592  1.00  0.00    -0.126 C  
ENDBRANCH  11  16
ENDBRANCH   2   8
TORSDOF 5
ENDMDL
MODEL      211
REMARK 921   NORMALIZED FREE ENERGY PREDICTED BY IDOCK:    1.69 KCAL/MOL
REMARK 922        TOTAL FREE ENERGY PREDICTED BY IDOCK:    1.82 KCAL/MOL
REMARK 923 INTER-LIGAND FREE ENERGY PREDICTED BY IDOCK:    2.06 KCAL/MOL
REMARK 924 INTRA-LIGAND FREE ENERGY PREDICTED BY IDOCK:   -0.24 KCAL/MOL
REMARK 927      BINDING AFFINITY PREDICTED BY RF-SCORE:    0.00 PKD
ROOT
HETATM    1  C   UNL     1     -12.126  12.609  70.698  1.00  0.00    -0.315 C  
HETATM    2  C   UNL     1     -12.370  12.975  71.966  1.00  0.00     0.421 C  
ENDROOT
BRANCH   1   3
HETATM    3  C   UNL     1     -12.376  11.247  70.183  1.00  0.00    -0.276 C  
HETATM    4  O   UNL     1     -12.340  10.266  70.910  1.00  0.00    -0.315 OA 
BRANCH   3   5
HETATM    5  O   UNL     1     -12.521  11.248  68.836  1.00  0.00    -0.433 OA 
BRANCH   5   6
HETATM    6  C   UNL     1     -11.396  11.736  68.096  1.00  0.00    -0.284 C  
HETATM    7  C   UNL     1     -11.830  12.990  67.356  1.00  0.00    -0.411 C  
ENDBRANCH   5   6
ENDBRANCH   3   5
ENDBRANCH   1   3
BRANCH   2   8
HETATM    8  C   UNL     1     -12.276  14.351  72.472  1.00  0.00    -0.144 A  
HETATM    9  O   UNL     1     -11.622  18.209  73.859  1.00  0.00     0.418 OA 
HETATM   10  C   UNL     1     -11.941  15.372  71.567  1.00  0.00    -0.443 A  
HETATM   11  C   UNL     1     -11.723  16.675  72.017  1.00  0.00    -0.055 A  
HETATM   12  C   UNL     1     -12.394  14.653  73.838  1.00  0.00    -0.216 A  
HETATM   13  C   UNL     1     -11.851  16.948  73.383  1.00  0.00     0.055 A  
HETATM   14  H   UNL     1     -11.708  18.394  74.786  1.00  0.00     0.000 HD 
HETATM   15  C   UNL     1     -12.188  15.955  74.293  1.00  0.00    -0.657 A  
BRANCH  11  16
HETATM   16  O   UNL     1     -11.370  17.748  71.239  1.00  0.00     1.658 OA 
HETATM   17  C   UNL     1     -10.028  17.772  70.764  1.00  0.00     3.054 C  
ENDBRANCH  11  16
ENDBRANCH   2   8
TORSDOF 5
ENDMDL
MODEL      212
REMARK 921   NORMALIZED FREE ENERGY PREDICTED BY IDOCK:   12.46 KCAL/MOL
REMARK 922        TOTAL FREE ENERGY PREDICTED BY IDOCK:   15.74 KCAL/MOL
REMARK 923 INTER-LIGAND FREE ENERGY PREDICTED BY IDOCK:   14.91 KCAL/MOL
REMARK 924 INTRA-LIGAND FREE ENERGY PREDICTED BY IDOCK:    0.83 KCAL/MOL
REMARK 927      BINDING AFFINITY PREDICTED BY RF-SCORE:    0.00 PKD
ROOT
HETATM    1  C   UNL     1      -6.761  16.330  70.224  1.00  0.00     0.548 C  
HETATM    2  C   UNL     1      -7.140  16.380  68.938  1.00  0.00    -0.195 C  
ENDROOT
BRANCH   1   3
HETATM    3  C   UNL     1      -6.659  15.073  70.994  1.00  0.00     0.561 C  
HETATM    4  O   UNL     1      -6.008  14.998  72.024  1.00  0.00     0.420 OA 
BRANCH   3   5
HETATM    5  O   UNL     1      -7.267  14.049  70.347  1.00  0.00     0.445 OA 
BRANCH   5   6
HETATM    6  C   UNL     1      -8.468  13.561  70.958  1.00  0.00     7.488 C  
HETATM    7  C   UNL     1      -8.811  14.481  72.117  1.00  0.00     7.069 C  
ENDBRANCH   5   6
ENDBRANCH   3   5
ENDBRANCH   1   3
BRANCH   2   8
HETATM    8  C   UNL     1      -7.108  17.588  68.103  1.00  0.00    -0.206 A  
HETATM    9  O   UNL     1      -7.375  20.898  65.611  1.00  0.00    -0.478 OA 
HETATM   10  C   UNL     1      -7.949  18.659  68.450  1.00  0.00    -0.351 A  
HETATM   11  C   UNL     1      -8.045  19.781  67.626  1.00  0.00    -0.296 A  
HETATM   12  C   UNL     1      -6.360  17.656  66.917  1.00  0.00    -0.206 A  
HETATM   13  C   UNL     1      -7.286  19.824  66.452  1.00  0.00    -0.255 A  
HETATM   14  H   UNL     1      -6.859  20.927  64.814  1.00  0.00     0.000 HD 
HETATM   15  C   UNL     1      -6.444  18.779  66.095  1.00  0.00    -0.241 A  
BRANCH  11  16
HETATM   16  O   UNL     1      -8.844  20.875  67.842  1.00  0.00     0.053 OA 
HETATM   17  C   UNL     1      -9.849  21.129  66.868  1.00  0.00     0.555 C  
ENDBRANCH  11  16
ENDBRANCH   2   8
TORSDOF 5
ENDMDL
MODEL      213
REMARK 921   NORMALIZED FREE ENERGY PREDICTED BY IDOCK:   23.75 KCAL/MOL
REMARK 922        TOTAL FREE ENERGY PREDICTED BY IDOCK:   30.33 KCAL/MOL
REMARK 923 INTER-LIGAND FREE ENERGY PREDICTED BY IDOCK:   29.43 KCAL/MOL
REMARK 924 INTRA-LIGAND FREE ENERGY PREDICTED BY IDOCK:    0.90 KCAL/MOL
REMARK 927      BINDING AFFINITY PREDICTED BY RF-SCORE:    0.00 PKD
ROOT
HETATM    1  C   UNL     1      -6.863  16.297  70.307  1.00  0.00     0.692 C  
HETATM    2  C   UNL     1      -7.288  16.018  69.066  1.00  0.00    -0.191 C  
ENDROOT
BRANCH   1   3
HETATM    3  C   UNL     1      -6.781  15.288  71.385  1.00  0.00     1.430 C  
HETATM    4  O   UNL     1      -6.054  15.438  72.354  1.00  0.00     1.084 OA 
BRANCH   3   5
HETATM    5  O   UNL     1      -7.504  14.183  71.082  1.00  0.00     1.688 OA 
BRANCH   5   6
HETATM    6  C   UNL     1      -8.621  13.924  71.941  1.00  0.00     9.844 C  
HETATM    7  C   UNL     1      -8.754  15.092  72.903  1.00  0.00     9.125 C  
ENDBRANCH   5   6
ENDBRANCH   3   5
ENDBRANCH   1   3
BRANCH   2   8
HETATM    8  C   UNL     1      -7.242  16.955  67.936  1.00  0.00    -0.159 A  
HETATM    9  O   UNL     1      -6.721  19.567  64.751  1.00  0.00    -0.401 OA 
HETATM   10  C   UNL     1      -6.896  16.454  66.669  1.00  0.00    -0.087 A  
HETATM   11  C   UNL     1      -6.724  17.319  65.587  1.00  0.00     0.469 A  
HETATM   12  C   UNL     1      -7.415  18.337  68.106  1.00  0.00    -0.270 A  
HETATM   13  C   UNL     1      -6.906  18.691  65.785  1.00  0.00    -0.272 A  
HETATM   14  H   UNL     1      -6.845  20.499  64.885  1.00  0.00     0.000 HD 
HETATM   15  C   UNL     1      -7.254  19.206  67.027  1.00  0.00    -0.216 A  
BRANCH  11  16
HETATM   16  O   UNL     1      -6.366  16.956  64.314  1.00  0.00     4.780 OA 
HETATM   17  C   UNL     1      -5.148  17.500  63.818  1.00  0.00     1.916 C  
ENDBRANCH  11  16
ENDBRANCH   2   8
TORSDOF 5
ENDMDL
