MODEL        1
REMARK 921   NORMALIZED FREE ENERGY PREDICTED BY IDOCK:   -5.50 KCAL/MOL
REMARK 922        TOTAL FREE ENERGY PREDICTED BY IDOCK:   -9.05 KCAL/MOL
REMARK 923 INTER-LIGAND FREE ENERGY PREDICTED BY IDOCK:   -8.07 KCAL/MOL
REMARK 924 INTRA-LIGAND FREE ENERGY PREDICTED BY IDOCK:   -0.97 KCAL/MOL
REMARK 927      BINDING AFFINITY PREDICTED BY RF-SCORE:    0.00 PKD
ROOT
HETATM    1  C   UNL     1     -11.386  15.618  64.594  1.00  0.00    -0.355 C  
HETATM    2  C   UNL     1     -12.302  14.403  64.546  1.00  0.00    -0.440 C  
ENDROOT
BRANCH   2   3
HETATM    3  C   UNL     1     -12.399  13.670  65.900  1.00  0.00    -0.471 C  
BRANCH   3   4
HETATM    4  N   UNL     1     -11.768  12.328  65.985  1.00  0.00    -0.489 NA 
BRANCH   4   5
HETATM    5  C   UNL     1     -10.751  12.256  67.106  1.00  0.00    -0.233 C  
BRANCH   5   6
HETATM    6  C   UNL     1     -11.469  12.104  68.452  1.00  0.00    -0.304 C  
HETATM    7  H   UNL     1     -12.852  11.036  69.266  1.00  0.00     0.000 HD 
HETATM    8  O   UNL     1     -12.408  11.130  68.431  1.00  0.00    -0.556 OA 
BRANCH   6   9
HETATM    9  N   UNL     1     -11.206  12.851  69.467  1.00  0.00    -0.460 NA 
HETATM   10  H   UNL     1     -10.231  13.078  69.665  1.00  0.00     0.000 HD 
BRANCH   9  11
HETATM   11  C   UNL     1     -12.209  13.372  70.321  1.00  0.00    -0.335 A  
HETATM   12  C   UNL     1     -12.807  12.648  71.383  1.00  0.00    -0.358 A  
HETATM   13  C   UNL     1     -13.719  13.285  72.244  1.00  0.00    -0.686 A  
HETATM   14  C   UNL     1     -12.566  11.192  71.656  1.00  0.00    -0.386 C  
HETATM   15  C   UNL     1     -14.001  14.636  72.119  1.00  0.00    -0.591 A  
HETATM   16  C   UNL     1     -13.402  15.368  71.103  1.00  0.00    -0.580 A  
HETATM   17  C   UNL     1     -12.520  14.750  70.197  1.00  0.00    -0.359 A  
HETATM   18  C   UNL     1     -11.919  15.600  69.105  1.00  0.00    -0.329 C  
ENDBRANCH   9  11
ENDBRANCH   6   9
ENDBRANCH   5   6
BRANCH   5  19
HETATM   19  C   UNL     1      -9.810  13.486  67.236  1.00  0.00    -0.237 C  
HETATM   20  C   UNL     1      -8.314  13.172  67.290  1.00  0.00    -0.182 C  
ENDBRANCH   5  19
ENDBRANCH   4   5
BRANCH   4  21
HETATM   21  C   UNL     1     -11.166  11.952  64.677  1.00  0.00    -0.305 C  
HETATM   22  C   UNL     1     -10.190  10.775  64.652  1.00  0.00    -0.419 C  
ENDBRANCH   4  21
ENDBRANCH   3   4
ENDBRANCH   2   3
TORSDOF 8
ENDMDL
MODEL        2
REMARK 921   NORMALIZED FREE ENERGY PREDICTED BY IDOCK:   -5.37 KCAL/MOL
REMARK 922        TOTAL FREE ENERGY PREDICTED BY IDOCK:   -8.86 KCAL/MOL
REMARK 923 INTER-LIGAND FREE ENERGY PREDICTED BY IDOCK:   -8.20 KCAL/MOL
REMARK 924 INTRA-LIGAND FREE ENERGY PREDICTED BY IDOCK:   -0.66 KCAL/MOL
REMARK 927      BINDING AFFINITY PREDICTED BY RF-SCORE:    0.00 PKD
ROOT
HETATM    1  C   UNL     1      -7.224  15.057  67.449  1.00  0.00    -0.224 C  
HETATM    2  C   UNL     1      -8.086  13.861  67.827  1.00  0.00    -0.174 C  
ENDROOT
BRANCH   2   3
HETATM    3  C   UNL     1      -9.194  13.568  66.793  1.00  0.00    -0.240 C  
BRANCH   3   4
HETATM    4  N   UNL     1     -10.486  14.279  66.973  1.00  0.00    -0.270 NA 
BRANCH   4   5
HETATM    5  C   UNL     1     -11.654  13.315  67.025  1.00  0.00    -0.359 C  
BRANCH   5   6
HETATM    6  C   UNL     1     -11.628  12.535  68.344  1.00  0.00    -0.322 C  
HETATM    7  H   UNL     1     -12.026  10.772  69.015  1.00  0.00     0.000 HD 
HETATM    8  O   UNL     1     -12.043  11.255  68.197  1.00  0.00    -0.635 OA 
BRANCH   6   9
HETATM    9  N   UNL     1     -11.271  13.068  69.459  1.00  0.00    -0.457 NA 
HETATM   10  H   UNL     1     -10.276  13.119  69.679  1.00  0.00     0.000 HD 
BRANCH   9  11
HETATM   11  C   UNL     1     -12.198  13.590  70.396  1.00  0.00    -0.356 A  
HETATM   12  C   UNL     1     -12.905  12.803  71.340  1.00  0.00    -0.371 A  
HETATM   13  C   UNL     1     -13.725  13.423  72.300  1.00  0.00    -0.705 A  
HETATM   14  C   UNL     1     -12.879  11.303  71.381  1.00  0.00    -0.515 C  
HETATM   15  C   UNL     1     -13.809  14.803  72.390  1.00  0.00    -0.578 A  
HETATM   16  C   UNL     1     -13.100  15.591  71.492  1.00  0.00    -0.573 A  
HETATM   17  C   UNL     1     -12.306  15.000  70.491  1.00  0.00    -0.411 A  
HETATM   18  C   UNL     1     -11.578  15.914  69.537  1.00  0.00    -0.337 C  
ENDBRANCH   9  11
ENDBRANCH   6   9
ENDBRANCH   5   6
BRANCH   5  19
HETATM   19  C   UNL     1     -11.704  12.262  65.883  1.00  0.00    -0.451 C  
HETATM   20  C   UNL     1     -12.633  12.597  64.714  1.00  0.00    -0.530 C  
ENDBRANCH   5  19
ENDBRANCH   4   5
BRANCH   4  21
HETATM   21  C   UNL     1     -10.669  15.302  65.909  1.00  0.00    -0.334 C  
HETATM   22  C   UNL     1     -10.136  16.711  66.174  1.00  0.00    -0.361 C  
ENDBRANCH   4  21
ENDBRANCH   3   4
ENDBRANCH   2   3
TORSDOF 8
ENDMDL
MODEL        3
REMARK 921   NORMALIZED FREE ENERGY PREDICTED BY IDOCK:   -5.37 KCAL/MOL
REMARK 922        TOTAL FREE ENERGY PREDICTED BY IDOCK:   -8.85 KCAL/MOL
REMARK 923 INTER-LIGAND FREE ENERGY PREDICTED BY IDOCK:   -7.87 KCAL/MOL
REMARK 924 INTRA-LIGAND FREE ENERGY PREDICTED BY IDOCK:   -0.98 KCAL/MOL
REMARK 927      BINDING AFFINITY PREDICTED BY RF-SCORE:    0.00 PKD
ROOT
HETATM    1  C   UNL     1      -9.888   9.244  65.930  1.00  0.00    -0.335 C  
HETATM    2  C   UNL     1      -8.865  10.261  66.416  1.00  0.00    -0.158 C  
ENDROOT
BRANCH   2   3
HETATM    3  C   UNL     1      -9.213  11.707  66.003  1.00  0.00    -0.208 C  
BRANCH   3   4
HETATM    4  N   UNL     1      -9.438  12.684  67.099  1.00  0.00    -0.207 NA 
BRANCH   4   5
HETATM    5  C   UNL     1     -10.908  13.012  67.265  1.00  0.00    -0.252 C  
BRANCH   5   6
HETATM    6  C   UNL     1     -11.450  12.349  68.536  1.00  0.00    -0.306 C  
HETATM    7  H   UNL     1     -12.563  10.863  69.056  1.00  0.00     0.000 HD 
HETATM    8  O   UNL     1     -12.227  11.274  68.268  1.00  0.00    -0.611 OA 
BRANCH   6   9
HETATM    9  N   UNL     1     -11.200  12.800  69.715  1.00  0.00    -0.481 NA 
HETATM   10  H   UNL     1     -10.258  12.690  70.089  1.00  0.00     0.000 HD 
BRANCH   9  11
HETATM   11  C   UNL     1     -12.176  13.442  70.518  1.00  0.00    -0.352 A  
HETATM   12  C   UNL     1     -12.970  12.782  71.488  1.00  0.00    -0.388 A  
HETATM   13  C   UNL     1     -13.838  13.524  72.311  1.00  0.00    -0.680 A  
HETATM   14  C   UNL     1     -12.990  11.297  71.698  1.00  0.00    -0.537 C  
HETATM   15  C   UNL     1     -13.887  14.907  72.240  1.00  0.00    -0.588 A  
HETATM   16  C   UNL     1     -13.094  15.573  71.316  1.00  0.00    -0.581 A  
HETATM   17  C   UNL     1     -12.249  14.857  70.447  1.00  0.00    -0.393 A  
HETATM   18  C   UNL     1     -11.429  15.641  69.454  1.00  0.00    -0.354 C  
ENDBRANCH   9  11
ENDBRANCH   6   9
ENDBRANCH   5   6
BRANCH   5  19
HETATM   19  C   UNL     1     -11.830  12.564  66.097  1.00  0.00    -0.459 C  
HETATM   20  C   UNL     1     -12.706  13.659  65.488  1.00  0.00    -0.514 C  
ENDBRANCH   5  19
ENDBRANCH   4   5
BRANCH   4  21
HETATM   21  C   UNL     1      -8.626  13.911  66.878  1.00  0.00    -0.117 C  
HETATM   22  C   UNL     1      -9.321  15.125  66.260  1.00  0.00    -0.348 C  
ENDBRANCH   4  21
ENDBRANCH   3   4
ENDBRANCH   2   3
TORSDOF 8
ENDMDL
MODEL        4
REMARK 921   NORMALIZED FREE ENERGY PREDICTED BY IDOCK:   -5.34 KCAL/MOL
REMARK 922        TOTAL FREE ENERGY PREDICTED BY IDOCK:   -8.81 KCAL/MOL
REMARK 923 INTER-LIGAND FREE ENERGY PREDICTED BY IDOCK:   -7.85 KCAL/MOL
REMARK 924 INTRA-LIGAND FREE ENERGY PREDICTED BY IDOCK:   -0.96 KCAL/MOL
REMARK 927      BINDING AFFINITY PREDICTED BY RF-SCORE:    0.00 PKD
ROOT
HETATM    1  C   UNL     1     -12.640  11.929  63.403  1.00  0.00    -0.555 C  
HETATM    2  C   UNL     1     -11.946  13.245  63.722  1.00  0.00    -0.551 C  
ENDROOT
BRANCH   2   3
HETATM    3  C   UNL     1     -10.525  13.052  64.292  1.00  0.00    -0.402 C  
BRANCH   3   4
HETATM    4  N   UNL     1     -10.401  12.233  65.526  1.00  0.00    -0.260 NA 
BRANCH   4   5
HETATM    5  C   UNL     1     -10.121  13.092  66.742  1.00  0.00    -0.247 C  
BRANCH   5   6
HETATM    6  C   UNL     1     -11.067  12.702  67.884  1.00  0.00    -0.247 C  
HETATM    7  H   UNL     1     -12.758  11.817  68.152  1.00  0.00     0.000 HD 
HETATM    8  O   UNL     1     -12.172  12.058  67.444  1.00  0.00    -0.491 OA 
BRANCH   6   9
HETATM    9  N   UNL     1     -10.825  12.991  69.115  1.00  0.00    -0.431 NA 
HETATM   10  H   UNL     1      -9.865  13.201  69.386  1.00  0.00     0.000 HD 
BRANCH   9  11
HETATM   11  C   UNL     1     -11.834  13.031  70.110  1.00  0.00    -0.252 A  
HETATM   12  C   UNL     1     -12.290  11.897  70.828  1.00  0.00    -0.416 A  
HETATM   13  C   UNL     1     -13.220  12.052  71.872  1.00  0.00    -0.469 A  
HETATM   14  C   UNL     1     -11.873  10.486  70.536  1.00  0.00    -0.442 C  
HETATM   15  C   UNL     1     -13.657  13.308  72.264  1.00  0.00    -0.703 A  
HETATM   16  C   UNL     1     -13.199  14.432  71.590  1.00  0.00    -0.425 A  
HETATM   17  C   UNL     1     -12.303  14.307  70.512  1.00  0.00    -0.430 A  
HETATM   18  C   UNL     1     -11.860  15.568  69.812  1.00  0.00    -0.376 C  
ENDBRANCH   9  11
ENDBRANCH   6   9
ENDBRANCH   5   6
BRANCH   5  19
HETATM   19  C   UNL     1     -10.279  14.623  66.532  1.00  0.00    -0.282 C  
HETATM   20  C   UNL     1      -9.045  15.467  66.856  1.00  0.00    -0.265 C  
ENDBRANCH   5  19
ENDBRANCH   4   5
BRANCH   4  21
HETATM   21  C   UNL     1      -9.365  11.180  65.350  1.00  0.00    -0.219 C  
HETATM   22  C   UNL     1      -9.786   9.724  65.556  1.00  0.00    -0.382 C  
ENDBRANCH   4  21
ENDBRANCH   3   4
ENDBRANCH   2   3
TORSDOF 8
ENDMDL
MODEL        5
REMARK 921   NORMALIZED FREE ENERGY PREDICTED BY IDOCK:   -5.29 KCAL/MOL
REMARK 922        TOTAL FREE ENERGY PREDICTED BY IDOCK:   -8.74 KCAL/MOL
REMARK 923 INTER-LIGAND FREE ENERGY PREDICTED BY IDOCK:   -7.70 KCAL/MOL
REMARK 924 INTRA-LIGAND FREE ENERGY PREDICTED BY IDOCK:   -1.04 KCAL/MOL
REMARK 927      BINDING AFFINITY PREDICTED BY RF-SCORE:    0.00 PKD
ROOT
HETATM    1  C   UNL     1     -12.239  12.468  64.716  1.00  0.00    -0.532 C  
HETATM    2  C   UNL     1     -12.892  13.665  65.393  1.00  0.00    -0.440 C  
ENDROOT
BRANCH   2   3
HETATM    3  C   UNL     1     -12.021  14.268  66.516  1.00  0.00    -0.427 C  
BRANCH   3   4
HETATM    4  N   UNL     1     -10.951  13.403  67.075  1.00  0.00    -0.283 NA 
BRANCH   4   5
HETATM    5  C   UNL     1     -11.057  13.281  68.581  1.00  0.00    -0.268 C  
BRANCH   5   6
HETATM    6  C   UNL     1     -11.368  11.830  68.966  1.00  0.00    -0.278 C  
HETATM    7  H   UNL     1     -12.366  10.318  68.307  1.00  0.00     0.000 HD 
HETATM    8  O   UNL     1     -12.174  11.217  68.069  1.00  0.00    -0.621 OA 
BRANCH   6   9
HETATM    9  N   UNL     1     -10.920  11.287  70.044  1.00  0.00    -0.464 NA 
HETATM   10  H   UNL     1     -10.020  11.597  70.408  1.00  0.00     0.000 HD 
BRANCH   9  11
HETATM   11  C   UNL     1     -11.623  10.277  70.747  1.00  0.00    -0.355 A  
HETATM   12  C   UNL     1     -12.756  10.516  71.566  1.00  0.00    -0.558 A  
HETATM   13  C   UNL     1     -13.451   9.437  72.139  1.00  0.00    -0.543 A  
HETATM   14  C   UNL     1     -13.275  11.880  71.914  1.00  0.00    -0.467 C  
HETATM   15  C   UNL     1     -13.093   8.126  71.867  1.00  0.00    -0.349 A  
HETATM   16  C   UNL     1     -12.004   7.872  71.044  1.00  0.00    -0.268 A  
HETATM   17  C   UNL     1     -11.260   8.931  70.491  1.00  0.00    -0.287 A  
HETATM   18  C   UNL     1     -10.078   8.584  69.621  1.00  0.00    -0.202 C  
ENDBRANCH   9  11
ENDBRANCH   6   9
ENDBRANCH   5   6
BRANCH   5  19
HETATM   19  C   UNL     1     -12.146  14.165  69.249  1.00  0.00    -0.364 C  
HETATM   20  C   UNL     1     -11.627  15.296  70.139  1.00  0.00    -0.328 C  
ENDBRANCH   5  19
ENDBRANCH   4   5
BRANCH   4  21
HETATM   21  C   UNL     1      -9.610  13.899  66.660  1.00  0.00    -0.289 C  
HETATM   22  C   UNL     1      -9.544  15.230  65.911  1.00  0.00    -0.377 C  
ENDBRANCH   4  21
ENDBRANCH   3   4
ENDBRANCH   2   3
TORSDOF 8
ENDMDL
MODEL        6
REMARK 921   NORMALIZED FREE ENERGY PREDICTED BY IDOCK:   -5.25 KCAL/MOL
REMARK 922        TOTAL FREE ENERGY PREDICTED BY IDOCK:   -8.68 KCAL/MOL
REMARK 923 INTER-LIGAND FREE ENERGY PREDICTED BY IDOCK:   -7.63 KCAL/MOL
REMARK 924 INTRA-LIGAND FREE ENERGY PREDICTED BY IDOCK:   -1.05 KCAL/MOL
REMARK 927      BINDING AFFINITY PREDICTED BY RF-SCORE:    0.00 PKD
ROOT
HETATM    1  C   UNL     1     -12.398  12.505  64.753  1.00  0.00    -0.544 C  
HETATM    2  C   UNL     1     -12.535  13.981  65.101  1.00  0.00    -0.472 C  
ENDROOT
BRANCH   2   3
HETATM    3  C   UNL     1     -11.827  14.355  66.420  1.00  0.00    -0.388 C  
BRANCH   3   4
HETATM    4  N   UNL     1     -10.917  13.337  67.006  1.00  0.00    -0.272 NA 
BRANCH   4   5
HETATM    5  C   UNL     1     -11.056  13.262  68.513  1.00  0.00    -0.265 C  
BRANCH   5   6
HETATM    6  C   UNL     1     -11.414  11.832  68.934  1.00  0.00    -0.297 C  
HETATM    7  H   UNL     1     -12.350  10.292  68.249  1.00  0.00     0.000 HD 
HETATM    8  O   UNL     1     -12.129  11.178  67.989  1.00  0.00    -0.635 OA 
BRANCH   6   9
HETATM    9  N   UNL     1     -11.082  11.340  70.076  1.00  0.00    -0.477 NA 
HETATM   10  H   UNL     1     -10.335  11.792  70.602  1.00  0.00     0.000 HD 
BRANCH   9  11
HETATM   11  C   UNL     1     -11.708  10.198  70.635  1.00  0.00    -0.338 A  
HETATM   12  C   UNL     1     -11.260   8.868  70.441  1.00  0.00    -0.259 A  
HETATM   13  C   UNL     1     -11.884   7.808  71.123  1.00  0.00    -0.311 A  
HETATM   14  C   UNL     1     -10.155   8.475  69.505  1.00  0.00    -0.200 C  
HETATM   15  C   UNL     1     -12.895   8.041  72.042  1.00  0.00    -0.313 A  
HETATM   16  C   UNL     1     -13.327   9.341  72.268  1.00  0.00    -0.547 A  
HETATM   17  C   UNL     1     -12.754  10.419  71.567  1.00  0.00    -0.564 A  
HETATM   18  C   UNL     1     -13.284  11.804  71.846  1.00  0.00    -0.468 C  
ENDBRANCH   9  11
ENDBRANCH   6   9
ENDBRANCH   5   6
BRANCH   5  19
HETATM   19  C   UNL     1     -12.133  14.194  69.134  1.00  0.00    -0.362 C  
HETATM   20  C   UNL     1     -11.649  15.106  70.263  1.00  0.00    -0.325 C  
ENDBRANCH   5  19
ENDBRANCH   4   5
BRANCH   4  21
HETATM   21  C   UNL     1      -9.510  13.600  66.600  1.00  0.00    -0.277 C  
HETATM   22  C   UNL     1      -9.004  15.042  66.674  1.00  0.00    -0.313 C  
ENDBRANCH   4  21
ENDBRANCH   3   4
ENDBRANCH   2   3
TORSDOF 8
ENDMDL
MODEL        7
REMARK 921   NORMALIZED FREE ENERGY PREDICTED BY IDOCK:   -5.24 KCAL/MOL
REMARK 922        TOTAL FREE ENERGY PREDICTED BY IDOCK:   -8.66 KCAL/MOL
REMARK 923 INTER-LIGAND FREE ENERGY PREDICTED BY IDOCK:   -7.74 KCAL/MOL
REMARK 924 INTRA-LIGAND FREE ENERGY PREDICTED BY IDOCK:   -0.91 KCAL/MOL
REMARK 927      BINDING AFFINITY PREDICTED BY RF-SCORE:    0.00 PKD
ROOT
HETATM    1  C   UNL     1      -9.333  20.364  66.610  1.00  0.00    -0.405 C  
HETATM    2  C   UNL     1     -10.440  19.370  66.936  1.00  0.00    -0.569 C  
ENDROOT
BRANCH   2   3
HETATM    3  C   UNL     1      -9.915  18.091  67.621  1.00  0.00    -0.329 C  
BRANCH   3   4
HETATM    4  N   UNL     1     -10.637  16.826  67.324  1.00  0.00    -0.306 NA 
BRANCH   4   5
HETATM    5  C   UNL     1     -10.273  15.730  68.305  1.00  0.00    -0.225 C  
BRANCH   5   6
HETATM    6  C   UNL     1     -11.370  15.597  69.368  1.00  0.00    -0.330 C  
HETATM    7  H   UNL     1     -11.879  16.377  71.056  1.00  0.00     0.000 HD 
HETATM    8  O   UNL     1     -11.200  16.459  70.397  1.00  0.00    -0.378 OA 
BRANCH   6   9
HETATM    9  N   UNL     1     -12.322  14.735  69.280  1.00  0.00    -0.568 NA 
HETATM   10  H   UNL     1     -12.950  14.784  68.478  1.00  0.00     0.000 HD 
BRANCH   9  11
HETATM   11  C   UNL     1     -12.536  13.722  70.247  1.00  0.00    -0.289 A  
HETATM   12  C   UNL     1     -13.372  13.868  71.383  1.00  0.00    -0.363 A  
HETATM   13  C   UNL     1     -13.606  12.770  72.230  1.00  0.00    -0.563 A  
HETATM   14  C   UNL     1     -14.027  15.154  71.792  1.00  0.00    -0.627 C  
HETATM   15  C   UNL     1     -13.087  11.517  71.944  1.00  0.00    -0.492 A  
HETATM   16  C   UNL     1     -12.289  11.349  70.819  1.00  0.00    -0.483 A  
HETATM   17  C   UNL     1     -11.999  12.438  69.976  1.00  0.00    -0.372 A  
HETATM   18  C   UNL     1     -11.111  12.189  68.783  1.00  0.00    -0.297 C  
ENDBRANCH   9  11
ENDBRANCH   6   9
ENDBRANCH   5   6
BRANCH   5  19
HETATM   19  C   UNL     1      -8.933  15.929  69.066  1.00  0.00    -0.245 C  
HETATM   20  C   UNL     1      -7.897  14.819  68.884  1.00  0.00    -0.152 C  
ENDBRANCH   5  19
ENDBRANCH   4   5
BRANCH   4  21
HETATM   21  C   UNL     1     -10.391  16.404  65.918  1.00  0.00    -0.362 C  
HETATM   22  C   UNL     1     -10.137  14.920  65.653  1.00  0.00    -0.387 C  
ENDBRANCH   4  21
ENDBRANCH   3   4
ENDBRANCH   2   3
TORSDOF 8
ENDMDL
MODEL        8
REMARK 921   NORMALIZED FREE ENERGY PREDICTED BY IDOCK:   -5.19 KCAL/MOL
REMARK 922        TOTAL FREE ENERGY PREDICTED BY IDOCK:   -8.59 KCAL/MOL
REMARK 923 INTER-LIGAND FREE ENERGY PREDICTED BY IDOCK:   -7.94 KCAL/MOL
REMARK 924 INTRA-LIGAND FREE ENERGY PREDICTED BY IDOCK:   -0.66 KCAL/MOL
REMARK 927      BINDING AFFINITY PREDICTED BY RF-SCORE:    0.00 PKD
ROOT
HETATM    1  C   UNL     1     -13.644  15.714  72.822  1.00  0.00    -0.678 C  
HETATM    2  C   UNL     1     -14.038  14.915  71.588  1.00  0.00    -0.601 C  
ENDROOT
BRANCH   2   3
HETATM    3  C   UNL     1     -13.141  13.680  71.360  1.00  0.00    -0.319 C  
BRANCH   3   4
HETATM    4  N   UNL     1     -12.404  13.615  70.072  1.00  0.00    -0.309 NA 
BRANCH   4   5
HETATM    5  C   UNL     1     -11.667  12.300  69.913  1.00  0.00    -0.273 C  
BRANCH   5   6
HETATM    6  C   UNL     1     -11.091  12.192  68.497  1.00  0.00    -0.252 C  
HETATM    7  H   UNL     1      -9.428  12.472  67.563  1.00  0.00     0.000 HD 
HETATM    8  O   UNL     1      -9.785  12.540  68.441  1.00  0.00    -0.221 OA 
BRANCH   6   9
HETATM    9  N   UNL     1     -11.801  11.832  67.485  1.00  0.00    -0.617 NA 
HETATM   10  H   UNL     1     -12.776  11.578  67.639  1.00  0.00     0.000 HD 
BRANCH   9  11
HETATM   11  C   UNL     1     -11.287  11.772  66.165  1.00  0.00    -0.280 A  
HETATM   12  C   UNL     1     -10.461  10.728  65.678  1.00  0.00    -0.255 A  
HETATM   13  C   UNL     1     -10.086  10.701  64.323  1.00  0.00    -0.411 A  
HETATM   14  C   UNL     1      -9.902   9.625  66.527  1.00  0.00    -0.298 C  
HETATM   15  C   UNL     1     -10.564  11.644  63.426  1.00  0.00    -0.472 A  
HETATM   16  C   UNL     1     -11.398  12.657  63.880  1.00  0.00    -0.501 A  
HETATM   17  C   UNL     1     -11.755  12.738  65.239  1.00  0.00    -0.403 A  
HETATM   18  C   UNL     1     -12.648  13.875  65.668  1.00  0.00    -0.553 C  
ENDBRANCH   9  11
ENDBRANCH   6   9
ENDBRANCH   5   6
BRANCH   5  19
HETATM   19  C   UNL     1     -12.519  11.022  70.149  1.00  0.00    -0.344 C  
HETATM   20  C   UNL     1     -11.931  10.005  71.128  1.00  0.00    -0.484 C  
ENDBRANCH   5  19
ENDBRANCH   4   5
BRANCH   4  21
HETATM   21  C   UNL     1     -11.483  14.776  69.939  1.00  0.00    -0.281 C  
HETATM   22  C   UNL     1     -11.764  15.786  68.826  1.00  0.00    -0.387 C  
ENDBRANCH   4  21
ENDBRANCH   3   4
ENDBRANCH   2   3
TORSDOF 8
ENDMDL
MODEL        9
REMARK 921   NORMALIZED FREE ENERGY PREDICTED BY IDOCK:   -5.17 KCAL/MOL
REMARK 922        TOTAL FREE ENERGY PREDICTED BY IDOCK:   -8.55 KCAL/MOL
REMARK 923 INTER-LIGAND FREE ENERGY PREDICTED BY IDOCK:   -7.72 KCAL/MOL
REMARK 924 INTRA-LIGAND FREE ENERGY PREDICTED BY IDOCK:   -0.83 KCAL/MOL
REMARK 927      BINDING AFFINITY PREDICTED BY RF-SCORE:    0.00 PKD
ROOT
HETATM    1  C   UNL     1     -11.865  12.838  69.576  1.00  0.00    -0.379 C  
HETATM    2  C   UNL     1     -11.958  14.003  68.601  1.00  0.00    -0.389 C  
ENDROOT
BRANCH   2   3
HETATM    3  C   UNL     1     -11.904  13.556  67.125  1.00  0.00    -0.387 C  
BRANCH   3   4
HETATM    4  N   UNL     1     -10.642  13.823  66.388  1.00  0.00    -0.281 NA 
BRANCH   4   5
HETATM    5  C   UNL     1     -10.897  14.555  65.086  1.00  0.00    -0.395 C  
BRANCH   5   6
HETATM    6  C   UNL     1     -10.851  16.070  65.322  1.00  0.00    -0.362 C  
HETATM    7  H   UNL     1     -11.273  17.712  64.405  1.00  0.00     0.000 HD 
HETATM    8  O   UNL     1     -11.302  16.774  64.258  1.00  0.00    -1.170 OA 
BRANCH   6   9
HETATM    9  N   UNL     1     -10.404  16.589  66.412  1.00  0.00    -0.311 NA 
HETATM   10  H   UNL     1     -10.849  16.332  67.292  1.00  0.00     0.000 HD 
BRANCH   9  11
HETATM   11  C   UNL     1      -9.320  17.502  66.442  1.00  0.00    -0.246 A  
HETATM   12  C   UNL     1      -9.454  18.904  66.279  1.00  0.00    -0.318 A  
HETATM   13  C   UNL     1      -8.334  19.741  66.431  1.00  0.00    -0.378 A  
HETATM   14  C   UNL     1     -10.734  19.594  65.909  1.00  0.00    -0.515 C  
HETATM   15  C   UNL     1      -7.102  19.230  66.806  1.00  0.00    -0.218 A  
HETATM   16  C   UNL     1      -6.959  17.863  66.999  1.00  0.00    -0.209 A  
HETATM   17  C   UNL     1      -8.049  16.993  66.811  1.00  0.00    -0.277 A  
HETATM   18  C   UNL     1      -7.820  15.517  67.019  1.00  0.00    -0.260 C  
ENDBRANCH   9  11
ENDBRANCH   6   9
ENDBRANCH   5   6
BRANCH   5  19
HETATM   19  C   UNL     1     -12.258  14.251  64.401  1.00  0.00    -0.471 C  
HETATM   20  C   UNL     1     -12.270  13.046  63.459  1.00  0.00    -0.580 C  
ENDBRANCH   5  19
ENDBRANCH   4   5
BRANCH   4  21
HETATM   21  C   UNL     1      -9.892  12.557  66.164  1.00  0.00    -0.258 C  
HETATM   22  C   UNL     1     -10.647  11.240  66.348  1.00  0.00    -0.316 C  
ENDBRANCH   4  21
ENDBRANCH   3   4
ENDBRANCH   2   3
TORSDOF 8
ENDMDL
MODEL       10
REMARK 921   NORMALIZED FREE ENERGY PREDICTED BY IDOCK:   -5.16 KCAL/MOL
REMARK 922        TOTAL FREE ENERGY PREDICTED BY IDOCK:   -8.55 KCAL/MOL
REMARK 923 INTER-LIGAND FREE ENERGY PREDICTED BY IDOCK:   -7.47 KCAL/MOL
REMARK 924 INTRA-LIGAND FREE ENERGY PREDICTED BY IDOCK:   -1.08 KCAL/MOL
REMARK 927      BINDING AFFINITY PREDICTED BY RF-SCORE:    0.00 PKD
ROOT
HETATM    1  C   UNL     1      -9.705  11.244  63.219  1.00  0.00    -0.405 C  
HETATM    2  C   UNL     1      -9.234  10.926  64.631  1.00  0.00    -0.223 C  
ENDROOT
BRANCH   2   3
HETATM    3  C   UNL     1     -10.318  11.183  65.698  1.00  0.00    -0.254 C  
BRANCH   3   4
HETATM    4  N   UNL     1      -9.871  11.793  66.977  1.00  0.00    -0.196 NA 
BRANCH   4   5
HETATM    5  C   UNL     1     -10.906  12.749  67.534  1.00  0.00    -0.239 C  
BRANCH   5   6
HETATM    6  C   UNL     1     -11.535  12.157  68.800  1.00  0.00    -0.307 C  
HETATM    7  H   UNL     1     -12.786  10.783  69.314  1.00  0.00     0.000 HD 
HETATM    8  O   UNL     1     -12.397  11.150  68.529  1.00  0.00    -0.561 OA 
BRANCH   6   9
HETATM    9  N   UNL     1     -11.274  12.604  69.979  1.00  0.00    -0.438 NA 
HETATM   10  H   UNL     1     -10.390  12.342  70.414  1.00  0.00     0.000 HD 
BRANCH   9  11
HETATM   11  C   UNL     1     -12.159  13.445  70.698  1.00  0.00    -0.295 A  
HETATM   12  C   UNL     1     -12.292  14.839  70.476  1.00  0.00    -0.398 A  
HETATM   13  C   UNL     1     -13.274  15.572  71.166  1.00  0.00    -0.576 A  
HETATM   14  C   UNL     1     -11.416  15.637  69.555  1.00  0.00    -0.349 C  
HETATM   15  C   UNL     1     -14.170  14.947  72.019  1.00  0.00    -0.638 A  
HETATM   16  C   UNL     1     -14.074  13.577  72.226  1.00  0.00    -0.564 A  
HETATM   17  C   UNL     1     -13.073  12.822  71.585  1.00  0.00    -0.428 A  
HETATM   18  C   UNL     1     -13.014  11.343  71.870  1.00  0.00    -0.466 C  
ENDBRANCH   9  11
ENDBRANCH   6   9
ENDBRANCH   5   6
BRANCH   5  19
HETATM   19  C   UNL     1     -12.078  13.101  66.575  1.00  0.00    -0.423 C  
HETATM   20  C   UNL     1     -11.903  14.381  65.757  1.00  0.00    -0.365 C  
ENDBRANCH   5  19
ENDBRANCH   4   5
BRANCH   4  21
HETATM   21  C   UNL     1      -8.551  12.458  66.803  1.00  0.00    -0.129 C  
HETATM   22  C   UNL     1      -8.431  13.925  67.219  1.00  0.00    -0.212 C  
ENDBRANCH   4  21
ENDBRANCH   3   4
ENDBRANCH   2   3
TORSDOF 8
ENDMDL
MODEL       11
REMARK 921   NORMALIZED FREE ENERGY PREDICTED BY IDOCK:   -5.16 KCAL/MOL
REMARK 922        TOTAL FREE ENERGY PREDICTED BY IDOCK:   -8.54 KCAL/MOL
REMARK 923 INTER-LIGAND FREE ENERGY PREDICTED BY IDOCK:   -7.67 KCAL/MOL
REMARK 924 INTRA-LIGAND FREE ENERGY PREDICTED BY IDOCK:   -0.86 KCAL/MOL
REMARK 927      BINDING AFFINITY PREDICTED BY RF-SCORE:    0.00 PKD
ROOT
HETATM    1  C   UNL     1      -6.457  18.060  69.263  1.00  0.00    -0.246 C  
HETATM    2  C   UNL     1      -7.470  18.558  68.242  1.00  0.00    -0.298 C  
ENDROOT
BRANCH   2   3
HETATM    3  C   UNL     1      -8.486  17.473  67.826  1.00  0.00    -0.225 C  
BRANCH   3   4
HETATM    4  N   UNL     1      -9.882  17.641  68.307  1.00  0.00    -0.306 NA 
BRANCH   4   5
HETATM    5  C   UNL     1     -10.766  16.488  67.875  1.00  0.00    -0.337 C  
BRANCH   5   6
HETATM    6  C   UNL     1     -11.121  15.620  69.087  1.00  0.00    -0.284 C  
HETATM    7  H   UNL     1     -10.406  15.150  70.815  1.00  0.00     0.000 HD 
HETATM    8  O   UNL     1     -10.186  15.688  70.063  1.00  0.00    -0.301 OA 
BRANCH   6   9
HETATM    9  N   UNL     1     -12.184  14.896  69.136  1.00  0.00    -0.559 NA 
HETATM   10  H   UNL     1     -12.915  15.058  68.444  1.00  0.00     0.000 HD 
BRANCH   9  11
HETATM   11  C   UNL     1     -12.383  13.884  70.107  1.00  0.00    -0.334 A  
HETATM   12  C   UNL     1     -13.072  14.078  71.331  1.00  0.00    -0.423 A  
HETATM   13  C   UNL     1     -13.313  12.986  72.185  1.00  0.00    -0.622 A  
HETATM   14  C   UNL     1     -13.557  15.408  71.828  1.00  0.00    -0.596 C  
HETATM   15  C   UNL     1     -12.946  11.699  71.825  1.00  0.00    -0.483 A  
HETATM   16  C   UNL     1     -12.296  11.486  70.617  1.00  0.00    -0.457 A  
HETATM   17  C   UNL     1     -12.001  12.563  69.761  1.00  0.00    -0.359 A  
HETATM   18  C   UNL     1     -11.276  12.263  68.473  1.00  0.00    -0.316 C  
ENDBRANCH   9  11
ENDBRANCH   6   9
ENDBRANCH   5   6
BRANCH   5  19
HETATM   19  C   UNL     1     -10.154  15.539  66.808  1.00  0.00    -0.268 C  
HETATM   20  C   UNL     1     -11.107  15.089  65.698  1.00  0.00    -0.349 C  
ENDBRANCH   5  19
ENDBRANCH   4   5
BRANCH   4  21
HETATM   21  C   UNL     1     -10.433  18.949  67.860  1.00  0.00    -0.388 C  
HETATM   22  C   UNL     1     -10.620  19.168  66.358  1.00  0.00    -0.522 C  
ENDBRANCH   4  21
ENDBRANCH   3   4
ENDBRANCH   2   3
TORSDOF 8
ENDMDL
MODEL       12
REMARK 921   NORMALIZED FREE ENERGY PREDICTED BY IDOCK:   -5.12 KCAL/MOL
REMARK 922        TOTAL FREE ENERGY PREDICTED BY IDOCK:   -8.49 KCAL/MOL
REMARK 923 INTER-LIGAND FREE ENERGY PREDICTED BY IDOCK:   -7.49 KCAL/MOL
REMARK 924 INTRA-LIGAND FREE ENERGY PREDICTED BY IDOCK:   -1.00 KCAL/MOL
REMARK 927      BINDING AFFINITY PREDICTED BY RF-SCORE:    0.00 PKD
ROOT
HETATM    1  C   UNL     1     -10.518  19.727  66.066  1.00  0.00    -0.609 C  
HETATM    2  C   UNL     1     -10.654  18.614  67.096  1.00  0.00    -0.468 C  
ENDROOT
BRANCH   2   3
HETATM    3  C   UNL     1      -9.837  17.357  66.731  1.00  0.00    -0.296 C  
BRANCH   3   4
HETATM    4  N   UNL     1     -10.584  16.075  66.636  1.00  0.00    -0.316 NA 
BRANCH   4   5
HETATM    5  C   UNL     1     -10.142  15.089  67.698  1.00  0.00    -0.231 C  
BRANCH   5   6
HETATM    6  C   UNL     1     -11.041  15.217  68.934  1.00  0.00    -0.270 C  
HETATM    7  H   UNL     1     -11.010  15.996  70.697  1.00  0.00     0.000 HD 
HETATM    8  O   UNL     1     -10.453  15.917  69.932  1.00  0.00    -0.290 OA 
BRANCH   6   9
HETATM    9  N   UNL     1     -12.211  14.685  68.999  1.00  0.00    -0.562 NA 
HETATM   10  H   UNL     1     -12.940  15.035  68.377  1.00  0.00     0.000 HD 
BRANCH   9  11
HETATM   11  C   UNL     1     -12.533  13.636  69.896  1.00  0.00    -0.167 A  
HETATM   12  C   UNL     1     -12.104  12.294  69.738  1.00  0.00    -0.298 A  
HETATM   13  C   UNL     1     -12.384  11.344  70.737  1.00  0.00    -0.483 A  
HETATM   14  C   UNL     1     -11.378  11.773  68.533  1.00  0.00    -0.328 C  
HETATM   15  C   UNL     1     -13.019  11.705  71.915  1.00  0.00    -0.442 A  
HETATM   16  C   UNL     1     -13.419  13.022  72.099  1.00  0.00    -0.638 A  
HETATM   17  C   UNL     1     -13.194  13.987  71.100  1.00  0.00    -0.337 A  
HETATM   18  C   UNL     1     -13.672  15.394  71.357  1.00  0.00    -0.591 C  
ENDBRANCH   9  11
ENDBRANCH   6   9
ENDBRANCH   5   6
BRANCH   5  19
HETATM   19  C   UNL     1      -8.677  15.248  68.192  1.00  0.00    -0.162 C  
HETATM   20  C   UNL     1      -7.673  14.248  67.616  1.00  0.00    -0.190 C  
ENDBRANCH   5  19
ENDBRANCH   4   5
BRANCH   4  21
HETATM   21  C   UNL     1     -10.457  15.499  65.270  1.00  0.00    -0.411 C  
HETATM   22  C   UNL     1     -10.550  13.980  65.125  1.00  0.00    -0.400 C  
ENDBRANCH   4  21
ENDBRANCH   3   4
ENDBRANCH   2   3
TORSDOF 8
ENDMDL
MODEL       13
REMARK 921   NORMALIZED FREE ENERGY PREDICTED BY IDOCK:   -5.12 KCAL/MOL
REMARK 922        TOTAL FREE ENERGY PREDICTED BY IDOCK:   -8.48 KCAL/MOL
REMARK 923 INTER-LIGAND FREE ENERGY PREDICTED BY IDOCK:   -7.42 KCAL/MOL
REMARK 924 INTRA-LIGAND FREE ENERGY PREDICTED BY IDOCK:   -1.07 KCAL/MOL
REMARK 927      BINDING AFFINITY PREDICTED BY RF-SCORE:    0.00 PKD
ROOT
HETATM    1  C   UNL     1     -12.667  11.786  63.610  1.00  0.00    -0.407 C  
HETATM    2  C   UNL     1     -11.866  13.075  63.489  1.00  0.00    -0.582 C  
ENDROOT
BRANCH   2   3
HETATM    3  C   UNL     1     -10.469  12.977  64.136  1.00  0.00    -0.372 C  
BRANCH   3   4
HETATM    4  N   UNL     1     -10.374  12.239  65.422  1.00  0.00    -0.263 NA 
BRANCH   4   5
HETATM    5  C   UNL     1     -10.061  13.167  66.579  1.00  0.00    -0.280 C  
BRANCH   5   6
HETATM    6  C   UNL     1     -11.054  12.927  67.722  1.00  0.00    -0.259 C  
HETATM    7  H   UNL     1     -12.897  12.428  67.985  1.00  0.00     0.000 HD 
HETATM    8  O   UNL     1     -12.282  12.576  67.276  1.00  0.00    -0.454 OA 
BRANCH   6   9
HETATM    9  N   UNL     1     -10.736  13.075  68.960  1.00  0.00    -0.413 NA 
HETATM   10  H   UNL     1      -9.794  12.820  69.255  1.00  0.00     0.000 HD 
BRANCH   9  11
HETATM   11  C   UNL     1     -11.636  13.577  69.933  1.00  0.00    -0.201 A  
HETATM   12  C   UNL     1     -11.974  14.947  70.074  1.00  0.00    -0.377 A  
HETATM   13  C   UNL     1     -12.958  15.338  70.999  1.00  0.00    -0.526 A  
HETATM   14  C   UNL     1     -11.319  16.063  69.314  1.00  0.00    -0.356 C  
HETATM   15  C   UNL     1     -13.662  14.400  71.738  1.00  0.00    -0.504 A  
HETATM   16  C   UNL     1     -13.365  13.051  71.591  1.00  0.00    -0.379 A  
HETATM   17  C   UNL     1     -12.354  12.631  70.707  1.00  0.00    -0.372 A  
HETATM   18  C   UNL     1     -12.070  11.153  70.610  1.00  0.00    -0.477 C  
ENDBRANCH   9  11
ENDBRANCH   6   9
ENDBRANCH   5   6
BRANCH   5  19
HETATM   19  C   UNL     1     -10.112  14.685  66.252  1.00  0.00    -0.307 C  
HETATM   20  C   UNL     1      -8.827  15.466  66.535  1.00  0.00    -0.347 C  
ENDBRANCH   5  19
ENDBRANCH   4   5
BRANCH   4  21
HETATM   21  C   UNL     1      -9.377  11.139  65.319  1.00  0.00    -0.219 C  
HETATM   22  C   UNL     1      -9.897   9.701  65.336  1.00  0.00    -0.322 C  
ENDBRANCH   4  21
ENDBRANCH   3   4
ENDBRANCH   2   3
TORSDOF 8
ENDMDL
MODEL       14
REMARK 921   NORMALIZED FREE ENERGY PREDICTED BY IDOCK:   -5.11 KCAL/MOL
REMARK 922        TOTAL FREE ENERGY PREDICTED BY IDOCK:   -8.48 KCAL/MOL
REMARK 923 INTER-LIGAND FREE ENERGY PREDICTED BY IDOCK:   -7.69 KCAL/MOL
REMARK 924 INTRA-LIGAND FREE ENERGY PREDICTED BY IDOCK:   -0.79 KCAL/MOL
REMARK 927      BINDING AFFINITY PREDICTED BY RF-SCORE:    0.00 PKD
ROOT
HETATM    1  C   UNL     1     -10.470  17.751  67.750  1.00  0.00    -0.402 C  
HETATM    2  C   UNL     1     -10.560  16.911  69.016  1.00  0.00    -0.338 C  
ENDROOT
BRANCH   2   3
HETATM    3  C   UNL     1     -10.291  15.413  68.763  1.00  0.00    -0.229 C  
BRANCH   3   4
HETATM    4  N   UNL     1     -11.200  14.445  69.428  1.00  0.00    -0.273 NA 
BRANCH   4   5
HETATM    5  C   UNL     1     -11.901  13.552  68.424  1.00  0.00    -0.373 C  
BRANCH   5   6
HETATM    6  C   UNL     1     -11.710  12.081  68.812  1.00  0.00    -0.321 C  
HETATM    7  H   UNL     1     -11.924  10.323  68.050  1.00  0.00     0.000 HD 
HETATM    8  O   UNL     1     -12.043  11.234  67.810  1.00  0.00    -0.631 OA 
BRANCH   6   9
HETATM    9  N   UNL     1     -11.301  11.718  69.977  1.00  0.00    -0.501 NA 
HETATM   10  H   UNL     1     -10.667  12.334  70.484  1.00  0.00     0.000 HD 
BRANCH   9  11
HETATM   11  C   UNL     1     -11.693  10.499  70.585  1.00  0.00    -0.357 A  
HETATM   12  C   UNL     1     -11.056   9.254  70.358  1.00  0.00    -0.300 A  
HETATM   13  C   UNL     1     -11.448   8.118  71.089  1.00  0.00    -0.304 A  
HETATM   14  C   UNL     1      -9.979   9.027  69.338  1.00  0.00    -0.191 C  
HETATM   15  C   UNL     1     -12.408   8.201  72.085  1.00  0.00    -0.383 A  
HETATM   16  C   UNL     1     -13.021   9.420  72.343  1.00  0.00    -0.427 A  
HETATM   17  C   UNL     1     -12.683  10.565  71.597  1.00  0.00    -0.550 A  
HETATM   18  C   UNL     1     -13.403  11.852  71.916  1.00  0.00    -0.405 C  
ENDBRANCH   9  11
ENDBRANCH   6   9
ENDBRANCH   5   6
BRANCH   5  19
HETATM   19  C   UNL     1     -11.421  13.693  66.953  1.00  0.00    -0.369 C  
HETATM   20  C   UNL     1     -12.504  14.055  65.935  1.00  0.00    -0.513 C  
ENDBRANCH   5  19
ENDBRANCH   4   5
BRANCH   4  21
HETATM   21  C   UNL     1     -12.175  15.159  70.297  1.00  0.00    -0.350 C  
HETATM   22  C   UNL     1     -11.909  15.174  71.803  1.00  0.00    -0.471 C  
ENDBRANCH   4  21
ENDBRANCH   3   4
ENDBRANCH   2   3
TORSDOF 8
ENDMDL
MODEL       15
REMARK 921   NORMALIZED FREE ENERGY PREDICTED BY IDOCK:   -5.03 KCAL/MOL
REMARK 922        TOTAL FREE ENERGY PREDICTED BY IDOCK:   -8.36 KCAL/MOL
REMARK 923 INTER-LIGAND FREE ENERGY PREDICTED BY IDOCK:   -6.96 KCAL/MOL
REMARK 924 INTRA-LIGAND FREE ENERGY PREDICTED BY IDOCK:   -1.40 KCAL/MOL
REMARK 927      BINDING AFFINITY PREDICTED BY RF-SCORE:    0.00 PKD
ROOT
HETATM    1  C   UNL     1     -10.257  19.933  65.934  1.00  0.00    -0.552 C  
HETATM    2  C   UNL     1      -9.922  19.858  67.416  1.00  0.00    -0.558 C  
ENDROOT
BRANCH   2   3
HETATM    3  C   UNL     1      -9.113  18.597  67.786  1.00  0.00    -0.285 C  
BRANCH   3   4
HETATM    4  N   UNL     1      -8.916  17.587  66.714  1.00  0.00    -0.248 NA 
BRANCH   4   5
HETATM    5  C   UNL     1      -9.708  16.323  66.982  1.00  0.00    -0.239 C  
BRANCH   5   6
HETATM    6  C   UNL     1     -10.083  15.652  65.655  1.00  0.00    -0.365 C  
HETATM    7  H   UNL     1     -10.958  16.077  63.991  1.00  0.00     0.000 HD 
HETATM    8  O   UNL     1     -10.726  16.493  64.813  1.00  0.00    -0.719 OA 
BRANCH   6   9
HETATM    9  N   UNL     1      -9.826  14.416  65.406  1.00  0.00    -0.541 NA 
HETATM   10  H   UNL     1      -9.392  14.179  64.514  1.00  0.00     0.000 HD 
BRANCH   9  11
HETATM   11  C   UNL     1     -10.118  13.369  66.315  1.00  0.00    -0.299 A  
HETATM   12  C   UNL     1      -9.198  12.857  67.264  1.00  0.00    -0.208 A  
HETATM   13  C   UNL     1      -9.613  11.889  68.197  1.00  0.00    -0.195 A  
HETATM   14  C   UNL     1      -7.752  13.249  67.338  1.00  0.00    -0.148 C  
HETATM   15  C   UNL     1     -10.932  11.467  68.255  1.00  0.00    -0.272 A  
HETATM   16  C   UNL     1     -11.855  11.981  67.353  1.00  0.00    -0.268 A  
HETATM   17  C   UNL     1     -11.461  12.916  66.378  1.00  0.00    -0.389 A  
HETATM   18  C   UNL     1     -12.509  13.418  65.417  1.00  0.00    -0.543 C  
ENDBRANCH   9  11
ENDBRANCH   6   9
ENDBRANCH   5   6
BRANCH   5  19
HETATM   19  C   UNL     1     -11.030  16.517  67.775  1.00  0.00    -0.252 C  
HETATM   20  C   UNL     1     -11.199  15.628  69.008  1.00  0.00    -0.306 C  
ENDBRANCH   5  19
ENDBRANCH   4   5
BRANCH   4  21
HETATM   21  C   UNL     1      -7.468  17.296  66.533  1.00  0.00    -0.280 C  
HETATM   22  C   UNL     1      -6.649  18.258  65.672  1.00  0.00    -0.298 C  
ENDBRANCH   4  21
ENDBRANCH   3   4
ENDBRANCH   2   3
TORSDOF 8
ENDMDL
MODEL       16
REMARK 921   NORMALIZED FREE ENERGY PREDICTED BY IDOCK:   -5.02 KCAL/MOL
REMARK 922        TOTAL FREE ENERGY PREDICTED BY IDOCK:   -8.34 KCAL/MOL
REMARK 923 INTER-LIGAND FREE ENERGY PREDICTED BY IDOCK:   -6.97 KCAL/MOL
REMARK 924 INTRA-LIGAND FREE ENERGY PREDICTED BY IDOCK:   -1.37 KCAL/MOL
REMARK 927      BINDING AFFINITY PREDICTED BY RF-SCORE:    0.00 PKD
ROOT
HETATM    1  C   UNL     1     -10.629  19.953  65.713  1.00  0.00    -0.490 C  
HETATM    2  C   UNL     1      -9.759  20.261  66.923  1.00  0.00    -0.584 C  
ENDROOT
BRANCH   2   3
HETATM    3  C   UNL     1      -8.902  19.057  67.368  1.00  0.00    -0.287 C  
BRANCH   3   4
HETATM    4  N   UNL     1      -8.769  17.934  66.404  1.00  0.00    -0.377 NA 
BRANCH   4   5
HETATM    5  C   UNL     1      -9.433  16.673  66.918  1.00  0.00    -0.235 C  
BRANCH   5   6
HETATM    6  C   UNL     1      -9.898  15.811  65.738  1.00  0.00    -0.348 C  
HETATM    7  H   UNL     1     -10.925  15.977  64.114  1.00  0.00     0.000 HD 
HETATM    8  O   UNL     1     -10.637  16.511  64.845  1.00  0.00    -0.689 OA 
BRANCH   6   9
HETATM    9  N   UNL     1      -9.624  14.557  65.644  1.00  0.00    -0.530 NA 
HETATM   10  H   UNL     1      -9.068  14.238  64.851  1.00  0.00     0.000 HD 
BRANCH   9  11
HETATM   11  C   UNL     1     -10.061  13.599  66.592  1.00  0.00    -0.277 A  
HETATM   12  C   UNL     1     -11.380  13.083  66.654  1.00  0.00    -0.366 A  
HETATM   13  C   UNL     1     -11.693  12.057  67.563  1.00  0.00    -0.351 A  
HETATM   14  C   UNL     1     -12.525  13.582  65.822  1.00  0.00    -0.514 C  
HETATM   15  C   UNL     1     -10.717  11.485  68.364  1.00  0.00    -0.241 A  
HETATM   16  C   UNL     1      -9.413  11.957  68.296  1.00  0.00    -0.197 A  
HETATM   17  C   UNL     1      -9.078  13.014  67.429  1.00  0.00    -0.201 A  
HETATM   18  C   UNL     1      -7.647  13.492  67.419  1.00  0.00    -0.140 C  
ENDBRANCH   9  11
ENDBRANCH   6   9
ENDBRANCH   5   6
BRANCH   5  19
HETATM   19  C   UNL     1     -10.672  16.892  67.829  1.00  0.00    -0.315 C  
HETATM   20  C   UNL     1     -10.750  15.997  69.067  1.00  0.00    -0.274 C  
ENDBRANCH   5  19
ENDBRANCH   4   5
BRANCH   4  21
HETATM   21  C   UNL     1      -7.337  17.701  66.071  1.00  0.00    -0.266 C  
HETATM   22  C   UNL     1      -6.553  18.856  65.448  1.00  0.00    -0.288 C  
ENDBRANCH   4  21
ENDBRANCH   3   4
ENDBRANCH   2   3
TORSDOF 8
ENDMDL
MODEL       17
REMARK 921   NORMALIZED FREE ENERGY PREDICTED BY IDOCK:   -5.02 KCAL/MOL
REMARK 922        TOTAL FREE ENERGY PREDICTED BY IDOCK:   -8.34 KCAL/MOL
REMARK 923 INTER-LIGAND FREE ENERGY PREDICTED BY IDOCK:   -6.90 KCAL/MOL
REMARK 924 INTRA-LIGAND FREE ENERGY PREDICTED BY IDOCK:   -1.43 KCAL/MOL
REMARK 927      BINDING AFFINITY PREDICTED BY RF-SCORE:    0.00 PKD
ROOT
HETATM    1  C   UNL     1     -12.346  12.520  64.770  1.00  0.00    -0.544 C  
HETATM    2  C   UNL     1     -12.855  13.642  65.663  1.00  0.00    -0.425 C  
ENDROOT
BRANCH   2   3
HETATM    3  C   UNL     1     -12.037  13.794  66.962  1.00  0.00    -0.397 C  
BRANCH   3   4
HETATM    4  N   UNL     1     -11.530  15.154  67.282  1.00  0.00    -0.322 NA 
BRANCH   4   5
HETATM    5  C   UNL     1     -10.064  15.303  66.929  1.00  0.00    -0.256 C  
BRANCH   5   6
HETATM    6  C   UNL     1      -9.903  16.300  65.776  1.00  0.00    -0.299 C  
HETATM    7  H   UNL     1     -10.766  16.780  64.120  1.00  0.00     0.000 HD 
HETATM    8  O   UNL     1     -10.865  16.162  64.834  1.00  0.00    -0.582 OA 
BRANCH   6   9
HETATM    9  N   UNL     1      -8.937  17.148  65.721  1.00  0.00    -0.501 NA 
HETATM   10  H   UNL     1      -8.417  17.238  64.848  1.00  0.00     0.000 HD 
BRANCH   9  11
HETATM   11  C   UNL     1      -8.563  17.963  66.818  1.00  0.00    -0.254 A  
HETATM   12  C   UNL     1      -9.384  18.977  67.374  1.00  0.00    -0.345 A  
HETATM   13  C   UNL     1      -8.971  19.662  68.531  1.00  0.00    -0.358 A  
HETATM   14  C   UNL     1     -10.693  19.421  66.790  1.00  0.00    -0.550 C  
HETATM   15  C   UNL     1      -7.798  19.322  69.187  1.00  0.00    -0.250 A  
HETATM   16  C   UNL     1      -6.996  18.312  68.673  1.00  0.00    -0.270 A  
HETATM   17  C   UNL     1      -7.359  17.638  67.492  1.00  0.00    -0.202 A  
HETATM   18  C   UNL     1      -6.433  16.564  66.979  1.00  0.00    -0.221 C  
ENDBRANCH   9  11
ENDBRANCH   6   9
ENDBRANCH   5   6
BRANCH   5  19
HETATM   19  C   UNL     1      -9.343  13.996  66.494  1.00  0.00    -0.274 C  
HETATM   20  C   UNL     1      -8.344  13.424  67.501  1.00  0.00    -0.190 C  
ENDBRANCH   5  19
ENDBRANCH   4   5
BRANCH   4  21
HETATM   21  C   UNL     1     -11.783  15.482  68.711  1.00  0.00    -0.357 C  
HETATM   22  C   UNL     1     -10.649  16.130  69.506  1.00  0.00    -0.306 C  
ENDBRANCH   4  21
ENDBRANCH   3   4
ENDBRANCH   2   3
TORSDOF 8
ENDMDL
MODEL       18
REMARK 921   NORMALIZED FREE ENERGY PREDICTED BY IDOCK:   -5.00 KCAL/MOL
REMARK 922        TOTAL FREE ENERGY PREDICTED BY IDOCK:   -8.31 KCAL/MOL
REMARK 923 INTER-LIGAND FREE ENERGY PREDICTED BY IDOCK:   -7.71 KCAL/MOL
REMARK 924 INTRA-LIGAND FREE ENERGY PREDICTED BY IDOCK:   -0.61 KCAL/MOL
REMARK 927      BINDING AFFINITY PREDICTED BY RF-SCORE:    0.00 PKD
ROOT
HETATM    1  C   UNL     1     -12.156  12.402  63.536  1.00  0.00    -0.651 C  
HETATM    2  C   UNL     1     -10.671  12.423  63.869  1.00  0.00    -0.465 C  
ENDROOT
BRANCH   2   3
HETATM    3  C   UNL     1     -10.304  13.500  64.912  1.00  0.00    -0.377 C  
BRANCH   3   4
HETATM    4  N   UNL     1      -9.680  13.026  66.174  1.00  0.00    -0.272 NA 
BRANCH   4   5
HETATM    5  C   UNL     1     -10.662  12.254  67.031  1.00  0.00    -0.231 C  
BRANCH   5   6
HETATM    6  C   UNL     1     -11.373  13.207  67.998  1.00  0.00    -0.292 C  
HETATM    7  H   UNL     1     -12.818  14.484  68.004  1.00  0.00     0.000 HD 
HETATM    8  O   UNL     1     -12.377  13.893  67.404  1.00  0.00    -0.316 OA 
BRANCH   6   9
HETATM    9  N   UNL     1     -11.018  13.341  69.228  1.00  0.00    -0.429 NA 
HETATM   10  H   UNL     1     -10.034  13.218  69.467  1.00  0.00     0.000 HD 
BRANCH   9  11
HETATM   11  C   UNL     1     -11.933  13.651  70.265  1.00  0.00    -0.327 A  
HETATM   12  C   UNL     1     -12.628  12.681  71.031  1.00  0.00    -0.354 A  
HETATM   13  C   UNL     1     -13.435  13.083  72.110  1.00  0.00    -0.638 A  
HETATM   14  C   UNL     1     -12.602  11.207  70.755  1.00  0.00    -0.445 C  
HETATM   15  C   UNL     1     -13.517  14.414  72.490  1.00  0.00    -0.593 A  
HETATM   16  C   UNL     1     -12.820  15.374  71.769  1.00  0.00    -0.483 A  
HETATM   17  C   UNL     1     -12.039  15.009  70.656  1.00  0.00    -0.375 A  
HETATM   18  C   UNL     1     -11.323  16.105  69.907  1.00  0.00    -0.318 C  
ENDBRANCH   9  11
ENDBRANCH   6   9
ENDBRANCH   5   6
BRANCH   5  19
HETATM   19  C   UNL     1     -10.048  11.117  67.894  1.00  0.00    -0.195 C  
HETATM   20  C   UNL     1     -10.586   9.712  67.619  1.00  0.00    -0.334 C  
ENDBRANCH   5  19
ENDBRANCH   4   5
BRANCH   4  21
HETATM   21  C   UNL     1      -9.085  14.168  66.920  1.00  0.00    -0.245 C  
HETATM   22  C   UNL     1      -9.132  15.550  66.266  1.00  0.00    -0.369 C  
ENDBRANCH   4  21
ENDBRANCH   3   4
ENDBRANCH   2   3
TORSDOF 8
ENDMDL
MODEL       19
REMARK 921   NORMALIZED FREE ENERGY PREDICTED BY IDOCK:   -4.99 KCAL/MOL
REMARK 922        TOTAL FREE ENERGY PREDICTED BY IDOCK:   -8.30 KCAL/MOL
REMARK 923 INTER-LIGAND FREE ENERGY PREDICTED BY IDOCK:   -7.68 KCAL/MOL
REMARK 924 INTRA-LIGAND FREE ENERGY PREDICTED BY IDOCK:   -0.62 KCAL/MOL
REMARK 927      BINDING AFFINITY PREDICTED BY RF-SCORE:    0.00 PKD
ROOT
HETATM    1  C   UNL     1     -10.403  16.998  66.648  1.00  0.00    -0.299 C  
HETATM    2  C   UNL     1     -10.628  16.066  65.466  1.00  0.00    -0.415 C  
ENDROOT
BRANCH   2   3
HETATM    3  C   UNL     1     -10.277  14.597  65.785  1.00  0.00    -0.340 C  
BRANCH   3   4
HETATM    4  N   UNL     1     -11.226  13.853  66.653  1.00  0.00    -0.313 NA 
BRANCH   4   5
HETATM    5  C   UNL     1     -10.533  12.745  67.421  1.00  0.00    -0.228 C  
BRANCH   5   6
HETATM    6  C   UNL     1     -11.373  12.353  68.642  1.00  0.00    -0.288 C  
HETATM    7  H   UNL     1     -12.909  11.275  69.082  1.00  0.00     0.000 HD 
HETATM    8  O   UNL     1     -12.389  11.518  68.325  1.00  0.00    -0.468 OA 
BRANCH   6   9
HETATM    9  N   UNL     1     -11.133  12.804  69.824  1.00  0.00    -0.463 NA 
HETATM   10  H   UNL     1     -10.200  12.676  70.213  1.00  0.00     0.000 HD 
BRANCH   9  11
HETATM   11  C   UNL     1     -12.108  13.471  70.607  1.00  0.00    -0.309 A  
HETATM   12  C   UNL     1     -12.414  14.850  70.494  1.00  0.00    -0.419 A  
HETATM   13  C   UNL     1     -13.471  15.400  71.240  1.00  0.00    -0.598 A  
HETATM   14  C   UNL     1     -11.653  15.819  69.637  1.00  0.00    -0.363 C  
HETATM   15  C   UNL     1     -14.274  14.605  72.044  1.00  0.00    -0.625 A  
HETATM   16  C   UNL     1     -14.007  13.246  72.143  1.00  0.00    -0.471 A  
HETATM   17  C   UNL     1     -12.928  12.673  71.444  1.00  0.00    -0.353 A  
HETATM   18  C   UNL     1     -12.683  11.194  71.613  1.00  0.00    -0.466 C  
ENDBRANCH   9  11
ENDBRANCH   6   9
ENDBRANCH   5   6
BRANCH   5  19
HETATM   19  C   UNL     1      -9.110  13.084  67.947  1.00  0.00    -0.207 C  
HETATM   20  C   UNL     1      -8.092  11.944  67.881  1.00  0.00    -0.147 C  
ENDBRANCH   5  19
ENDBRANCH   4   5
BRANCH   4  21
HETATM   21  C   UNL     1     -12.365  13.330  65.850  1.00  0.00    -0.418 C  
HETATM   22  C   UNL     1     -12.047  12.662  64.512  1.00  0.00    -0.485 C  
ENDBRANCH   4  21
ENDBRANCH   3   4
ENDBRANCH   2   3
TORSDOF 8
ENDMDL
MODEL       20
REMARK 921   NORMALIZED FREE ENERGY PREDICTED BY IDOCK:   -4.97 KCAL/MOL
REMARK 922        TOTAL FREE ENERGY PREDICTED BY IDOCK:   -8.27 KCAL/MOL
REMARK 923 INTER-LIGAND FREE ENERGY PREDICTED BY IDOCK:   -7.21 KCAL/MOL
REMARK 924 INTRA-LIGAND FREE ENERGY PREDICTED BY IDOCK:   -1.06 KCAL/MOL
REMARK 927      BINDING AFFINITY PREDICTED BY RF-SCORE:    0.00 PKD
ROOT
HETATM    1  C   UNL     1      -6.753  16.418  69.099  1.00  0.00    -0.205 C  
HETATM    2  C   UNL     1      -7.057  17.461  68.033  1.00  0.00    -0.185 C  
ENDROOT
BRANCH   2   3
HETATM    3  C   UNL     1      -8.452  17.280  67.397  1.00  0.00    -0.200 C  
BRANCH   3   4
HETATM    4  N   UNL     1      -9.617  17.288  68.319  1.00  0.00    -0.277 NA 
BRANCH   4   5
HETATM    5  C   UNL     1     -10.651  16.254  67.924  1.00  0.00    -0.318 C  
BRANCH   5   6
HETATM    6  C   UNL     1     -11.219  15.579  69.178  1.00  0.00    -0.299 C  
HETATM    7  H   UNL     1     -10.733  15.248  71.014  1.00  0.00     0.000 HD 
HETATM    8  O   UNL     1     -10.381  15.666  70.237  1.00  0.00    -0.307 OA 
BRANCH   6   9
HETATM    9  N   UNL     1     -12.358  14.980  69.189  1.00  0.00    -0.587 NA 
HETATM   10  H   UNL     1     -13.083  15.300  68.547  1.00  0.00     0.000 HD 
BRANCH   9  11
HETATM   11  C   UNL     1     -12.651  13.896  70.054  1.00  0.00    -0.169 A  
HETATM   12  C   UNL     1     -12.159  12.579  69.875  1.00  0.00    -0.322 A  
HETATM   13  C   UNL     1     -12.417  11.593  70.844  1.00  0.00    -0.440 A  
HETATM   14  C   UNL     1     -11.384  12.120  68.675  1.00  0.00    -0.330 C  
HETATM   15  C   UNL     1     -13.093  11.897  72.016  1.00  0.00    -0.441 A  
HETATM   16  C   UNL     1     -13.556  13.190  72.222  1.00  0.00    -0.677 A  
HETATM   17  C   UNL     1     -13.354  14.188  71.250  1.00  0.00    -0.370 A  
HETATM   18  C   UNL     1     -13.900  15.566  71.529  1.00  0.00    -0.539 C  
ENDBRANCH   9  11
ENDBRANCH   6   9
ENDBRANCH   5   6
BRANCH   5  19
HETATM   19  C   UNL     1     -10.141  15.117  66.996  1.00  0.00    -0.244 C  
HETATM   20  C   UNL     1     -10.908  14.939  65.685  1.00  0.00    -0.347 C  
ENDBRANCH   5  19
ENDBRANCH   4   5
BRANCH   4  21
HETATM   21  C   UNL     1     -10.209  18.651  68.397  1.00  0.00    -0.371 C  
HETATM   22  C   UNL     1     -10.736  19.275  67.104  1.00  0.00    -0.584 C  
ENDBRANCH   4  21
ENDBRANCH   3   4
ENDBRANCH   2   3
TORSDOF 8
ENDMDL
MODEL       21
REMARK 921   NORMALIZED FREE ENERGY PREDICTED BY IDOCK:   -4.95 KCAL/MOL
REMARK 922        TOTAL FREE ENERGY PREDICTED BY IDOCK:   -8.23 KCAL/MOL
REMARK 923 INTER-LIGAND FREE ENERGY PREDICTED BY IDOCK:   -7.00 KCAL/MOL
REMARK 924 INTRA-LIGAND FREE ENERGY PREDICTED BY IDOCK:   -1.23 KCAL/MOL
REMARK 927      BINDING AFFINITY PREDICTED BY RF-SCORE:    0.00 PKD
ROOT
HETATM    1  C   UNL     1     -13.081  10.651  71.748  1.00  0.00    -0.571 C  
HETATM    2  C   UNL     1     -13.646   9.336  72.263  1.00  0.00    -0.544 C  
ENDROOT
BRANCH   2   3
HETATM    3  C   UNL     1     -12.802   8.114  71.843  1.00  0.00    -0.335 C  
BRANCH   3   4
HETATM    4  N   UNL     1     -11.329   8.232  71.992  1.00  0.00    -0.301 NA 
BRANCH   4   5
HETATM    5  C   UNL     1     -10.603   7.827  70.724  1.00  0.00    -0.218 C  
BRANCH   5   6
HETATM    6  C   UNL     1     -10.456   9.040  69.799  1.00  0.00    -0.218 C  
HETATM    7  H   UNL     1      -9.345  10.602  69.592  1.00  0.00     0.000 HD 
HETATM    8  O   UNL     1      -9.436   9.851  70.166  1.00  0.00    -0.237 OA 
BRANCH   6   9
HETATM    9  N   UNL     1     -11.244   9.254  68.804  1.00  0.00    -0.447 NA 
HETATM   10  H   UNL     1     -12.223   8.983  68.890  1.00  0.00     0.000 HD 
BRANCH   9  11
HETATM   11  C   UNL     1     -10.811   9.851  67.593  1.00  0.00    -0.257 A  
HETATM   12  C   UNL     1     -10.175   9.146  66.540  1.00  0.00    -0.322 A  
HETATM   13  C   UNL     1      -9.878   9.802  65.332  1.00  0.00    -0.365 A  
HETATM   14  C   UNL     1      -9.743   7.711  66.621  1.00  0.00    -0.283 C  
HETATM   15  C   UNL     1     -10.255  11.119  65.118  1.00  0.00    -0.347 A  
HETATM   16  C   UNL     1     -10.906  11.816  66.127  1.00  0.00    -0.336 A  
HETATM   17  C   UNL     1     -11.178  11.201  67.364  1.00  0.00    -0.363 A  
HETATM   18  C   UNL     1     -11.871  12.022  68.423  1.00  0.00    -0.360 C  
ENDBRANCH   9  11
ENDBRANCH   6   9
ENDBRANCH   5   6
BRANCH   5  19
HETATM   19  C   UNL     1     -11.286   6.708  69.890  1.00  0.00    -0.421 C  
HETATM   20  C   UNL     1     -10.484   5.414  69.736  1.00  0.00    -0.378 C  
ENDBRANCH   5  19
ENDBRANCH   4   5
BRANCH   4  21
HETATM   21  C   UNL     1     -10.859   7.445  73.164  1.00  0.00    -0.386 C  
HETATM   22  C   UNL     1      -9.378   7.532  73.534  1.00  0.00    -0.316 C  
ENDBRANCH   4  21
ENDBRANCH   3   4
ENDBRANCH   2   3
TORSDOF 8
ENDMDL
MODEL       22
REMARK 921   NORMALIZED FREE ENERGY PREDICTED BY IDOCK:   -4.92 KCAL/MOL
REMARK 922        TOTAL FREE ENERGY PREDICTED BY IDOCK:   -8.20 KCAL/MOL
REMARK 923 INTER-LIGAND FREE ENERGY PREDICTED BY IDOCK:   -6.90 KCAL/MOL
REMARK 924 INTRA-LIGAND FREE ENERGY PREDICTED BY IDOCK:   -1.29 KCAL/MOL
REMARK 927      BINDING AFFINITY PREDICTED BY RF-SCORE:    0.00 PKD
ROOT
HETATM    1  C   UNL     1     -10.724  19.237  67.242  1.00  0.00    -0.594 C  
HETATM    2  C   UNL     1     -10.284  17.975  66.514  1.00  0.00    -0.383 C  
ENDROOT
BRANCH   2   3
HETATM    3  C   UNL     1     -10.758  16.683  67.211  1.00  0.00    -0.227 C  
BRANCH   3   4
HETATM    4  N   UNL     1     -10.671  15.425  66.426  1.00  0.00    -0.310 NA 
BRANCH   4   5
HETATM    5  C   UNL     1     -11.360  14.275  67.131  1.00  0.00    -0.337 C  
BRANCH   5   6
HETATM    6  C   UNL     1     -12.235  13.502  66.137  1.00  0.00    -0.433 C  
HETATM    7  H   UNL     1     -13.585  13.836  64.802  1.00  0.00     0.000 HD 
HETATM    8  O   UNL     1     -13.043  14.315  65.418  1.00  0.00    -0.685 OA 
BRANCH   6   9
HETATM    9  N   UNL     1     -12.204  12.219  66.036  1.00  0.00    -0.597 NA 
HETATM   10  H   UNL     1     -13.087  11.715  65.958  1.00  0.00     0.000 HD 
BRANCH   9  11
HETATM   11  C   UNL     1     -10.997  11.476  66.027  1.00  0.00    -0.259 A  
HETATM   12  C   UNL     1     -10.560  10.654  67.096  1.00  0.00    -0.312 A  
HETATM   13  C   UNL     1      -9.401   9.871  66.953  1.00  0.00    -0.184 A  
HETATM   14  C   UNL     1     -11.238  10.570  68.432  1.00  0.00    -0.339 C  
HETATM   15  C   UNL     1      -8.703   9.832  65.756  1.00  0.00    -0.160 A  
HETATM   16  C   UNL     1      -9.133  10.609  64.689  1.00  0.00    -0.238 A  
HETATM   17  C   UNL     1     -10.264  11.438  64.814  1.00  0.00    -0.338 A  
HETATM   18  C   UNL     1     -10.665  12.270  63.622  1.00  0.00    -0.513 C  
ENDBRANCH   9  11
ENDBRANCH   6   9
ENDBRANCH   5   6
BRANCH   5  19
HETATM   19  C   UNL     1     -12.278  14.672  68.321  1.00  0.00    -0.112 C  
HETATM   20  C   UNL     1     -12.102  13.847  69.597  1.00  0.00    -0.404 C  
ENDBRANCH   5  19
ENDBRANCH   4   5
BRANCH   4  21
HETATM   21  C   UNL     1      -9.252  15.103  66.115  1.00  0.00    -0.283 C  
HETATM   22  C   UNL     1      -8.557  14.043  66.971  1.00  0.00    -0.193 C  
ENDBRANCH   4  21
ENDBRANCH   3   4
ENDBRANCH   2   3
TORSDOF 8
ENDMDL
MODEL       23
REMARK 921   NORMALIZED FREE ENERGY PREDICTED BY IDOCK:   -4.91 KCAL/MOL
REMARK 922        TOTAL FREE ENERGY PREDICTED BY IDOCK:   -8.17 KCAL/MOL
REMARK 923 INTER-LIGAND FREE ENERGY PREDICTED BY IDOCK:   -6.85 KCAL/MOL
REMARK 924 INTRA-LIGAND FREE ENERGY PREDICTED BY IDOCK:   -1.32 KCAL/MOL
REMARK 927      BINDING AFFINITY PREDICTED BY RF-SCORE:    0.00 PKD
ROOT
HETATM    1  C   UNL     1     -12.369  12.568  64.799  1.00  0.00    -0.544 C  
HETATM    2  C   UNL     1     -12.863  13.678  65.717  1.00  0.00    -0.390 C  
ENDROOT
BRANCH   2   3
HETATM    3  C   UNL     1     -12.005  13.831  66.990  1.00  0.00    -0.413 C  
BRANCH   3   4
HETATM    4  N   UNL     1     -11.539  15.201  67.325  1.00  0.00    -0.282 NA 
BRANCH   4   5
HETATM    5  C   UNL     1     -10.096  15.419  66.916  1.00  0.00    -0.257 C  
BRANCH   5   6
HETATM    6  C   UNL     1     -10.028  16.428  65.764  1.00  0.00    -0.302 C  
HETATM    7  H   UNL     1     -10.903  16.805  64.088  1.00  0.00     0.000 HD 
HETATM    8  O   UNL     1     -10.946  16.179  64.802  1.00  0.00    -0.594 OA 
BRANCH   6   9
HETATM    9  N   UNL     1      -9.166  17.383  65.728  1.00  0.00    -0.503 NA 
HETATM   10  H   UNL     1      -8.879  17.747  64.820  1.00  0.00     0.000 HD 
BRANCH   9  11
HETATM   11  C   UNL     1      -8.598  17.953  66.895  1.00  0.00    -0.245 A  
HETATM   12  C   UNL     1      -7.294  17.662  67.370  1.00  0.00    -0.202 A  
HETATM   13  C   UNL     1      -6.777  18.356  68.479  1.00  0.00    -0.253 A  
HETATM   14  C   UNL     1      -6.396  16.610  66.789  1.00  0.00    -0.157 C  
HETATM   15  C   UNL     1      -7.493  19.377  69.085  1.00  0.00    -0.342 A  
HETATM   16  C   UNL     1      -8.760  19.695  68.614  1.00  0.00    -0.317 A  
HETATM   17  C   UNL     1      -9.324  18.988  67.536  1.00  0.00    -0.341 A  
HETATM   18  C   UNL     1     -10.712  19.373  67.088  1.00  0.00    -0.593 C  
ENDBRANCH   9  11
ENDBRANCH   6   9
ENDBRANCH   5   6
BRANCH   5  19
HETATM   19  C   UNL     1      -9.335  14.149  66.444  1.00  0.00    -0.254 C  
HETATM   20  C   UNL     1      -8.425  13.497  67.486  1.00  0.00    -0.192 C  
ENDBRANCH   5  19
ENDBRANCH   4   5
BRANCH   4  21
HETATM   21  C   UNL     1     -11.744  15.481  68.772  1.00  0.00    -0.357 C  
HETATM   22  C   UNL     1     -10.642  16.239  69.515  1.00  0.00    -0.314 C  
ENDBRANCH   4  21
ENDBRANCH   3   4
ENDBRANCH   2   3
TORSDOF 8
ENDMDL
MODEL       24
REMARK 921   NORMALIZED FREE ENERGY PREDICTED BY IDOCK:   -4.90 KCAL/MOL
REMARK 922        TOTAL FREE ENERGY PREDICTED BY IDOCK:   -8.17 KCAL/MOL
REMARK 923 INTER-LIGAND FREE ENERGY PREDICTED BY IDOCK:   -7.10 KCAL/MOL
REMARK 924 INTRA-LIGAND FREE ENERGY PREDICTED BY IDOCK:   -1.07 KCAL/MOL
REMARK 927      BINDING AFFINITY PREDICTED BY RF-SCORE:    0.00 PKD
ROOT
HETATM    1  C   UNL     1      -7.058  19.349  68.705  1.00  0.00    -0.382 C  
HETATM    2  C   UNL     1      -7.835  18.338  67.874  1.00  0.00    -0.255 C  
ENDROOT
BRANCH   2   3
HETATM    3  C   UNL     1      -9.088  17.801  68.599  1.00  0.00    -0.260 C  
BRANCH   3   4
HETATM    4  N   UNL     1     -10.242  17.415  67.747  1.00  0.00    -0.329 NA 
BRANCH   4   5
HETATM    5  C   UNL     1     -10.334  15.913  67.574  1.00  0.00    -0.283 C  
BRANCH   5   6
HETATM    6  C   UNL     1     -11.621  15.390  68.221  1.00  0.00    -0.348 C  
HETATM    7  H   UNL     1     -12.608  15.556  69.869  1.00  0.00     0.000 HD 
HETATM    8  O   UNL     1     -11.810  15.880  69.468  1.00  0.00    -0.345 OA 
BRANCH   6   9
HETATM    9  N   UNL     1     -12.406  14.558  67.631  1.00  0.00    -0.585 NA 
HETATM   10  H   UNL     1     -13.408  14.748  67.632  1.00  0.00     0.000 HD 
BRANCH   9  11
HETATM   11  C   UNL     1     -11.941  13.388  66.981  1.00  0.00    -0.379 A  
HETATM   12  C   UNL     1     -11.693  13.295  65.588  1.00  0.00    -0.389 A  
HETATM   13  C   UNL     1     -11.130  12.124  65.050  1.00  0.00    -0.368 A  
HETATM   14  C   UNL     1     -12.024  14.371  64.596  1.00  0.00    -0.475 C  
HETATM   15  C   UNL     1     -10.747  11.070  65.864  1.00  0.00    -0.226 A  
HETATM   16  C   UNL     1     -10.955  11.155  67.235  1.00  0.00    -0.354 A  
HETATM   17  C   UNL     1     -11.557  12.295  67.800  1.00  0.00    -0.416 A  
HETATM   18  C   UNL     1     -11.772  12.314  69.292  1.00  0.00    -0.388 C  
ENDBRANCH   9  11
ENDBRANCH   6   9
ENDBRANCH   5   6
BRANCH   5  19
HETATM   19  C   UNL     1      -9.162  15.095  68.185  1.00  0.00    -0.184 C  
HETATM   20  C   UNL     1      -8.347  14.263  67.193  1.00  0.00    -0.202 C  
ENDBRANCH   5  19
ENDBRANCH   4   5
BRANCH   4  21
HETATM   21  C   UNL     1     -10.178  18.113  66.435  1.00  0.00    -0.399 C  
HETATM   22  C   UNL     1     -10.743  19.533  66.354  1.00  0.00    -0.528 C  
ENDBRANCH   4  21
ENDBRANCH   3   4
ENDBRANCH   2   3
TORSDOF 8
ENDMDL
MODEL       25
REMARK 921   NORMALIZED FREE ENERGY PREDICTED BY IDOCK:   -4.90 KCAL/MOL
REMARK 922        TOTAL FREE ENERGY PREDICTED BY IDOCK:   -8.16 KCAL/MOL
REMARK 923 INTER-LIGAND FREE ENERGY PREDICTED BY IDOCK:   -7.39 KCAL/MOL
REMARK 924 INTRA-LIGAND FREE ENERGY PREDICTED BY IDOCK:   -0.77 KCAL/MOL
REMARK 927      BINDING AFFINITY PREDICTED BY RF-SCORE:    0.00 PKD
ROOT
HETATM    1  C   UNL     1     -13.192   7.987  71.750  1.00  0.00    -0.367 C  
HETATM    2  C   UNL     1     -13.747   9.358  71.393  1.00  0.00    -0.309 C  
ENDROOT
BRANCH   2   3
HETATM    3  C   UNL     1     -12.737  10.498  71.643  1.00  0.00    -0.445 C  
BRANCH   3   4
HETATM    4  N   UNL     1     -12.536  11.472  70.539  1.00  0.00    -0.305 NA 
BRANCH   4   5
HETATM    5  C   UNL     1     -11.174  11.313  69.893  1.00  0.00    -0.187 C  
BRANCH   5   6
HETATM    6  C   UNL     1     -11.137  12.076  68.563  1.00  0.00    -0.244 C  
HETATM    7  H   UNL     1     -10.352  13.665  67.805  1.00  0.00     0.000 HD 
HETATM    8  O   UNL     1     -10.375  13.193  68.629  1.00  0.00    -0.243 OA 
BRANCH   6   9
HETATM    9  N   UNL     1     -11.787  11.689  67.522  1.00  0.00    -0.624 NA 
HETATM   10  H   UNL     1     -12.724  11.306  67.648  1.00  0.00     0.000 HD 
BRANCH   9  11
HETATM   11  C   UNL     1     -11.259  11.772  66.210  1.00  0.00    -0.312 A  
HETATM   12  C   UNL     1     -10.482  10.757  65.598  1.00  0.00    -0.255 A  
HETATM   13  C   UNL     1     -10.092  10.883  64.252  1.00  0.00    -0.413 A  
HETATM   14  C   UNL     1      -9.992   9.525  66.302  1.00  0.00    -0.344 C  
HETATM   15  C   UNL     1     -10.509  11.956  63.481  1.00  0.00    -0.505 A  
HETATM   16  C   UNL     1     -11.295  12.946  64.056  1.00  0.00    -0.466 A  
HETATM   17  C   UNL     1     -11.665  12.871  65.412  1.00  0.00    -0.413 A  
HETATM   18  C   UNL     1     -12.504  13.990  65.977  1.00  0.00    -0.489 C  
ENDBRANCH   9  11
ENDBRANCH   6   9
ENDBRANCH   5   6
BRANCH   5  19
HETATM   19  C   UNL     1     -10.746   9.852  69.583  1.00  0.00    -0.277 C  
HETATM   20  C   UNL     1      -9.461   9.380  70.264  1.00  0.00    -0.294 C  
ENDBRANCH   5  19
ENDBRANCH   4   5
BRANCH   4  21
HETATM   21  C   UNL     1     -12.750  12.862  71.026  1.00  0.00    -0.251 C  
HETATM   22  C   UNL     1     -13.553  13.051  72.314  1.00  0.00    -0.643 C  
ENDBRANCH   4  21
ENDBRANCH   3   4
ENDBRANCH   2   3
TORSDOF 8
ENDMDL
MODEL       26
REMARK 921   NORMALIZED FREE ENERGY PREDICTED BY IDOCK:   -4.89 KCAL/MOL
REMARK 922        TOTAL FREE ENERGY PREDICTED BY IDOCK:   -8.14 KCAL/MOL
REMARK 923 INTER-LIGAND FREE ENERGY PREDICTED BY IDOCK:   -7.18 KCAL/MOL
REMARK 924 INTRA-LIGAND FREE ENERGY PREDICTED BY IDOCK:   -0.96 KCAL/MOL
REMARK 927      BINDING AFFINITY PREDICTED BY RF-SCORE:    0.00 PKD
ROOT
HETATM    1  C   UNL     1     -11.689  15.587  72.416  1.00  0.00    -0.570 C  
HETATM    2  C   UNL     1     -12.094  15.738  70.956  1.00  0.00    -0.464 C  
ENDROOT
BRANCH   2   3
HETATM    3  C   UNL     1     -10.887  15.727  69.994  1.00  0.00    -0.342 C  
BRANCH   3   4
HETATM    4  N   UNL     1     -11.186  15.650  68.541  1.00  0.00    -0.323 NA 
BRANCH   4   5
HETATM    5  C   UNL     1     -10.585  14.411  67.910  1.00  0.00    -0.240 C  
BRANCH   5   6
HETATM    6  C   UNL     1     -11.595  13.258  67.960  1.00  0.00    -0.336 C  
HETATM    7  H   UNL     1     -12.492  12.148  69.256  1.00  0.00     0.000 HD 
HETATM    8  O   UNL     1     -11.866  12.862  69.225  1.00  0.00    -0.301 OA 
BRANCH   6   9
HETATM    9  N   UNL     1     -12.095  12.726  66.899  1.00  0.00    -0.468 NA 
HETATM   10  H   UNL     1     -13.106  12.754  66.771  1.00  0.00     0.000 HD 
BRANCH   9  11
HETATM   11  C   UNL     1     -11.303  12.106  65.901  1.00  0.00    -0.356 A  
HETATM   12  C   UNL     1     -10.614  10.880  66.079  1.00  0.00    -0.254 A  
HETATM   13  C   UNL     1      -9.939  10.288  64.996  1.00  0.00    -0.393 A  
HETATM   14  C   UNL     1     -10.510  10.148  67.385  1.00  0.00    -0.310 C  
HETATM   15  C   UNL     1      -9.987  10.846  63.728  1.00  0.00    -0.408 A  
HETATM   16  C   UNL     1     -10.682  12.031  63.529  1.00  0.00    -0.513 A  
HETATM   17  C   UNL     1     -11.330  12.672  64.602  1.00  0.00    -0.360 A  
HETATM   18  C   UNL     1     -12.050  13.967  64.320  1.00  0.00    -0.477 C  
ENDBRANCH   9  11
ENDBRANCH   6   9
ENDBRANCH   5   6
BRANCH   5  19
HETATM   19  C   UNL     1      -9.278  13.890  68.569  1.00  0.00    -0.154 C  
HETATM   20  C   UNL     1      -8.269  13.243  67.618  1.00  0.00    -0.179 C  
ENDBRANCH   5  19
ENDBRANCH   4   5
BRANCH   4  21
HETATM   21  C   UNL     1     -10.736  16.888  67.850  1.00  0.00    -0.344 C  
HETATM   22  C   UNL     1      -9.912  17.895  68.655  1.00  0.00    -0.387 C  
ENDBRANCH   4  21
ENDBRANCH   3   4
ENDBRANCH   2   3
TORSDOF 8
ENDMDL
MODEL       27
REMARK 921   NORMALIZED FREE ENERGY PREDICTED BY IDOCK:   -4.88 KCAL/MOL
REMARK 922        TOTAL FREE ENERGY PREDICTED BY IDOCK:   -8.14 KCAL/MOL
REMARK 923 INTER-LIGAND FREE ENERGY PREDICTED BY IDOCK:   -7.74 KCAL/MOL
REMARK 924 INTRA-LIGAND FREE ENERGY PREDICTED BY IDOCK:   -0.39 KCAL/MOL
REMARK 927      BINDING AFFINITY PREDICTED BY RF-SCORE:    0.00 PKD
ROOT
HETATM    1  C   UNL     1     -13.326  15.761  73.170  1.00  0.00    -0.685 C  
HETATM    2  C   UNL     1     -12.524  15.704  71.878  1.00  0.00    -0.505 C  
ENDROOT
BRANCH   2   3
HETATM    3  C   UNL     1     -13.028  14.616  70.906  1.00  0.00    -0.365 C  
BRANCH   3   4
HETATM    4  N   UNL     1     -12.011  13.680  70.361  1.00  0.00    -0.322 NA 
BRANCH   4   5
HETATM    5  C   UNL     1     -11.870  13.818  68.859  1.00  0.00    -0.360 C  
BRANCH   5   6
HETATM    6  C   UNL     1     -11.191  12.570  68.282  1.00  0.00    -0.266 C  
HETATM    7  H   UNL     1      -9.516  11.623  68.400  1.00  0.00     0.000 HD 
HETATM    8  O   UNL     1      -9.936  12.397  68.757  1.00  0.00    -0.152 OA 
BRANCH   6   9
HETATM    9  N   UNL     1     -11.764  11.803  67.422  1.00  0.00    -0.588 NA 
HETATM   10  H   UNL     1     -12.531  11.208  67.734  1.00  0.00     0.000 HD 
BRANCH   9  11
HETATM   11  C   UNL     1     -11.378  11.749  66.059  1.00  0.00    -0.273 A  
HETATM   12  C   UNL     1     -11.737  12.719  65.090  1.00  0.00    -0.396 A  
HETATM   13  C   UNL     1     -11.218  12.637  63.785  1.00  0.00    -0.519 A  
HETATM   14  C   UNL     1     -12.689  13.852  65.338  1.00  0.00    -0.525 C  
HETATM   15  C   UNL     1     -10.301  11.658  63.437  1.00  0.00    -0.482 A  
HETATM   16  C   UNL     1      -9.915  10.716  64.382  1.00  0.00    -0.415 A  
HETATM   17  C   UNL     1     -10.451  10.744  65.684  1.00  0.00    -0.255 A  
HETATM   18  C   UNL     1     -10.003   9.681  66.655  1.00  0.00    -0.301 C  
ENDBRANCH   9  11
ENDBRANCH   6   9
ENDBRANCH   5   6
BRANCH   5  19
HETATM   19  C   UNL     1     -11.044  15.042  68.373  1.00  0.00    -0.284 C  
HETATM   20  C   UNL     1      -9.976  15.547  69.346  1.00  0.00    -0.277 C  
ENDBRANCH   5  19
ENDBRANCH   4   5
BRANCH   4  21
HETATM   21  C   UNL     1     -12.329  12.280  70.753  1.00  0.00    -0.290 C  
HETATM   22  C   UNL     1     -13.248  12.068  71.957  1.00  0.00    -0.481 C  
ENDBRANCH   4  21
ENDBRANCH   3   4
ENDBRANCH   2   3
TORSDOF 8
ENDMDL
MODEL       28
REMARK 921   NORMALIZED FREE ENERGY PREDICTED BY IDOCK:   -4.88 KCAL/MOL
REMARK 922        TOTAL FREE ENERGY PREDICTED BY IDOCK:   -8.13 KCAL/MOL
REMARK 923 INTER-LIGAND FREE ENERGY PREDICTED BY IDOCK:   -7.22 KCAL/MOL
REMARK 924 INTRA-LIGAND FREE ENERGY PREDICTED BY IDOCK:   -0.92 KCAL/MOL
REMARK 927      BINDING AFFINITY PREDICTED BY RF-SCORE:    0.00 PKD
ROOT
HETATM    1  C   UNL     1      -9.305   5.987  73.628  1.00  0.00    -0.135 C  
HETATM    2  C   UNL     1      -9.364   7.488  73.381  1.00  0.00    -0.291 C  
ENDROOT
BRANCH   2   3
HETATM    3  C   UNL     1     -10.737   7.955  72.853  1.00  0.00    -0.375 C  
BRANCH   3   4
HETATM    4  N   UNL     1     -10.759   8.598  71.514  1.00  0.00    -0.257 NA 
BRANCH   4   5
HETATM    5  C   UNL     1     -12.152   9.060  71.136  1.00  0.00    -0.287 C  
BRANCH   5   6
HETATM    6  C   UNL     1     -12.155  10.577  70.914  1.00  0.00    -0.383 C  
HETATM    7  H   UNL     1     -13.230  12.120  71.337  1.00  0.00     0.000 HD 
HETATM    8  O   UNL     1     -13.229  11.180  71.475  1.00  0.00    -0.388 OA 
BRANCH   6   9
HETATM    9  N   UNL     1     -11.239  11.182  70.241  1.00  0.00    -0.479 NA 
HETATM   10  H   UNL     1     -10.267  11.062  70.525  1.00  0.00     0.000 HD 
BRANCH   9  11
HETATM   11  C   UNL     1     -11.521  12.007  69.124  1.00  0.00    -0.300 A  
HETATM   12  C   UNL     1     -11.842  13.385  69.211  1.00  0.00    -0.385 A  
HETATM   13  C   UNL     1     -12.002  14.146  68.039  1.00  0.00    -0.372 A  
HETATM   14  C   UNL     1     -12.067  14.122  70.498  1.00  0.00    -0.420 C  
HETATM   15  C   UNL     1     -11.787  13.592  66.787  1.00  0.00    -0.450 A  
HETATM   16  C   UNL     1     -11.443  12.250  66.684  1.00  0.00    -0.431 A  
HETATM   17  C   UNL     1     -11.320  11.450  67.836  1.00  0.00    -0.371 A  
HETATM   18  C   UNL     1     -10.963   9.997  67.650  1.00  0.00    -0.297 C  
ENDBRANCH   9  11
ENDBRANCH   6   9
ENDBRANCH   5   6
BRANCH   5  19
HETATM   19  C   UNL     1     -13.263   8.758  72.180  1.00  0.00    -0.456 C  
HETATM   20  C   UNL     1     -14.379   7.825  71.707  1.00  0.00    -0.594 C  
ENDBRANCH   5  19
ENDBRANCH   4   5
BRANCH   4  21
HETATM   21  C   UNL     1     -10.191   7.682  70.488  1.00  0.00    -0.201 C  
HETATM   22  C   UNL     1     -11.165   6.817  69.686  1.00  0.00    -0.345 C  
ENDBRANCH   4  21
ENDBRANCH   3   4
ENDBRANCH   2   3
TORSDOF 8
ENDMDL
MODEL       29
REMARK 921   NORMALIZED FREE ENERGY PREDICTED BY IDOCK:   -4.83 KCAL/MOL
REMARK 922        TOTAL FREE ENERGY PREDICTED BY IDOCK:   -8.06 KCAL/MOL
REMARK 923 INTER-LIGAND FREE ENERGY PREDICTED BY IDOCK:   -7.76 KCAL/MOL
REMARK 924 INTRA-LIGAND FREE ENERGY PREDICTED BY IDOCK:   -0.30 KCAL/MOL
REMARK 927      BINDING AFFINITY PREDICTED BY RF-SCORE:    0.00 PKD
ROOT
HETATM    1  C   UNL     1     -12.179  13.800  64.270  1.00  0.00    -0.444 C  
HETATM    2  C   UNL     1     -12.743  13.231  65.565  1.00  0.00    -0.429 C  
ENDROOT
BRANCH   2   3
HETATM    3  C   UNL     1     -11.647  12.868  66.589  1.00  0.00    -0.372 C  
BRANCH   3   4
HETATM    4  N   UNL     1     -11.716  11.514  67.196  1.00  0.00    -0.577 NA 
BRANCH   4   5
HETATM    5  C   UNL     1     -11.863  11.581  68.702  1.00  0.00    -0.318 C  
BRANCH   5   6
HETATM    6  C   UNL     1     -11.600  13.011  69.189  1.00  0.00    -0.316 C  
HETATM    7  H   UNL     1     -10.142  14.261  69.353  1.00  0.00     0.000 HD 
HETATM    8  O   UNL     1     -10.304  13.375  69.052  1.00  0.00    -0.128 OA 
BRANCH   6   9
HETATM    9  N   UNL     1     -12.524  13.754  69.690  1.00  0.00    -0.299 NA 
HETATM   10  H   UNL     1     -13.406  13.842  69.187  1.00  0.00     0.000 HD 
BRANCH   9  11
HETATM   11  C   UNL     1     -12.370  14.456  70.912  1.00  0.00    -0.349 A  
HETATM   12  C   UNL     1     -11.802  15.750  71.021  1.00  0.00    -0.460 A  
HETATM   13  C   UNL     1     -11.788  16.410  72.263  1.00  0.00    -0.531 A  
HETATM   14  C   UNL     1     -11.158  16.491  69.886  1.00  0.00    -0.241 C  
HETATM   15  C   UNL     1     -12.382  15.848  73.382  1.00  0.00    -0.647 A  
HETATM   16  C   UNL     1     -12.969  14.593  73.287  1.00  0.00    -0.569 A  
HETATM   17  C   UNL     1     -12.959  13.887  72.069  1.00  0.00    -0.438 A  
HETATM   18  C   UNL     1     -13.598  12.521  72.040  1.00  0.00    -0.387 C  
ENDBRANCH   9  11
ENDBRANCH   6   9
ENDBRANCH   5   6
BRANCH   5  19
HETATM   19  C   UNL     1     -10.913  10.653  69.510  1.00  0.00    -0.321 C  
HETATM   20  C   UNL     1     -11.517  10.018  70.764  1.00  0.00    -0.438 C  
ENDBRANCH   5  19
ENDBRANCH   4   5
BRANCH   4  21
HETATM   21  C   UNL     1     -10.533  10.704  66.798  1.00  0.00    -0.247 C  
HETATM   22  C   UNL     1      -9.464  11.379  65.938  1.00  0.00    -0.251 C  
ENDBRANCH   4  21
ENDBRANCH   3   4
ENDBRANCH   2   3
TORSDOF 8
ENDMDL
MODEL       30
REMARK 921   NORMALIZED FREE ENERGY PREDICTED BY IDOCK:   -4.81 KCAL/MOL
REMARK 922        TOTAL FREE ENERGY PREDICTED BY IDOCK:   -8.02 KCAL/MOL
REMARK 923 INTER-LIGAND FREE ENERGY PREDICTED BY IDOCK:   -7.06 KCAL/MOL
REMARK 924 INTRA-LIGAND FREE ENERGY PREDICTED BY IDOCK:   -0.96 KCAL/MOL
REMARK 927      BINDING AFFINITY PREDICTED BY RF-SCORE:    0.00 PKD
ROOT
HETATM    1  C   UNL     1      -7.003  20.093  67.990  1.00  0.00    -0.325 C  
HETATM    2  C   UNL     1      -7.701  18.827  67.514  1.00  0.00    -0.244 C  
ENDROOT
BRANCH   2   3
HETATM    3  C   UNL     1      -8.689  18.259  68.555  1.00  0.00    -0.308 C  
BRANCH   3   4
HETATM    4  N   UNL     1      -9.961  17.693  68.036  1.00  0.00    -0.308 NA 
BRANCH   4   5
HETATM    5  C   UNL     1     -10.039  16.196  68.256  1.00  0.00    -0.232 C  
BRANCH   5   6
HETATM    6  C   UNL     1     -11.287  15.854  69.079  1.00  0.00    -0.371 C  
HETATM    7  H   UNL     1     -12.059  16.239  70.803  1.00  0.00     0.000 HD 
HETATM    8  O   UNL     1     -11.285  16.450  70.293  1.00  0.00    -0.367 OA 
BRANCH   6   9
HETATM    9  N   UNL     1     -12.208  15.065  68.648  1.00  0.00    -0.593 NA 
HETATM   10  H   UNL     1     -13.134  15.451  68.464  1.00  0.00     0.000 HD 
BRANCH   9  11
HETATM   11  C   UNL     1     -11.992  13.683  68.417  1.00  0.00    -0.356 A  
HETATM   12  C   UNL     1     -11.618  13.133  67.165  1.00  0.00    -0.410 A  
HETATM   13  C   UNL     1     -11.323  11.762  67.058  1.00  0.00    -0.387 A  
HETATM   14  C   UNL     1     -11.540  13.915  65.887  1.00  0.00    -0.348 C  
HETATM   15  C   UNL     1     -11.325  10.938  68.172  1.00  0.00    -0.383 A  
HETATM   16  C   UNL     1     -11.661  11.466  69.412  1.00  0.00    -0.391 A  
HETATM   17  C   UNL     1     -12.005  12.824  69.545  1.00  0.00    -0.338 A  
HETATM   18  C   UNL     1     -12.378  13.327  70.917  1.00  0.00    -0.413 C  
ENDBRANCH   9  11
ENDBRANCH   6   9
ENDBRANCH   5   6
BRANCH   5  19
HETATM   19  C   UNL     1      -8.828  15.564  68.996  1.00  0.00    -0.242 C  
HETATM   20  C   UNL     1      -8.333  14.229  68.436  1.00  0.00    -0.164 C  
ENDBRANCH   5  19
ENDBRANCH   4   5
BRANCH   4  21
HETATM   21  C   UNL     1     -10.139  18.044  66.601  1.00  0.00    -0.372 C  
HETATM   22  C   UNL     1     -10.749  19.407  66.270  1.00  0.00    -0.508 C  
ENDBRANCH   4  21
ENDBRANCH   3   4
ENDBRANCH   2   3
TORSDOF 8
ENDMDL
MODEL       31
REMARK 921   NORMALIZED FREE ENERGY PREDICTED BY IDOCK:   -4.80 KCAL/MOL
REMARK 922        TOTAL FREE ENERGY PREDICTED BY IDOCK:   -8.01 KCAL/MOL
REMARK 923 INTER-LIGAND FREE ENERGY PREDICTED BY IDOCK:   -6.92 KCAL/MOL
REMARK 924 INTRA-LIGAND FREE ENERGY PREDICTED BY IDOCK:   -1.09 KCAL/MOL
REMARK 927      BINDING AFFINITY PREDICTED BY RF-SCORE:    0.00 PKD
ROOT
HETATM    1  C   UNL     1     -11.827  15.697  70.053  1.00  0.00    -0.381 C  
HETATM    2  C   UNL     1     -12.039  14.203  69.858  1.00  0.00    -0.405 C  
ENDROOT
BRANCH   2   3
HETATM    3  C   UNL     1     -12.022  13.783  68.373  1.00  0.00    -0.360 C  
BRANCH   3   4
HETATM    4  N   UNL     1     -10.751  13.987  67.631  1.00  0.00    -0.255 NA 
BRANCH   4   5
HETATM    5  C   UNL     1     -11.000  14.332  66.177  1.00  0.00    -0.313 C  
BRANCH   5   6
HETATM    6  C   UNL     1     -10.719  15.820  65.939  1.00  0.00    -0.313 C  
HETATM    7  H   UNL     1     -10.761  17.112  64.508  1.00  0.00     0.000 HD 
HETATM    8  O   UNL     1     -10.935  16.189  64.655  1.00  0.00    -0.642 OA 
BRANCH   6   9
HETATM    9  N   UNL     1     -10.301  16.605  66.869  1.00  0.00    -0.301 NA 
HETATM   10  H   UNL     1     -10.827  16.650  67.742  1.00  0.00     0.000 HD 
BRANCH   9  11
HETATM   11  C   UNL     1      -9.142  17.410  66.736  1.00  0.00    -0.260 A  
HETATM   12  C   UNL     1      -7.817  16.908  66.753  1.00  0.00    -0.279 A  
HETATM   13  C   UNL     1      -6.734  17.771  66.506  1.00  0.00    -0.259 A  
HETATM   14  C   UNL     1      -7.455  15.484  67.058  1.00  0.00    -0.205 C  
HETATM   15  C   UNL     1      -6.936  19.102  66.177  1.00  0.00    -0.266 A  
HETATM   16  C   UNL     1      -8.230  19.605  66.127  1.00  0.00    -0.355 A  
HETATM   17  C   UNL     1      -9.332  18.778  66.413  1.00  0.00    -0.321 A  
HETATM   18  C   UNL     1     -10.708  19.393  66.359  1.00  0.00    -0.509 C  
ENDBRANCH   9  11
ENDBRANCH   6   9
ENDBRANCH   5   6
BRANCH   5  19
HETATM   19  C   UNL     1     -12.441  14.060  65.661  1.00  0.00    -0.531 C  
HETATM   20  C   UNL     1     -12.616  12.792  64.824  1.00  0.00    -0.518 C  
ENDBRANCH   5  19
ENDBRANCH   4   5
BRANCH   4  21
HETATM   21  C   UNL     1      -9.873  12.793  67.766  1.00  0.00    -0.220 C  
HETATM   22  C   UNL     1      -9.403  12.105  66.484  1.00  0.00    -0.229 C  
ENDBRANCH   4  21
ENDBRANCH   3   4
ENDBRANCH   2   3
TORSDOF 8
ENDMDL
MODEL       32
REMARK 921   NORMALIZED FREE ENERGY PREDICTED BY IDOCK:   -4.80 KCAL/MOL
REMARK 922        TOTAL FREE ENERGY PREDICTED BY IDOCK:   -8.01 KCAL/MOL
REMARK 923 INTER-LIGAND FREE ENERGY PREDICTED BY IDOCK:   -6.95 KCAL/MOL
REMARK 924 INTRA-LIGAND FREE ENERGY PREDICTED BY IDOCK:   -1.06 KCAL/MOL
REMARK 927      BINDING AFFINITY PREDICTED BY RF-SCORE:    0.00 PKD
ROOT
HETATM    1  C   UNL     1     -11.074  15.596  70.715  1.00  0.00    -0.382 C  
HETATM    2  C   UNL     1     -11.962  15.306  69.513  1.00  0.00    -0.356 C  
ENDROOT
BRANCH   2   3
HETATM    3  C   UNL     1     -11.172  15.219  68.191  1.00  0.00    -0.324 C  
BRANCH   3   4
HETATM    4  N   UNL     1     -11.463  14.059  67.309  1.00  0.00    -0.330 NA 
BRANCH   4   5
HETATM    5  C   UNL     1     -10.523  12.901  67.577  1.00  0.00    -0.223 C  
BRANCH   5   6
HETATM    6  C   UNL     1     -11.214  11.864  68.470  1.00  0.00    -0.256 C  
HETATM    7  H   UNL     1     -12.653  10.583  68.389  1.00  0.00     0.000 HD 
HETATM    8  O   UNL     1     -12.225  11.226  67.836  1.00  0.00    -0.570 OA 
BRANCH   6   9
HETATM    9  N   UNL     1     -10.868  11.659  69.692  1.00  0.00    -0.458 NA 
HETATM   10  H   UNL     1     -10.074  12.179  70.067  1.00  0.00     0.000 HD 
BRANCH   9  11
HETATM   11  C   UNL     1     -11.540  10.745  70.541  1.00  0.00    -0.330 A  
HETATM   12  C   UNL     1     -12.643  11.085  71.364  1.00  0.00    -0.498 A  
HETATM   13  C   UNL     1     -13.313  10.086  72.093  1.00  0.00    -0.469 A  
HETATM   14  C   UNL     1     -13.156  12.482  71.558  1.00  0.00    -0.373 C  
HETATM   15  C   UNL     1     -12.959   8.751  71.974  1.00  0.00    -0.437 A  
HETATM   16  C   UNL     1     -11.900   8.396  71.150  1.00  0.00    -0.314 A  
HETATM   17  C   UNL     1     -11.180   9.378  70.442  1.00  0.00    -0.309 A  
HETATM   18  C   UNL     1     -10.029   8.925  69.580  1.00  0.00    -0.193 C  
ENDBRANCH   9  11
ENDBRANCH   6   9
ENDBRANCH   5   6
BRANCH   5  19
HETATM   19  C   UNL     1      -9.185  13.272  68.275  1.00  0.00    -0.197 C  
HETATM   20  C   UNL     1      -7.936  12.588  67.718  1.00  0.00    -0.163 C  
ENDBRANCH   5  19
ENDBRANCH   4   5
BRANCH   4  21
HETATM   21  C   UNL     1     -11.430  14.470  65.879  1.00  0.00    -0.345 C  
HETATM   22  C   UNL     1     -10.346  15.457  65.446  1.00  0.00    -0.422 C  
ENDBRANCH   4  21
ENDBRANCH   3   4
ENDBRANCH   2   3
TORSDOF 8
ENDMDL
MODEL       33
REMARK 921   NORMALIZED FREE ENERGY PREDICTED BY IDOCK:   -4.79 KCAL/MOL
REMARK 922        TOTAL FREE ENERGY PREDICTED BY IDOCK:   -8.00 KCAL/MOL
REMARK 923 INTER-LIGAND FREE ENERGY PREDICTED BY IDOCK:   -7.30 KCAL/MOL
REMARK 924 INTRA-LIGAND FREE ENERGY PREDICTED BY IDOCK:   -0.69 KCAL/MOL
REMARK 927      BINDING AFFINITY PREDICTED BY RF-SCORE:    0.00 PKD
ROOT
HETATM    1  C   UNL     1     -10.444  14.274  64.825  1.00  0.00    -0.421 C  
HETATM    2  C   UNL     1     -10.360  12.760  64.699  1.00  0.00    -0.362 C  
ENDROOT
BRANCH   2   3
HETATM    3  C   UNL     1      -9.896  12.074  66.001  1.00  0.00    -0.237 C  
BRANCH   3   4
HETATM    4  N   UNL     1     -10.732  10.954  66.506  1.00  0.00    -0.238 NA 
BRANCH   4   5
HETATM    5  C   UNL     1     -10.916  11.024  68.008  1.00  0.00    -0.258 C  
BRANCH   5   6
HETATM    6  C   UNL     1     -11.534  12.372  68.396  1.00  0.00    -0.310 C  
HETATM    7  H   UNL     1     -12.783  13.668  67.704  1.00  0.00     0.000 HD 
HETATM    8  O   UNL     1     -12.400  12.832  67.464  1.00  0.00    -0.280 OA 
BRANCH   6   9
HETATM    9  N   UNL     1     -11.226  12.990  69.482  1.00  0.00    -0.457 NA 
HETATM   10  H   UNL     1     -10.240  13.087  69.725  1.00  0.00     0.000 HD 
BRANCH   9  11
HETATM   11  C   UNL     1     -12.196  13.542  70.356  1.00  0.00    -0.356 A  
HETATM   12  C   UNL     1     -12.909  12.797  71.328  1.00  0.00    -0.355 A  
HETATM   13  C   UNL     1     -13.775  13.452  72.222  1.00  0.00    -0.705 A  
HETATM   14  C   UNL     1     -12.842  11.304  71.468  1.00  0.00    -0.519 C  
HETATM   15  C   UNL     1     -13.900  14.832  72.220  1.00  0.00    -0.590 A  
HETATM   16  C   UNL     1     -13.186  15.581  71.294  1.00  0.00    -0.588 A  
HETATM   17  C   UNL     1     -12.346  14.952  70.356  1.00  0.00    -0.401 A  
HETATM   18  C   UNL     1     -11.615  15.824  69.366  1.00  0.00    -0.371 C  
ENDBRANCH   9  11
ENDBRANCH   6   9
ENDBRANCH   5   6
BRANCH   5  19
HETATM   19  C   UNL     1      -9.619  10.867  68.849  1.00  0.00    -0.192 C  
HETATM   20  C   UNL     1      -9.586   9.667  69.798  1.00  0.00    -0.242 C  
ENDBRANCH   5  19
ENDBRANCH   4   5
BRANCH   4  21
HETATM   21  C   UNL     1     -10.160   9.646  66.086  1.00  0.00    -0.258 C  
HETATM   22  C   UNL     1      -8.691   9.615  65.659  1.00  0.00    -0.163 C  
ENDBRANCH   4  21
ENDBRANCH   3   4
ENDBRANCH   2   3
TORSDOF 8
ENDMDL
MODEL       34
REMARK 921   NORMALIZED FREE ENERGY PREDICTED BY IDOCK:   -4.78 KCAL/MOL
REMARK 922        TOTAL FREE ENERGY PREDICTED BY IDOCK:   -7.99 KCAL/MOL
REMARK 923 INTER-LIGAND FREE ENERGY PREDICTED BY IDOCK:   -6.87 KCAL/MOL
REMARK 924 INTRA-LIGAND FREE ENERGY PREDICTED BY IDOCK:   -1.12 KCAL/MOL
REMARK 927      BINDING AFFINITY PREDICTED BY RF-SCORE:    0.00 PKD
ROOT
HETATM    1  C   UNL     1     -10.380  16.470  65.825  1.00  0.00    -0.359 C  
HETATM    2  C   UNL     1     -11.121  15.541  64.874  1.00  0.00    -0.428 C  
ENDROOT
BRANCH   2   3
HETATM    3  C   UNL     1     -10.474  14.143  64.776  1.00  0.00    -0.408 C  
BRANCH   3   4
HETATM    4  N   UNL     1     -11.293  12.991  65.234  1.00  0.00    -0.290 NA 
BRANCH   4   5
HETATM    5  C   UNL     1     -10.635  12.259  66.386  1.00  0.00    -0.242 C  
BRANCH   5   6
HETATM    6  C   UNL     1     -11.640  12.077  67.530  1.00  0.00    -0.330 C  
HETATM    7  H   UNL     1     -12.656  13.142  68.774  1.00  0.00     0.000 HD 
HETATM    8  O   UNL     1     -12.033  13.255  68.066  1.00  0.00    -0.350 OA 
BRANCH   6   9
HETATM    9  N   UNL     1     -12.030  10.918  67.933  1.00  0.00    -0.735 NA 
HETATM   10  H   UNL     1     -12.852  10.502  67.496  1.00  0.00     0.000 HD 
BRANCH   9  11
HETATM   11  C   UNL     1     -11.369  10.196  68.957  1.00  0.00    -0.133 A  
HETATM   12  C   UNL     1     -11.622  10.364  70.342  1.00  0.00    -0.423 A  
HETATM   13  C   UNL     1     -10.992   9.526  71.280  1.00  0.00    -0.440 A  
HETATM   14  C   UNL     1     -12.513  11.425  70.917  1.00  0.00    -0.478 C  
HETATM   15  C   UNL     1     -10.171   8.484  70.876  1.00  0.00    -0.246 A  
HETATM   16  C   UNL     1      -9.936   8.286  69.522  1.00  0.00    -0.187 A  
HETATM   17  C   UNL     1     -10.515   9.136  68.560  1.00  0.00    -0.238 A  
HETATM   18  C   UNL     1     -10.202   8.876  67.108  1.00  0.00    -0.339 C  
ENDBRANCH   9  11
ENDBRANCH   6   9
ENDBRANCH   5   6
BRANCH   5  19
HETATM   19  C   UNL     1      -9.385  12.953  66.995  1.00  0.00    -0.235 C  
HETATM   20  C   UNL     1      -8.180  12.045  67.245  1.00  0.00    -0.173 C  
ENDBRANCH   5  19
ENDBRANCH   4   5
BRANCH   4  21
HETATM   21  C   UNL     1     -11.582  12.074  64.099  1.00  0.00    -0.379 C  
HETATM   22  C   UNL     1     -10.395  11.453  63.362  1.00  0.00    -0.458 C  
ENDBRANCH   4  21
ENDBRANCH   3   4
ENDBRANCH   2   3
TORSDOF 8
ENDMDL
MODEL       35
REMARK 921   NORMALIZED FREE ENERGY PREDICTED BY IDOCK:   -4.78 KCAL/MOL
REMARK 922        TOTAL FREE ENERGY PREDICTED BY IDOCK:   -7.99 KCAL/MOL
REMARK 923 INTER-LIGAND FREE ENERGY PREDICTED BY IDOCK:   -7.09 KCAL/MOL
REMARK 924 INTRA-LIGAND FREE ENERGY PREDICTED BY IDOCK:   -0.90 KCAL/MOL
REMARK 927      BINDING AFFINITY PREDICTED BY RF-SCORE:    0.00 PKD
ROOT
HETATM    1  C   UNL     1      -9.672  16.303  65.818  1.00  0.00    -0.299 C  
HETATM    2  C   UNL     1     -10.672  15.345  65.186  1.00  0.00    -0.460 C  
ENDROOT
BRANCH   2   3
HETATM    3  C   UNL     1     -11.381  14.448  66.222  1.00  0.00    -0.350 C  
BRANCH   3   4
HETATM    4  N   UNL     1     -11.063  12.997  66.185  1.00  0.00    -0.283 NA 
BRANCH   4   5
HETATM    5  C   UNL     1     -10.205  12.580  67.362  1.00  0.00    -0.213 C  
BRANCH   5   6
HETATM    6  C   UNL     1     -10.983  11.607  68.255  1.00  0.00    -0.226 C  
HETATM    7  H   UNL     1     -12.638  10.619  68.256  1.00  0.00     0.000 HD 
HETATM    8  O   UNL     1     -12.157  11.223  67.703  1.00  0.00    -0.600 OA 
BRANCH   6   9
HETATM    9  N   UNL     1     -10.555  11.231  69.410  1.00  0.00    -0.413 NA 
HETATM   10  H   UNL     1      -9.568  11.361  69.629  1.00  0.00     0.000 HD 
BRANCH   9  11
HETATM   11  C   UNL     1     -11.395  10.646  70.389  1.00  0.00    -0.304 A  
HETATM   12  C   UNL     1     -12.419  11.342  71.080  1.00  0.00    -0.503 A  
HETATM   13  C   UNL     1     -13.272  10.650  71.959  1.00  0.00    -0.473 A  
HETATM   14  C   UNL     1     -12.658  12.819  70.975  1.00  0.00    -0.362 C  
HETATM   15  C   UNL     1     -13.177   9.276  72.118  1.00  0.00    -0.535 A  
HETATM   16  C   UNL     1     -12.199   8.573  71.427  1.00  0.00    -0.343 A  
HETATM   17  C   UNL     1     -11.301   9.243  70.575  1.00  0.00    -0.306 A  
HETATM   18  C   UNL     1     -10.251   8.422  69.870  1.00  0.00    -0.201 C  
ENDBRANCH   9  11
ENDBRANCH   6   9
ENDBRANCH   5   6
BRANCH   5  19
HETATM   19  C   UNL     1      -9.719  13.737  68.279  1.00  0.00    -0.231 C  
HETATM   20  C   UNL     1      -8.204  13.949  68.330  1.00  0.00    -0.153 C  
ENDBRANCH   5  19
ENDBRANCH   4   5
BRANCH   4  21
HETATM   21  C   UNL     1     -10.425  12.637  64.889  1.00  0.00    -0.309 C  
HETATM   22  C   UNL     1     -11.303  11.992  63.816  1.00  0.00    -0.526 C  
ENDBRANCH   4  21
ENDBRANCH   3   4
ENDBRANCH   2   3
TORSDOF 8
ENDMDL
MODEL       36
REMARK 921   NORMALIZED FREE ENERGY PREDICTED BY IDOCK:   -4.77 KCAL/MOL
REMARK 922        TOTAL FREE ENERGY PREDICTED BY IDOCK:   -7.98 KCAL/MOL
REMARK 923 INTER-LIGAND FREE ENERGY PREDICTED BY IDOCK:   -6.96 KCAL/MOL
REMARK 924 INTRA-LIGAND FREE ENERGY PREDICTED BY IDOCK:   -1.02 KCAL/MOL
REMARK 927      BINDING AFFINITY PREDICTED BY RF-SCORE:    0.00 PKD
ROOT
HETATM    1  C   UNL     1     -10.791  19.481  67.453  1.00  0.00    -0.536 C  
HETATM    2  C   UNL     1     -10.145  18.810  68.657  1.00  0.00    -0.432 C  
ENDROOT
BRANCH   2   3
HETATM    3  C   UNL     1      -9.380  17.522  68.287  1.00  0.00    -0.281 C  
BRANCH   3   4
HETATM    4  N   UNL     1      -9.932  16.708  67.174  1.00  0.00    -0.262 NA 
BRANCH   4   5
HETATM    5  C   UNL     1     -10.158  15.269  67.590  1.00  0.00    -0.235 C  
BRANCH   5   6
HETATM    6  C   UNL     1     -11.633  15.054  67.947  1.00  0.00    -0.333 C  
HETATM    7  H   UNL     1     -12.926  15.630  69.256  1.00  0.00     0.000 HD 
HETATM    8  O   UNL     1     -12.011  15.763  69.036  1.00  0.00    -0.385 OA 
BRANCH   6   9
HETATM    9  N   UNL     1     -12.400  14.262  67.282  1.00  0.00    -0.592 NA 
HETATM   10  H   UNL     1     -13.402  14.283  67.469  1.00  0.00     0.000 HD 
BRANCH   9  11
HETATM   11  C   UNL     1     -11.913  13.361  66.302  1.00  0.00    -0.411 A  
HETATM   12  C   UNL     1     -11.787  13.674  64.925  1.00  0.00    -0.398 A  
HETATM   13  C   UNL     1     -11.194  12.751  64.045  1.00  0.00    -0.463 A  
HETATM   14  C   UNL     1     -12.282  14.943  64.296  1.00  0.00    -0.365 C  
HETATM   15  C   UNL     1     -10.664  11.556  64.507  1.00  0.00    -0.390 A  
HETATM   16  C   UNL     1     -10.753  11.246  65.858  1.00  0.00    -0.291 A  
HETATM   17  C   UNL     1     -11.381  12.129  66.757  1.00  0.00    -0.398 A  
HETATM   18  C   UNL     1     -11.459  11.721  68.207  1.00  0.00    -0.370 C  
ENDBRANCH   9  11
ENDBRANCH   6   9
ENDBRANCH   5   6
BRANCH   5  19
HETATM   19  C   UNL     1      -9.327  14.787  68.812  1.00  0.00    -0.198 C  
HETATM   20  C   UNL     1      -8.306  13.685  68.525  1.00  0.00    -0.110 C  
ENDBRANCH   5  19
ENDBRANCH   4   5
BRANCH   4  21
HETATM   21  C   UNL     1      -9.053  16.799  65.977  1.00  0.00    -0.190 C  
HETATM   22  C   UNL     1      -7.604  17.241  66.188  1.00  0.00    -0.318 C  
ENDBRANCH   4  21
ENDBRANCH   3   4
ENDBRANCH   2   3
TORSDOF 8
ENDMDL
MODEL       37
REMARK 921   NORMALIZED FREE ENERGY PREDICTED BY IDOCK:   -4.77 KCAL/MOL
REMARK 922        TOTAL FREE ENERGY PREDICTED BY IDOCK:   -7.97 KCAL/MOL
REMARK 923 INTER-LIGAND FREE ENERGY PREDICTED BY IDOCK:   -7.00 KCAL/MOL
REMARK 924 INTRA-LIGAND FREE ENERGY PREDICTED BY IDOCK:   -0.97 KCAL/MOL
REMARK 927      BINDING AFFINITY PREDICTED BY RF-SCORE:    0.00 PKD
ROOT
HETATM    1  C   UNL     1     -12.599  11.879  63.821  1.00  0.00    -0.509 C  
HETATM    2  C   UNL     1     -11.570  12.898  63.351  1.00  0.00    -0.463 C  
ENDROOT
BRANCH   2   3
HETATM    3  C   UNL     1     -10.375  13.034  64.317  1.00  0.00    -0.362 C  
BRANCH   3   4
HETATM    4  N   UNL     1     -10.395  12.184  65.535  1.00  0.00    -0.255 NA 
BRANCH   4   5
HETATM    5  C   UNL     1     -10.350  13.015  66.801  1.00  0.00    -0.254 C  
BRANCH   5   6
HETATM    6  C   UNL     1     -11.183  12.341  67.897  1.00  0.00    -0.274 C  
HETATM    7  H   UNL     1     -12.913  11.523  68.133  1.00  0.00     0.000 HD 
HETATM    8  O   UNL     1     -12.397  11.941  67.453  1.00  0.00    -0.297 OA 
BRANCH   6   9
HETATM    9  N   UNL     1     -10.761  12.206  69.106  1.00  0.00    -0.417 NA 
HETATM   10  H   UNL     1      -9.835  12.564  69.341  1.00  0.00     0.000 HD 
BRANCH   9  11
HETATM   11  C   UNL     1     -11.525  11.583  70.124  1.00  0.00    -0.170 A  
HETATM   12  C   UNL     1     -12.460  12.260  70.945  1.00  0.00    -0.371 A  
HETATM   13  C   UNL     1     -13.249  11.537  71.858  1.00  0.00    -0.479 A  
HETATM   14  C   UNL     1     -12.665  13.747  70.948  1.00  0.00    -0.394 C  
HETATM   15  C   UNL     1     -13.181  10.155  71.929  1.00  0.00    -0.557 A  
HETATM   16  C   UNL     1     -12.291   9.472  71.110  1.00  0.00    -0.410 A  
HETATM   17  C   UNL     1     -11.455  10.170  70.219  1.00  0.00    -0.381 A  
HETATM   18  C   UNL     1     -10.498   9.368  69.373  1.00  0.00    -0.231 C  
ENDBRANCH   9  11
ENDBRANCH   6   9
ENDBRANCH   5   6
BRANCH   5  19
HETATM   19  C   UNL     1     -10.881  14.470  66.666  1.00  0.00    -0.311 C  
HETATM   20  C   UNL     1     -10.726  15.349  67.908  1.00  0.00    -0.286 C  
ENDBRANCH   5  19
ENDBRANCH   4   5
BRANCH   4  21
HETATM   21  C   UNL     1      -9.287  11.191  65.495  1.00  0.00    -0.223 C  
HETATM   22  C   UNL     1      -9.646   9.733  65.202  1.00  0.00    -0.356 C  
ENDBRANCH   4  21
ENDBRANCH   3   4
ENDBRANCH   2   3
TORSDOF 8
ENDMDL
MODEL       38
REMARK 921   NORMALIZED FREE ENERGY PREDICTED BY IDOCK:   -4.77 KCAL/MOL
REMARK 922        TOTAL FREE ENERGY PREDICTED BY IDOCK:   -7.97 KCAL/MOL
REMARK 923 INTER-LIGAND FREE ENERGY PREDICTED BY IDOCK:   -7.04 KCAL/MOL
REMARK 924 INTRA-LIGAND FREE ENERGY PREDICTED BY IDOCK:   -0.93 KCAL/MOL
REMARK 927      BINDING AFFINITY PREDICTED BY RF-SCORE:    0.00 PKD
ROOT
HETATM    1  C   UNL     1     -10.626  17.594  67.889  1.00  0.00    -0.390 C  
HETATM    2  C   UNL     1     -11.111  16.204  68.276  1.00  0.00    -0.348 C  
ENDROOT
BRANCH   2   3
HETATM    3  C   UNL     1     -10.921  15.167  67.150  1.00  0.00    -0.326 C  
BRANCH   3   4
HETATM    4  N   UNL     1     -11.876  14.028  67.117  1.00  0.00    -0.391 NA 
BRANCH   4   5
HETATM    5  C   UNL     1     -11.199  12.719  67.467  1.00  0.00    -0.289 C  
BRANCH   5   6
HETATM    6  C   UNL     1     -11.802  12.148  68.755  1.00  0.00    -0.303 C  
HETATM    7  H   UNL     1     -12.221  12.706  70.553  1.00  0.00     0.000 HD 
HETATM    8  O   UNL     1     -11.847  13.060  69.754  1.00  0.00    -0.308 OA 
BRANCH   6   9
HETATM    9  N   UNL     1     -12.192  10.926  68.857  1.00  0.00    -0.764 NA 
HETATM   10  H   UNL     1     -12.943  10.601  68.248  1.00  0.00     0.000 HD 
BRANCH   9  11
HETATM   11  C   UNL     1     -11.625  10.010  69.778  1.00  0.00    -0.134 A  
HETATM   12  C   UNL     1     -12.053   9.861  71.121  1.00  0.00    -0.466 A  
HETATM   13  C   UNL     1     -11.501   8.851  71.929  1.00  0.00    -0.442 A  
HETATM   14  C   UNL     1     -13.062  10.747  71.791  1.00  0.00    -0.573 C  
HETATM   15  C   UNL     1     -10.584   7.945  71.420  1.00  0.00    -0.246 A  
HETATM   16  C   UNL     1     -10.175   8.057  70.098  1.00  0.00    -0.203 A  
HETATM   17  C   UNL     1     -10.675   9.085  69.276  1.00  0.00    -0.189 A  
HETATM   18  C   UNL     1     -10.173   9.160  67.856  1.00  0.00    -0.266 C  
ENDBRANCH   9  11
ENDBRANCH   6   9
ENDBRANCH   5   6
BRANCH   5  19
HETATM   19  C   UNL     1      -9.663  12.797  67.688  1.00  0.00    -0.205 C  
HETATM   20  C   UNL     1      -8.802  12.198  66.573  1.00  0.00    -0.151 C  
ENDBRANCH   5  19
ENDBRANCH   4   5
BRANCH   4  21
HETATM   21  C   UNL     1     -12.554  13.956  65.794  1.00  0.00    -0.494 C  
HETATM   22  C   UNL     1     -12.304  12.719  64.931  1.00  0.00    -0.551 C  
ENDBRANCH   4  21
ENDBRANCH   3   4
ENDBRANCH   2   3
TORSDOF 8
ENDMDL
MODEL       39
REMARK 921   NORMALIZED FREE ENERGY PREDICTED BY IDOCK:   -4.76 KCAL/MOL
REMARK 922        TOTAL FREE ENERGY PREDICTED BY IDOCK:   -7.96 KCAL/MOL
REMARK 923 INTER-LIGAND FREE ENERGY PREDICTED BY IDOCK:   -7.03 KCAL/MOL
REMARK 924 INTRA-LIGAND FREE ENERGY PREDICTED BY IDOCK:   -0.93 KCAL/MOL
REMARK 927      BINDING AFFINITY PREDICTED BY RF-SCORE:    0.00 PKD
ROOT
HETATM    1  C   UNL     1     -10.931  16.972  65.064  1.00  0.00     0.010 C  
HETATM    2  C   UNL     1     -10.610  15.931  66.126  1.00  0.00    -0.310 C  
ENDROOT
BRANCH   2   3
HETATM    3  C   UNL     1      -9.882  14.695  65.556  1.00  0.00    -0.292 C  
BRANCH   3   4
HETATM    4  N   UNL     1     -10.599  13.396  65.635  1.00  0.00    -0.277 NA 
BRANCH   4   5
HETATM    5  C   UNL     1     -10.055  12.522  66.746  1.00  0.00    -0.223 C  
BRANCH   5   6
HETATM    6  C   UNL     1     -11.094  12.395  67.866  1.00  0.00    -0.239 C  
HETATM    7  H   UNL     1     -12.928  11.852  68.112  1.00  0.00     0.000 HD 
HETATM    8  O   UNL     1     -12.284  11.931  67.418  1.00  0.00    -0.502 OA 
BRANCH   6   9
HETATM    9  N   UNL     1     -10.845  12.724  69.085  1.00  0.00    -0.427 NA 
HETATM   10  H   UNL     1      -9.879  12.910  69.352  1.00  0.00     0.000 HD 
BRANCH   9  11
HETATM   11  C   UNL     1     -11.854  12.839  70.074  1.00  0.00    -0.281 A  
HETATM   12  C   UNL     1     -12.311  11.763  70.876  1.00  0.00    -0.420 A  
HETATM   13  C   UNL     1     -13.241  11.997  71.904  1.00  0.00    -0.469 A  
HETATM   14  C   UNL     1     -11.896  10.334  70.690  1.00  0.00    -0.439 C  
HETATM   15  C   UNL     1     -13.678  13.279  72.201  1.00  0.00    -0.619 A  
HETATM   16  C   UNL     1     -13.218  14.349  71.445  1.00  0.00    -0.418 A  
HETATM   17  C   UNL     1     -12.321  14.143  70.379  1.00  0.00    -0.428 A  
HETATM   18  C   UNL     1     -11.877  15.347  69.587  1.00  0.00    -0.368 C  
ENDBRANCH   9  11
ENDBRANCH   6   9
ENDBRANCH   5   6
BRANCH   5  19
HETATM   19  C   UNL     1      -8.741  13.022  67.409  1.00  0.00    -0.205 C  
HETATM   20  C   UNL     1      -7.494  12.183  67.122  1.00  0.00    -0.129 C  
ENDBRANCH   5  19
ENDBRANCH   4   5
BRANCH   4  21
HETATM   21  C   UNL     1     -10.559  12.699  64.321  1.00  0.00    -0.384 C  
HETATM   22  C   UNL     1     -11.891  12.365  63.650  1.00  0.00    -0.610 C  
ENDBRANCH   4  21
ENDBRANCH   3   4
ENDBRANCH   2   3
TORSDOF 8
ENDMDL
MODEL       40
REMARK 921   NORMALIZED FREE ENERGY PREDICTED BY IDOCK:   -4.76 KCAL/MOL
REMARK 922        TOTAL FREE ENERGY PREDICTED BY IDOCK:   -7.96 KCAL/MOL
REMARK 923 INTER-LIGAND FREE ENERGY PREDICTED BY IDOCK:   -6.76 KCAL/MOL
REMARK 924 INTRA-LIGAND FREE ENERGY PREDICTED BY IDOCK:   -1.20 KCAL/MOL
REMARK 927      BINDING AFFINITY PREDICTED BY RF-SCORE:    0.00 PKD
ROOT
HETATM    1  C   UNL     1      -9.999  20.254  66.661  1.00  0.00    -0.561 C  
HETATM    2  C   UNL     1     -10.467  19.737  68.013  1.00  0.00    -0.523 C  
ENDROOT
BRANCH   2   3
HETATM    3  C   UNL     1      -9.460  18.767  68.666  1.00  0.00    -0.368 C  
BRANCH   3   4
HETATM    4  N   UNL     1      -9.598  17.326  68.328  1.00  0.00    -0.277 NA 
BRANCH   4   5
HETATM    5  C   UNL     1      -8.711  16.935  67.164  1.00  0.00    -0.201 C  
BRANCH   5   6
HETATM    6  C   UNL     1      -8.567  15.410  67.107  1.00  0.00    -0.210 C  
HETATM    7  H   UNL     1      -8.042  13.942  68.241  1.00  0.00     0.000 HD 
HETATM    8  O   UNL     1      -8.131  14.887  68.276  1.00  0.00    -0.123 OA 
BRANCH   6   9
HETATM    9  N   UNL     1      -8.817  14.728  66.044  1.00  0.00    -0.413 NA 
HETATM   10  H   UNL     1      -8.067  14.591  65.367  1.00  0.00     0.000 HD 
BRANCH   9  11
HETATM   11  C   UNL     1     -10.086  14.160  65.773  1.00  0.00    -0.333 A  
HETATM   12  C   UNL     1     -11.111  14.812  65.042  1.00  0.00    -0.412 A  
HETATM   13  C   UNL     1     -12.300  14.126  64.732  1.00  0.00    -0.436 A  
HETATM   14  C   UNL     1     -11.047  16.238  64.581  1.00  0.00    -0.259 C  
HETATM   15  C   UNL     1     -12.470  12.793  65.071  1.00  0.00    -0.572 A  
HETATM   16  C   UNL     1     -11.464  12.130  65.762  1.00  0.00    -0.414 A  
HETATM   17  C   UNL     1     -10.281  12.801  66.126  1.00  0.00    -0.286 A  
HETATM   18  C   UNL     1      -9.238  12.027  66.892  1.00  0.00    -0.197 C  
ENDBRANCH   9  11
ENDBRANCH   6   9
ENDBRANCH   5   6
BRANCH   5  19
HETATM   19  C   UNL     1      -7.271  17.520  67.193  1.00  0.00    -0.201 C  
HETATM   20  C   UNL     1      -6.781  18.139  65.883  1.00  0.00    -0.327 C  
ENDBRANCH   5  19
ENDBRANCH   4   5
BRANCH   4  21
HETATM   21  C   UNL     1     -11.024  16.988  68.066  1.00  0.00    -0.252 C  
HETATM   22  C   UNL     1     -11.646  15.848  68.874  1.00  0.00    -0.392 C  
ENDBRANCH   4  21
ENDBRANCH   3   4
ENDBRANCH   2   3
TORSDOF 8
ENDMDL
MODEL       41
REMARK 921   NORMALIZED FREE ENERGY PREDICTED BY IDOCK:   -4.76 KCAL/MOL
REMARK 922        TOTAL FREE ENERGY PREDICTED BY IDOCK:   -7.95 KCAL/MOL
REMARK 923 INTER-LIGAND FREE ENERGY PREDICTED BY IDOCK:   -6.90 KCAL/MOL
REMARK 924 INTRA-LIGAND FREE ENERGY PREDICTED BY IDOCK:   -1.05 KCAL/MOL
REMARK 927      BINDING AFFINITY PREDICTED BY RF-SCORE:    0.00 PKD
ROOT
HETATM    1  C   UNL     1     -10.993  16.286  70.117  1.00  0.00    -0.335 C  
HETATM    2  C   UNL     1     -11.706  15.735  68.891  1.00  0.00    -0.404 C  
ENDROOT
BRANCH   2   3
HETATM    3  C   UNL     1     -10.736  15.348  67.755  1.00  0.00    -0.289 C  
BRANCH   3   4
HETATM    4  N   UNL     1     -11.071  14.131  66.971  1.00  0.00    -0.300 NA 
BRANCH   4   5
HETATM    5  C   UNL     1     -10.211  12.950  67.374  1.00  0.00    -0.230 C  
BRANCH   5   6
HETATM    6  C   UNL     1     -11.034  11.969  68.216  1.00  0.00    -0.234 C  
HETATM    7  H   UNL     1     -12.615  10.875  68.067  1.00  0.00     0.000 HD 
HETATM    8  O   UNL     1     -12.105  11.483  67.546  1.00  0.00    -0.614 OA 
BRANCH   6   9
HETATM    9  N   UNL     1     -10.733  11.674  69.432  1.00  0.00    -0.436 NA 
HETATM   10  H   UNL     1      -9.882  12.069  69.832  1.00  0.00     0.000 HD 
BRANCH   9  11
HETATM   11  C   UNL     1     -11.531  10.827  70.240  1.00  0.00    -0.319 A  
HETATM   12  C   UNL     1     -11.359   9.424  70.337  1.00  0.00    -0.295 A  
HETATM   13  C   UNL     1     -12.131   8.680  71.247  1.00  0.00    -0.333 A  
HETATM   14  C   UNL     1     -10.408   8.627  69.492  1.00  0.00    -0.214 C  
HETATM   15  C   UNL     1     -13.021   9.302  72.110  1.00  0.00    -0.503 A  
HETATM   16  C   UNL     1     -13.181  10.680  72.050  1.00  0.00    -0.473 A  
HETATM   17  C   UNL     1     -12.456  11.447  71.118  1.00  0.00    -0.465 A  
HETATM   18  C   UNL     1     -12.693  12.936  71.094  1.00  0.00    -0.366 C  
ENDBRANCH   9  11
ENDBRANCH   6   9
ENDBRANCH   5   6
BRANCH   5  19
HETATM   19  C   UNL     1      -8.943  13.298  68.204  1.00  0.00    -0.195 C  
HETATM   20  C   UNL     1      -7.647  12.629  67.743  1.00  0.00    -0.141 C  
ENDBRANCH   5  19
ENDBRANCH   4   5
BRANCH   4  21
HETATM   21  C   UNL     1     -10.970  14.407  65.512  1.00  0.00    -0.329 C  
HETATM   22  C   UNL     1     -10.741  15.854  65.075  1.00  0.00    -0.426 C  
ENDBRANCH   4  21
ENDBRANCH   3   4
ENDBRANCH   2   3
TORSDOF 8
ENDMDL
MODEL       42
REMARK 921   NORMALIZED FREE ENERGY PREDICTED BY IDOCK:   -4.73 KCAL/MOL
REMARK 922        TOTAL FREE ENERGY PREDICTED BY IDOCK:   -7.91 KCAL/MOL
REMARK 923 INTER-LIGAND FREE ENERGY PREDICTED BY IDOCK:   -7.13 KCAL/MOL
REMARK 924 INTRA-LIGAND FREE ENERGY PREDICTED BY IDOCK:   -0.78 KCAL/MOL
REMARK 927      BINDING AFFINITY PREDICTED BY RF-SCORE:    0.00 PKD
ROOT
HETATM    1  C   UNL     1      -9.933  19.932  68.041  1.00  0.00    -0.556 C  
HETATM    2  C   UNL     1      -9.938  18.503  68.564  1.00  0.00    -0.419 C  
ENDROOT
BRANCH   2   3
HETATM    3  C   UNL     1     -10.777  17.547  67.689  1.00  0.00    -0.306 C  
BRANCH   3   4
HETATM    4  N   UNL     1     -10.086  16.345  67.154  1.00  0.00    -0.265 NA 
BRANCH   4   5
HETATM    5  C   UNL     1     -10.810  15.068  67.529  1.00  0.00    -0.297 C  
BRANCH   5   6
HETATM    6  C   UNL     1     -11.480  14.465  66.289  1.00  0.00    -0.359 C  
HETATM    7  H   UNL     1     -11.782  14.886  64.432  1.00  0.00     0.000 HD 
HETATM    8  O   UNL     1     -11.367  15.260  65.201  1.00  0.00    -0.357 OA 
BRANCH   6   9
HETATM    9  N   UNL     1     -12.096  13.335  66.314  1.00  0.00    -0.419 NA 
HETATM   10  H   UNL     1     -13.101  13.332  66.484  1.00  0.00     0.000 HD 
BRANCH   9  11
HETATM   11  C   UNL     1     -11.440  12.095  66.114  1.00  0.00    -0.371 A  
HETATM   12  C   UNL     1     -10.872  11.683  64.882  1.00  0.00    -0.359 A  
HETATM   13  C   UNL     1     -10.148  10.479  64.808  1.00  0.00    -0.406 A  
HETATM   14  C   UNL     1     -11.012  12.435  63.592  1.00  0.00    -0.525 C  
HETATM   15  C   UNL     1      -9.917   9.709  65.937  1.00  0.00    -0.351 A  
HETATM   16  C   UNL     1     -10.441  10.112  67.158  1.00  0.00    -0.305 A  
HETATM   17  C   UNL     1     -11.209  11.288  67.257  1.00  0.00    -0.364 A  
HETATM   18  C   UNL     1     -11.764  11.657  68.610  1.00  0.00    -0.386 C  
ENDBRANCH   9  11
ENDBRANCH   6   9
ENDBRANCH   5   6
BRANCH   5  19
HETATM   19  C   UNL     1     -11.919  15.219  68.608  1.00  0.00    -0.263 C  
HETATM   20  C   UNL     1     -11.482  14.952  70.049  1.00  0.00    -0.317 C  
ENDBRANCH   5  19
ENDBRANCH   4   5
BRANCH   4  21
HETATM   21  C   UNL     1      -8.667  16.319  67.599  1.00  0.00    -0.182 C  
HETATM   22  C   UNL     1      -7.586  16.601  66.554  1.00  0.00    -0.327 C  
ENDBRANCH   4  21
ENDBRANCH   3   4
ENDBRANCH   2   3
TORSDOF 8
ENDMDL
MODEL       43
REMARK 921   NORMALIZED FREE ENERGY PREDICTED BY IDOCK:   -4.71 KCAL/MOL
REMARK 922        TOTAL FREE ENERGY PREDICTED BY IDOCK:   -7.88 KCAL/MOL
REMARK 923 INTER-LIGAND FREE ENERGY PREDICTED BY IDOCK:   -6.81 KCAL/MOL
REMARK 924 INTRA-LIGAND FREE ENERGY PREDICTED BY IDOCK:   -1.08 KCAL/MOL
REMARK 927      BINDING AFFINITY PREDICTED BY RF-SCORE:    0.00 PKD
ROOT
HETATM    1  C   UNL     1     -12.042  14.891  64.275  1.00  0.00    -0.373 C  
HETATM    2  C   UNL     1     -12.137  13.379  64.415  1.00  0.00    -0.468 C  
ENDROOT
BRANCH   2   3
HETATM    3  C   UNL     1     -12.623  12.934  65.810  1.00  0.00    -0.106 C  
BRANCH   3   4
HETATM    4  N   UNL     1     -11.682  12.117  66.620  1.00  0.00    -0.562 NA 
BRANCH   4   5
HETATM    5  C   UNL     1     -11.278  12.829  67.896  1.00  0.00    -0.274 C  
BRANCH   5   6
HETATM    6  C   UNL     1     -11.741  12.020  69.113  1.00  0.00    -0.330 C  
HETATM    7  H   UNL     1     -12.415  12.307  70.896  1.00  0.00     0.000 HD 
HETATM    8  O   UNL     1     -12.128  12.808  70.142  1.00  0.00    -0.342 OA 
BRANCH   6   9
HETATM    9  N   UNL     1     -11.729  10.733  69.137  1.00  0.00    -0.394 NA 
HETATM   10  H   UNL     1     -12.041  10.228  68.308  1.00  0.00     0.000 HD 
BRANCH   9  11
HETATM   11  C   UNL     1     -11.301   9.987  70.263  1.00  0.00    -0.308 A  
HETATM   12  C   UNL     1     -12.171   9.473  71.257  1.00  0.00    -0.433 A  
HETATM   13  C   UNL     1     -11.665   8.654  72.282  1.00  0.00    -0.428 A  
HETATM   14  C   UNL     1     -13.641   9.770  71.330  1.00  0.00    -0.322 C  
HETATM   15  C   UNL     1     -10.332   8.277  72.308  1.00  0.00    -0.386 A  
HETATM   16  C   UNL     1      -9.470   8.746  71.325  1.00  0.00    -0.320 A  
HETATM   17  C   UNL     1      -9.936   9.605  70.312  1.00  0.00    -0.326 A  
HETATM   18  C   UNL     1      -8.942  10.093  69.288  1.00  0.00    -0.193 C  
ENDBRANCH   9  11
ENDBRANCH   6   9
ENDBRANCH   5   6
BRANCH   5  19
HETATM   19  C   UNL     1     -11.846  14.265  68.071  1.00  0.00    -0.379 C  
HETATM   20  C   UNL     1     -10.837  15.401  67.895  1.00  0.00    -0.300 C  
ENDBRANCH   5  19
ENDBRANCH   4   5
BRANCH   4  21
HETATM   21  C   UNL     1     -10.495  11.733  65.810  1.00  0.00    -0.260 C  
HETATM   22  C   UNL     1     -10.198  10.242  65.642  1.00  0.00    -0.301 C  
ENDBRANCH   4  21
ENDBRANCH   3   4
ENDBRANCH   2   3
TORSDOF 8
ENDMDL
MODEL       44
REMARK 921   NORMALIZED FREE ENERGY PREDICTED BY IDOCK:   -4.71 KCAL/MOL
REMARK 922        TOTAL FREE ENERGY PREDICTED BY IDOCK:   -7.88 KCAL/MOL
REMARK 923 INTER-LIGAND FREE ENERGY PREDICTED BY IDOCK:   -7.01 KCAL/MOL
REMARK 924 INTRA-LIGAND FREE ENERGY PREDICTED BY IDOCK:   -0.87 KCAL/MOL
REMARK 927      BINDING AFFINITY PREDICTED BY RF-SCORE:    0.00 PKD
ROOT
HETATM    1  C   UNL     1     -11.864  11.163  68.837  1.00  0.00    -0.406 C  
HETATM    2  C   UNL     1     -11.605  12.617  68.470  1.00  0.00    -0.363 C  
ENDROOT
BRANCH   2   3
HETATM    3  C   UNL     1     -11.616  12.863  66.946  1.00  0.00    -0.368 C  
BRANCH   3   4
HETATM    4  N   UNL     1     -10.301  13.086  66.292  1.00  0.00    -0.279 NA 
BRANCH   4   5
HETATM    5  C   UNL     1     -10.413  14.036  65.117  1.00  0.00    -0.397 C  
BRANCH   5   6
HETATM    6  C   UNL     1     -10.058  15.459  65.561  1.00  0.00    -0.373 C  
HETATM    7  H   UNL     1     -10.412  17.286  65.055  1.00  0.00     0.000 HD 
HETATM    8  O   UNL     1     -10.632  16.404  64.780  1.00  0.00    -0.676 OA 
BRANCH   6   9
HETATM    9  N   UNL     1      -9.277  15.702  66.555  1.00  0.00    -0.267 NA 
HETATM   10  H   UNL     1      -8.675  14.953  66.895  1.00  0.00     0.000 HD 
BRANCH   9  11
HETATM   11  C   UNL     1      -9.217  16.964  67.197  1.00  0.00    -0.229 A  
HETATM   12  C   UNL     1      -8.296  17.987  66.859  1.00  0.00    -0.263 A  
HETATM   13  C   UNL     1      -8.382  19.246  67.481  1.00  0.00    -0.322 A  
HETATM   14  C   UNL     1      -7.172  17.825  65.879  1.00  0.00    -0.260 C  
HETATM   15  C   UNL     1      -9.398  19.535  68.380  1.00  0.00    -0.431 A  
HETATM   16  C   UNL     1     -10.326  18.554  68.701  1.00  0.00    -0.271 A  
HETATM   17  C   UNL     1     -10.240  17.270  68.129  1.00  0.00    -0.343 A  
HETATM   18  C   UNL     1     -11.270  16.246  68.537  1.00  0.00    -0.359 C  
ENDBRANCH   9  11
ENDBRANCH   6   9
ENDBRANCH   5   6
BRANCH   5  19
HETATM   19  C   UNL     1     -11.814  14.112  64.449  1.00  0.00    -0.447 C  
HETATM   20  C   UNL     1     -12.074  13.094  63.336  1.00  0.00    -0.558 C  
ENDBRANCH   5  19
ENDBRANCH   4   5
BRANCH   4  21
HETATM   21  C   UNL     1      -9.693  11.789  65.890  1.00  0.00    -0.237 C  
HETATM   22  C   UNL     1      -8.372  11.386  66.549  1.00  0.00    -0.164 C  
ENDBRANCH   4  21
ENDBRANCH   3   4
ENDBRANCH   2   3
TORSDOF 8
ENDMDL
MODEL       45
REMARK 921   NORMALIZED FREE ENERGY PREDICTED BY IDOCK:   -4.71 KCAL/MOL
REMARK 922        TOTAL FREE ENERGY PREDICTED BY IDOCK:   -7.88 KCAL/MOL
REMARK 923 INTER-LIGAND FREE ENERGY PREDICTED BY IDOCK:   -6.83 KCAL/MOL
REMARK 924 INTRA-LIGAND FREE ENERGY PREDICTED BY IDOCK:   -1.05 KCAL/MOL
REMARK 927      BINDING AFFINITY PREDICTED BY RF-SCORE:    0.00 PKD
ROOT
HETATM    1  C   UNL     1     -10.304  19.133  68.091  1.00  0.00    -0.465 C  
HETATM    2  C   UNL     1      -9.601  17.816  67.793  1.00  0.00    -0.272 C  
ENDROOT
BRANCH   2   3
HETATM    3  C   UNL     1     -10.480  16.584  68.095  1.00  0.00    -0.313 C  
BRANCH   3   4
HETATM    4  N   UNL     1     -10.911  15.765  66.933  1.00  0.00    -0.301 NA 
BRANCH   4   5
HETATM    5  C   UNL     1     -10.454  14.326  67.061  1.00  0.00    -0.271 C  
BRANCH   5   6
HETATM    6  C   UNL     1     -11.666  13.411  67.274  1.00  0.00    -0.380 C  
HETATM    7  H   UNL     1     -12.998  13.026  68.613  1.00  0.00     0.000 HD 
HETATM    8  O   UNL     1     -12.247  13.593  68.482  1.00  0.00    -0.342 OA 
BRANCH   6   9
HETATM    9  N   UNL     1     -12.052  12.554  66.394  1.00  0.00    -0.597 NA 
HETATM   10  H   UNL     1     -13.052  12.426  66.245  1.00  0.00     0.000 HD 
BRANCH   9  11
HETATM   11  C   UNL     1     -11.148  11.782  65.622  1.00  0.00    -0.285 A  
HETATM   12  C   UNL     1     -10.346  10.736  66.144  1.00  0.00    -0.300 A  
HETATM   13  C   UNL     1      -9.558   9.955  65.280  1.00  0.00    -0.361 A  
HETATM   14  C   UNL     1     -10.237  10.400  67.602  1.00  0.00    -0.240 C  
HETATM   15  C   UNL     1      -9.596  10.142  63.907  1.00  0.00    -0.302 A  
HETATM   16  C   UNL     1     -10.399  11.143  63.375  1.00  0.00    -0.419 A  
HETATM   17  C   UNL     1     -11.165  11.971  64.217  1.00  0.00    -0.421 A  
HETATM   18  C   UNL     1     -11.999  13.051  63.575  1.00  0.00    -0.615 C  
ENDBRANCH   9  11
ENDBRANCH   6   9
ENDBRANCH   5   6
BRANCH   5  19
HETATM   19  C   UNL     1      -9.466  14.038  68.226  1.00  0.00    -0.216 C  
HETATM   20  C   UNL     1      -8.093  13.506  67.813  1.00  0.00    -0.177 C  
ENDBRANCH   5  19
ENDBRANCH   4   5
BRANCH   4  21
HETATM   21  C   UNL     1     -10.439  16.376  65.661  1.00  0.00    -0.347 C  
HETATM   22  C   UNL     1     -11.316  16.208  64.420  1.00  0.00    -0.210 C  
ENDBRANCH   4  21
ENDBRANCH   3   4
ENDBRANCH   2   3
TORSDOF 8
ENDMDL
MODEL       46
REMARK 921   NORMALIZED FREE ENERGY PREDICTED BY IDOCK:   -4.71 KCAL/MOL
REMARK 922        TOTAL FREE ENERGY PREDICTED BY IDOCK:   -7.88 KCAL/MOL
REMARK 923 INTER-LIGAND FREE ENERGY PREDICTED BY IDOCK:   -6.96 KCAL/MOL
REMARK 924 INTRA-LIGAND FREE ENERGY PREDICTED BY IDOCK:   -0.91 KCAL/MOL
REMARK 927      BINDING AFFINITY PREDICTED BY RF-SCORE:    0.00 PKD
ROOT
HETATM    1  C   UNL     1     -11.701  15.380  72.404  1.00  0.00    -0.565 C  
HETATM    2  C   UNL     1     -12.027  15.955  71.033  1.00  0.00    -0.453 C  
ENDROOT
BRANCH   2   3
HETATM    3  C   UNL     1     -10.900  15.727  70.003  1.00  0.00    -0.342 C  
BRANCH   3   4
HETATM    4  N   UNL     1     -11.303  15.636  68.576  1.00  0.00    -0.342 NA 
BRANCH   4   5
HETATM    5  C   UNL     1     -10.719  14.409  67.906  1.00  0.00    -0.244 C  
BRANCH   5   6
HETATM    6  C   UNL     1     -11.674  13.221  68.070  1.00  0.00    -0.359 C  
HETATM    7  H   UNL     1     -12.455  12.147  69.467  1.00  0.00     0.000 HD 
HETATM    8  O   UNL     1     -11.863  12.882  69.366  1.00  0.00    -0.303 OA 
BRANCH   6   9
HETATM    9  N   UNL     1     -12.206  12.614  67.066  1.00  0.00    -0.428 NA 
HETATM   10  H   UNL     1     -13.215  12.469  67.063  1.00  0.00     0.000 HD 
BRANCH   9  11
HETATM   11  C   UNL     1     -11.451  12.139  65.965  1.00  0.00    -0.370 A  
HETATM   12  C   UNL     1     -11.305  12.835  64.739  1.00  0.00    -0.346 A  
HETATM   13  C   UNL     1     -10.448  12.334  63.742  1.00  0.00    -0.476 A  
HETATM   14  C   UNL     1     -12.042  14.094  64.387  1.00  0.00    -0.486 C  
HETATM   15  C   UNL     1      -9.684  11.198  63.957  1.00  0.00    -0.323 A  
HETATM   16  C   UNL     1      -9.791  10.520  65.163  1.00  0.00    -0.359 A  
HETATM   17  C   UNL     1     -10.673  10.970  66.164  1.00  0.00    -0.257 A  
HETATM   18  C   UNL     1     -10.755  10.175  67.443  1.00  0.00    -0.336 C  
ENDBRANCH   9  11
ENDBRANCH   6   9
ENDBRANCH   5   6
BRANCH   5  19
HETATM   19  C   UNL     1      -9.335  13.947  68.443  1.00  0.00    -0.201 C  
HETATM   20  C   UNL     1      -8.179  14.024  67.445  1.00  0.00    -0.203 C  
ENDBRANCH   5  19
ENDBRANCH   4   5
BRANCH   4  21
HETATM   21  C   UNL     1     -10.934  16.881  67.850  1.00  0.00    -0.251 C  
HETATM   22  C   UNL     1      -9.752  17.693  68.382  1.00  0.00    -0.321 C  
ENDBRANCH   4  21
ENDBRANCH   3   4
ENDBRANCH   2   3
TORSDOF 8
ENDMDL
MODEL       47
REMARK 921   NORMALIZED FREE ENERGY PREDICTED BY IDOCK:   -4.69 KCAL/MOL
REMARK 922        TOTAL FREE ENERGY PREDICTED BY IDOCK:   -7.86 KCAL/MOL
REMARK 923 INTER-LIGAND FREE ENERGY PREDICTED BY IDOCK:   -6.90 KCAL/MOL
REMARK 924 INTRA-LIGAND FREE ENERGY PREDICTED BY IDOCK:   -0.95 KCAL/MOL
REMARK 927      BINDING AFFINITY PREDICTED BY RF-SCORE:    0.00 PKD
ROOT
HETATM    1  C   UNL     1     -12.061  12.148  63.625  1.00  0.00    -0.648 C  
HETATM    2  C   UNL     1     -11.458  12.693  64.912  1.00  0.00    -0.361 C  
ENDROOT
BRANCH   2   3
HETATM    3  C   UNL     1     -10.230  11.888  65.387  1.00  0.00    -0.263 C  
BRANCH   3   4
HETATM    4  N   UNL     1     -10.479  10.795  66.361  1.00  0.00    -0.247 NA 
BRANCH   4   5
HETATM    5  C   UNL     1      -9.928  11.129  67.733  1.00  0.00    -0.175 C  
BRANCH   5   6
HETATM    6  C   UNL     1     -11.056  11.098  68.770  1.00  0.00    -0.236 C  
HETATM    7  H   UNL     1     -12.983  11.085  68.843  1.00  0.00     0.000 HD 
HETATM    8  O   UNL     1     -12.284  11.104  68.200  1.00  0.00    -0.612 OA 
BRANCH   6   9
HETATM    9  N   UNL     1     -10.834  11.093  70.038  1.00  0.00    -0.456 NA 
HETATM   10  H   UNL     1     -10.679  11.984  70.508  1.00  0.00     0.000 HD 
BRANCH   9  11
HETATM   11  C   UNL     1     -10.796   9.905  70.809  1.00  0.00    -0.317 A  
HETATM   12  C   UNL     1      -9.623   9.145  71.045  1.00  0.00    -0.350 A  
HETATM   13  C   UNL     1      -9.664   8.038  71.911  1.00  0.00    -0.250 A  
HETATM   14  C   UNL     1      -8.296   9.413  70.397  1.00  0.00    -0.234 C  
HETATM   15  C   UNL     1     -10.820   7.706  72.599  1.00  0.00    -0.395 A  
HETATM   16  C   UNL     1     -11.971   8.456  72.402  1.00  0.00    -0.451 A  
HETATM   17  C   UNL     1     -11.975   9.543  71.508  1.00  0.00    -0.475 A  
HETATM   18  C   UNL     1     -13.265  10.304  71.327  1.00  0.00    -0.447 C  
ENDBRANCH   9  11
ENDBRANCH   6   9
ENDBRANCH   5   6
BRANCH   5  19
HETATM   19  C   UNL     1      -9.242  12.518  67.858  1.00  0.00    -0.200 C  
HETATM   20  C   UNL     1      -7.805  12.502  68.383  1.00  0.00    -0.141 C  
ENDBRANCH   5  19
ENDBRANCH   4   5
BRANCH   4  21
HETATM   21  C   UNL     1      -9.931   9.508  65.852  1.00  0.00    -0.272 C  
HETATM   22  C   UNL     1     -10.078   8.270  66.737  1.00  0.00    -0.373 C  
ENDBRANCH   4  21
ENDBRANCH   3   4
ENDBRANCH   2   3
TORSDOF 8
ENDMDL
MODEL       48
REMARK 921   NORMALIZED FREE ENERGY PREDICTED BY IDOCK:   -4.68 KCAL/MOL
REMARK 922        TOTAL FREE ENERGY PREDICTED BY IDOCK:   -7.84 KCAL/MOL
REMARK 923 INTER-LIGAND FREE ENERGY PREDICTED BY IDOCK:   -6.55 KCAL/MOL
REMARK 924 INTRA-LIGAND FREE ENERGY PREDICTED BY IDOCK:   -1.29 KCAL/MOL
REMARK 927      BINDING AFFINITY PREDICTED BY RF-SCORE:    0.00 PKD
ROOT
HETATM    1  C   UNL     1     -11.594   6.478  70.305  1.00  0.00    -0.473 C  
HETATM    2  C   UNL     1     -10.629   5.999  69.231  1.00  0.00    -0.366 C  
ENDROOT
BRANCH   2   3
HETATM    3  C   UNL     1     -10.475   7.005  68.070  1.00  0.00    -0.208 C  
BRANCH   3   4
HETATM    4  N   UNL     1      -9.287   7.896  68.106  1.00  0.00    -0.142 NA 
BRANCH   4   5
HETATM    5  C   UNL     1      -9.680   9.358  68.037  1.00  0.00    -0.145 C  
BRANCH   5   6
HETATM    6  C   UNL     1     -10.416   9.761  69.321  1.00  0.00    -0.219 C  
HETATM    7  H   UNL     1     -10.134   9.787  71.228  1.00  0.00     0.000 HD 
HETATM    8  O   UNL     1      -9.678   9.537  70.433  1.00  0.00    -0.242 OA 
BRANCH   6   9
HETATM    9  N   UNL     1     -11.613  10.233  69.315  1.00  0.00    -0.447 NA 
HETATM   10  H   UNL     1     -12.314   9.777  68.732  1.00  0.00     0.000 HD 
BRANCH   9  11
HETATM   11  C   UNL     1     -12.000  11.359  70.083  1.00  0.00    -0.377 A  
HETATM   12  C   UNL     1     -11.808  12.704  69.678  1.00  0.00    -0.379 A  
HETATM   13  C   UNL     1     -12.321  13.755  70.459  1.00  0.00    -0.429 A  
HETATM   14  C   UNL     1     -11.042  13.120  68.456  1.00  0.00    -0.296 C  
HETATM   15  C   UNL     1     -13.077  13.504  71.593  1.00  0.00    -0.459 A  
HETATM   16  C   UNL     1     -13.302  12.192  71.989  1.00  0.00    -0.470 A  
HETATM   17  C   UNL     1     -12.763  11.119  71.254  1.00  0.00    -0.531 A  
HETATM   18  C   UNL     1     -13.029   9.720  71.750  1.00  0.00    -0.536 C  
ENDBRANCH   9  11
ENDBRANCH   6   9
ENDBRANCH   5   6
BRANCH   5  19
HETATM   19  C   UNL     1     -10.603   9.749  66.850  1.00  0.00    -0.243 C  
HETATM   20  C   UNL     1      -9.975  10.661  65.795  1.00  0.00    -0.315 C  
ENDBRANCH   5  19
ENDBRANCH   4   5
BRANCH   4  21
HETATM   21  C   UNL     1      -8.333   7.536  67.022  1.00  0.00    -0.121 C  
HETATM   22  C   UNL     1      -8.796   6.525  65.972  1.00  0.00    -0.154 C  
ENDBRANCH   4  21
ENDBRANCH   3   4
ENDBRANCH   2   3
TORSDOF 8
ENDMDL
MODEL       49
REMARK 921   NORMALIZED FREE ENERGY PREDICTED BY IDOCK:   -4.68 KCAL/MOL
REMARK 922        TOTAL FREE ENERGY PREDICTED BY IDOCK:   -7.84 KCAL/MOL
REMARK 923 INTER-LIGAND FREE ENERGY PREDICTED BY IDOCK:   -6.86 KCAL/MOL
REMARK 924 INTRA-LIGAND FREE ENERGY PREDICTED BY IDOCK:   -0.98 KCAL/MOL
REMARK 927      BINDING AFFINITY PREDICTED BY RF-SCORE:    0.00 PKD
ROOT
HETATM    1  C   UNL     1     -12.679  15.496  70.884  1.00  0.00    -0.525 C  
HETATM    2  C   UNL     1     -12.498  14.198  70.108  1.00  0.00    -0.391 C  
ENDROOT
BRANCH   2   3
HETATM    3  C   UNL     1     -11.873  14.414  68.714  1.00  0.00    -0.325 C  
BRANCH   3   4
HETATM    4  N   UNL     1     -11.999  13.298  67.741  1.00  0.00    -0.341 NA 
BRANCH   4   5
HETATM    5  C   UNL     1     -10.744  12.450  67.696  1.00  0.00    -0.221 C  
BRANCH   5   6
HETATM    6  C   UNL     1     -10.934  11.191  68.551  1.00  0.00    -0.220 C  
HETATM    7  H   UNL     1     -11.468   9.349  68.352  1.00  0.00     0.000 HD 
HETATM    8  O   UNL     1     -11.350  10.129  67.823  1.00  0.00    -0.274 OA 
BRANCH   6   9
HETATM    9  N   UNL     1     -10.737  11.179  69.822  1.00  0.00    -0.462 NA 
HETATM   10  H   UNL     1     -10.601  12.069  70.303  1.00  0.00     0.000 HD 
BRANCH   9  11
HETATM   11  C   UNL     1     -10.700   9.986  70.585  1.00  0.00    -0.254 A  
HETATM   12  C   UNL     1      -9.568   9.138  70.685  1.00  0.00    -0.312 A  
HETATM   13  C   UNL     1      -9.592   8.030  71.551  1.00  0.00    -0.209 A  
HETATM   14  C   UNL     1      -8.309   9.310  69.887  1.00  0.00    -0.161 C  
HETATM   15  C   UNL     1     -10.682   7.781  72.369  1.00  0.00    -0.347 A  
HETATM   16  C   UNL     1     -11.789   8.618  72.307  1.00  0.00    -0.436 A  
HETATM   17  C   UNL     1     -11.814   9.709  71.417  1.00  0.00    -0.484 A  
HETATM   18  C   UNL     1     -13.055  10.566  71.387  1.00  0.00    -0.509 C  
ENDBRANCH   9  11
ENDBRANCH   6   9
ENDBRANCH   5   6
BRANCH   5  19
HETATM   19  C   UNL     1      -9.448  13.143  68.203  1.00  0.00    -0.222 C  
HETATM   20  C   UNL     1      -8.602  13.829  67.129  1.00  0.00    -0.210 C  
ENDBRANCH   5  19
ENDBRANCH   4   5
BRANCH   4  21
HETATM   21  C   UNL     1     -12.354  13.819  66.394  1.00  0.00    -0.412 C  
HETATM   22  C   UNL     1     -12.384  12.827  65.230  1.00  0.00    -0.546 C  
ENDBRANCH   4  21
ENDBRANCH   3   4
ENDBRANCH   2   3
TORSDOF 8
ENDMDL
MODEL       50
REMARK 921   NORMALIZED FREE ENERGY PREDICTED BY IDOCK:   -4.66 KCAL/MOL
REMARK 922        TOTAL FREE ENERGY PREDICTED BY IDOCK:   -7.81 KCAL/MOL
REMARK 923 INTER-LIGAND FREE ENERGY PREDICTED BY IDOCK:   -6.83 KCAL/MOL
REMARK 924 INTRA-LIGAND FREE ENERGY PREDICTED BY IDOCK:   -0.98 KCAL/MOL
REMARK 927      BINDING AFFINITY PREDICTED BY RF-SCORE:    0.00 PKD
ROOT
HETATM    1  C   UNL     1     -10.473  19.702  65.942  1.00  0.00    -0.591 C  
HETATM    2  C   UNL     1     -10.365  19.431  67.436  1.00  0.00    -0.559 C  
ENDROOT
BRANCH   2   3
HETATM    3  C   UNL     1     -10.748  17.984  67.812  1.00  0.00    -0.334 C  
BRANCH   3   4
HETATM    4  N   UNL     1      -9.631  17.040  68.074  1.00  0.00    -0.254 NA 
BRANCH   4   5
HETATM    5  C   UNL     1     -10.022  15.974  69.078  1.00  0.00    -0.242 C  
BRANCH   5   6
HETATM    6  C   UNL     1     -10.147  14.617  68.376  1.00  0.00    -0.237 C  
HETATM    7  H   UNL     1      -9.086  13.048  68.016  1.00  0.00     0.000 HD 
HETATM    8  O   UNL     1      -9.009  13.889  68.451  1.00  0.00    -0.186 OA 
BRANCH   6   9
HETATM    9  N   UNL     1     -11.219  14.246  67.769  1.00  0.00    -0.280 NA 
HETATM   10  H   UNL     1     -12.120  14.506  68.168  1.00  0.00     0.000 HD 
BRANCH   9  11
HETATM   11  C   UNL     1     -11.203  13.492  66.568  1.00  0.00    -0.306 A  
HETATM   12  C   UNL     1     -10.961  14.043  65.285  1.00  0.00    -0.335 A  
HETATM   13  C   UNL     1     -10.859  13.200  64.164  1.00  0.00    -0.407 A  
HETATM   14  C   UNL     1     -10.833  15.512  65.004  1.00  0.00    -0.468 C  
HETATM   15  C   UNL     1     -10.925  11.821  64.294  1.00  0.00    -0.419 A  
HETATM   16  C   UNL     1     -11.131  11.262  65.549  1.00  0.00    -0.138 A  
HETATM   17  C   UNL     1     -11.282  12.082  66.683  1.00  0.00    -0.380 A  
HETATM   18  C   UNL     1     -11.524  11.410  68.012  1.00  0.00    -0.377 C  
ENDBRANCH   9  11
ENDBRANCH   6   9
ENDBRANCH   5   6
BRANCH   5  19
HETATM   19  C   UNL     1     -11.363  16.217  69.825  1.00  0.00    -0.323 C  
HETATM   20  C   UNL     1     -11.437  15.662  71.249  1.00  0.00    -0.469 C  
ENDBRANCH   5  19
ENDBRANCH   4   5
BRANCH   4  21
HETATM   21  C   UNL     1      -8.415  17.779  68.508  1.00  0.00    -0.296 C  
HETATM   22  C   UNL     1      -7.220  16.961  68.998  1.00  0.00    -0.232 C  
ENDBRANCH   4  21
ENDBRANCH   3   4
ENDBRANCH   2   3
TORSDOF 8
ENDMDL
MODEL       51
REMARK 921   NORMALIZED FREE ENERGY PREDICTED BY IDOCK:   -4.65 KCAL/MOL
REMARK 922        TOTAL FREE ENERGY PREDICTED BY IDOCK:   -7.80 KCAL/MOL
REMARK 923 INTER-LIGAND FREE ENERGY PREDICTED BY IDOCK:   -6.48 KCAL/MOL
REMARK 924 INTRA-LIGAND FREE ENERGY PREDICTED BY IDOCK:   -1.33 KCAL/MOL
REMARK 927      BINDING AFFINITY PREDICTED BY RF-SCORE:    0.00 PKD
ROOT
HETATM    1  C   UNL     1     -10.478   7.694  69.648  1.00  0.00    -0.235 C  
HETATM    2  C   UNL     1     -10.166   9.174  69.483  1.00  0.00    -0.208 C  
ENDROOT
BRANCH   2   3
HETATM    3  C   UNL     1     -10.831   9.792  68.234  1.00  0.00    -0.210 C  
BRANCH   3   4
HETATM    4  N   UNL     1     -11.803  10.891  68.465  1.00  0.00    -0.503 NA 
BRANCH   4   5
HETATM    5  C   UNL     1     -11.190  12.250  68.193  1.00  0.00    -0.269 C  
BRANCH   5   6
HETATM    6  C   UNL     1     -11.983  12.970  67.096  1.00  0.00    -0.329 C  
HETATM    7  H   UNL     1     -12.690  12.634  65.335  1.00  0.00     0.000 HD 
HETATM    8  O   UNL     1     -12.198  12.187  66.014  1.00  0.00    -0.609 OA 
BRANCH   6   9
HETATM    9  N   UNL     1     -12.369  14.193  67.208  1.00  0.00    -0.576 NA 
HETATM   10  H   UNL     1     -13.369  14.387  67.247  1.00  0.00     0.000 HD 
BRANCH   9  11
HETATM   11  C   UNL     1     -11.465  15.282  67.280  1.00  0.00    -0.224 A  
HETATM   12  C   UNL     1     -10.773  15.819  66.165  1.00  0.00    -0.293 A  
HETATM   13  C   UNL     1      -9.978  16.969  66.317  1.00  0.00    -0.324 A  
HETATM   14  C   UNL     1     -10.792  15.221  64.789  1.00  0.00    -0.379 C  
HETATM   15  C   UNL     1      -9.905  17.637  67.529  1.00  0.00    -0.299 A  
HETATM   16  C   UNL     1     -10.599  17.142  68.625  1.00  0.00    -0.352 A  
HETATM   17  C   UNL     1     -11.368  15.968  68.517  1.00  0.00    -0.382 A  
HETATM   18  C   UNL     1     -12.081  15.475  69.751  1.00  0.00    -0.372 C  
ENDBRANCH   9  11
ENDBRANCH   6   9
ENDBRANCH   5   6
BRANCH   5  19
HETATM   19  C   UNL     1      -9.705  12.234  67.734  1.00  0.00    -0.199 C  
HETATM   20  C   UNL     1      -8.758  13.139  68.524  1.00  0.00    -0.049 C  
ENDBRANCH   5  19
ENDBRANCH   4   5
BRANCH   4  21
HETATM   21  C   UNL     1     -12.362  10.811  69.842  1.00  0.00    -0.271 C  
HETATM   22  C   UNL     1     -12.343  12.080  70.695  1.00  0.00    -0.394 C  
ENDBRANCH   4  21
ENDBRANCH   3   4
ENDBRANCH   2   3
TORSDOF 8
ENDMDL
MODEL       52
REMARK 921   NORMALIZED FREE ENERGY PREDICTED BY IDOCK:   -4.64 KCAL/MOL
REMARK 922        TOTAL FREE ENERGY PREDICTED BY IDOCK:   -7.79 KCAL/MOL
REMARK 923 INTER-LIGAND FREE ENERGY PREDICTED BY IDOCK:   -6.84 KCAL/MOL
REMARK 924 INTRA-LIGAND FREE ENERGY PREDICTED BY IDOCK:   -0.94 KCAL/MOL
REMARK 927      BINDING AFFINITY PREDICTED BY RF-SCORE:    0.00 PKD
ROOT
HETATM    1  C   UNL     1     -10.579  19.833  67.016  1.00  0.00    -0.586 C  
HETATM    2  C   UNL     1     -10.075  18.846  68.059  1.00  0.00    -0.437 C  
ENDROOT
BRANCH   2   3
HETATM    3  C   UNL     1     -10.630  17.421  67.856  1.00  0.00    -0.383 C  
BRANCH   3   4
HETATM    4  N   UNL     1      -9.696  16.293  68.106  1.00  0.00    -0.225 NA 
BRANCH   4   5
HETATM    5  C   UNL     1     -10.374  15.155  68.841  1.00  0.00    -0.243 C  
BRANCH   5   6
HETATM    6  C   UNL     1     -10.505  13.940  67.915  1.00  0.00    -0.242 C  
HETATM    7  H   UNL     1     -11.446  12.260  67.822  1.00  0.00     0.000 HD 
HETATM    8  O   UNL     1     -11.364  13.013  68.396  1.00  0.00    -0.252 OA 
BRANCH   6   9
HETATM    9  N   UNL     1      -9.841  13.829  66.818  1.00  0.00    -0.267 NA 
HETATM   10  H   UNL     1      -8.920  14.264  66.760  1.00  0.00     0.000 HD 
BRANCH   9  11
HETATM   11  C   UNL     1     -10.330  13.128  65.688  1.00  0.00    -0.284 A  
HETATM   12  C   UNL     1     -10.167  11.734  65.482  1.00  0.00    -0.291 A  
HETATM   13  C   UNL     1     -10.781  11.108  64.383  1.00  0.00    -0.388 A  
HETATM   14  C   UNL     1      -9.335  10.842  66.355  1.00  0.00    -0.198 C  
HETATM   15  C   UNL     1     -11.605  11.815  63.521  1.00  0.00    -0.487 A  
HETATM   16  C   UNL     1     -11.800  13.175  63.724  1.00  0.00    -0.546 A  
HETATM   17  C   UNL     1     -11.164  13.840  64.789  1.00  0.00    -0.370 A  
HETATM   18  C   UNL     1     -11.404  15.321  64.941  1.00  0.00    -0.387 C  
ENDBRANCH   9  11
ENDBRANCH   6   9
ENDBRANCH   5   6
BRANCH   5  19
HETATM   19  C   UNL     1     -11.798  15.461  69.382  1.00  0.00    -0.372 C  
HETATM   20  C   UNL     1     -11.881  15.803  70.871  1.00  0.00    -0.451 C  
ENDBRANCH   5  19
ENDBRANCH   4   5
BRANCH   4  21
HETATM   21  C   UNL     1      -8.488  16.770  68.832  1.00  0.00    -0.217 C  
HETATM   22  C   UNL     1      -7.471  15.723  69.290  1.00  0.00    -0.220 C  
ENDBRANCH   4  21
ENDBRANCH   3   4
ENDBRANCH   2   3
TORSDOF 8
ENDMDL
MODEL       53
REMARK 921   NORMALIZED FREE ENERGY PREDICTED BY IDOCK:   -4.62 KCAL/MOL
REMARK 922        TOTAL FREE ENERGY PREDICTED BY IDOCK:   -7.76 KCAL/MOL
REMARK 923 INTER-LIGAND FREE ENERGY PREDICTED BY IDOCK:   -6.76 KCAL/MOL
REMARK 924 INTRA-LIGAND FREE ENERGY PREDICTED BY IDOCK:   -1.00 KCAL/MOL
REMARK 927      BINDING AFFINITY PREDICTED BY RF-SCORE:    0.00 PKD
ROOT
HETATM    1  C   UNL     1     -10.767   6.101  66.860  1.00  0.00    -0.413 C  
HETATM    2  C   UNL     1     -11.015   6.608  68.273  1.00  0.00    -0.321 C  
ENDROOT
BRANCH   2   3
HETATM    3  C   UNL     1     -10.182   7.862  68.616  1.00  0.00    -0.205 C  
BRANCH   3   4
HETATM    4  N   UNL     1     -10.910   9.007  69.221  1.00  0.00    -0.168 NA 
BRANCH   4   5
HETATM    5  C   UNL     1     -10.158  10.310  69.036  1.00  0.00    -0.213 C  
BRANCH   5   6
HETATM    6  C   UNL     1     -10.928  11.224  68.076  1.00  0.00    -0.247 C  
HETATM    7  H   UNL     1     -12.743  11.597  67.543  1.00  0.00     0.000 HD 
HETATM    8  O   UNL     1     -12.266  11.030  68.137  1.00  0.00    -0.578 OA 
BRANCH   6   9
HETATM    9  N   UNL     1     -10.341  12.058  67.292  1.00  0.00    -0.210 NA 
HETATM   10  H   UNL     1      -9.514  12.547  67.631  1.00  0.00     0.000 HD 
BRANCH   9  11
HETATM   11  C   UNL     1     -10.794  12.328  65.976  1.00  0.00    -0.275 A  
HETATM   12  C   UNL     1     -10.664  11.427  64.888  1.00  0.00    -0.350 A  
HETATM   13  C   UNL     1     -11.238  11.739  63.643  1.00  0.00    -0.519 A  
HETATM   14  C   UNL     1      -9.905  10.134  64.946  1.00  0.00    -0.390 C  
HETATM   15  C   UNL     1     -11.994  12.888  63.468  1.00  0.00    -0.629 A  
HETATM   16  C   UNL     1     -12.157  13.767  64.531  1.00  0.00    -0.463 A  
HETATM   17  C   UNL     1     -11.557  13.506  65.777  1.00  0.00    -0.351 A  
HETATM   18  C   UNL     1     -11.758  14.512  66.882  1.00  0.00    -0.399 C  
ENDBRANCH   9  11
ENDBRANCH   6   9
ENDBRANCH   5   6
BRANCH   5  19
HETATM   19  C   UNL     1      -8.718  10.177  68.469  1.00  0.00    -0.123 C  
HETATM   20  C   UNL     1      -7.587  10.434  69.466  1.00  0.00    -0.158 C  
ENDBRANCH   5  19
ENDBRANCH   4   5
BRANCH   4  21
HETATM   21  C   UNL     1     -11.197   8.742  70.657  1.00  0.00    -0.257 C  
HETATM   22  C   UNL     1     -11.914   9.832  71.454  1.00  0.00    -0.493 C  
ENDBRANCH   4  21
ENDBRANCH   3   4
ENDBRANCH   2   3
TORSDOF 8
ENDMDL
MODEL       54
REMARK 921   NORMALIZED FREE ENERGY PREDICTED BY IDOCK:   -4.61 KCAL/MOL
REMARK 922        TOTAL FREE ENERGY PREDICTED BY IDOCK:   -7.74 KCAL/MOL
REMARK 923 INTER-LIGAND FREE ENERGY PREDICTED BY IDOCK:   -6.67 KCAL/MOL
REMARK 924 INTRA-LIGAND FREE ENERGY PREDICTED BY IDOCK:   -1.08 KCAL/MOL
REMARK 927      BINDING AFFINITY PREDICTED BY RF-SCORE:    0.00 PKD
ROOT
HETATM    1  C   UNL     1     -11.128   5.440  72.733  1.00  0.00    -0.349 C  
HETATM    2  C   UNL     1     -10.309   5.540  71.454  1.00  0.00    -0.291 C  
ENDROOT
BRANCH   2   3
HETATM    3  C   UNL     1      -9.951   6.995  71.082  1.00  0.00    -0.184 C  
BRANCH   3   4
HETATM    4  N   UNL     1     -10.551   7.537  69.836  1.00  0.00    -0.234 NA 
BRANCH   4   5
HETATM    5  C   UNL     1     -11.513   8.672  70.125  1.00  0.00    -0.005 C  
BRANCH   5   6
HETATM    6  C   UNL     1     -11.159   9.888  69.262  1.00  0.00    -0.181 C  
HETATM    7  H   UNL     1      -9.611  10.739  68.489  1.00  0.00     0.000 HD 
HETATM    8  O   UNL     1      -9.830   9.985  69.024  1.00  0.00    -0.179 OA 
BRANCH   6   9
HETATM    9  N   UNL     1     -12.043  10.724  68.843  1.00  0.00    -0.749 NA 
HETATM   10  H   UNL     1     -13.006  10.404  68.741  1.00  0.00     0.000 HD 
BRANCH   9  11
HETATM   11  C   UNL     1     -11.740  12.070  68.519  1.00  0.00    -0.332 A  
HETATM   12  C   UNL     1     -11.362  12.513  67.227  1.00  0.00    -0.373 A  
HETATM   13  C   UNL     1     -11.183  13.885  66.977  1.00  0.00    -0.327 A  
HETATM   14  C   UNL     1     -11.092  11.602  66.065  1.00  0.00    -0.325 C  
HETATM   15  C   UNL     1     -11.435  14.833  67.957  1.00  0.00    -0.351 A  
HETATM   16  C   UNL     1     -11.835  14.419  69.221  1.00  0.00    -0.365 A  
HETATM   17  C   UNL     1     -11.979  13.050  69.516  1.00  0.00    -0.350 A  
HETATM   18  C   UNL     1     -12.397  12.669  70.914  1.00  0.00    -0.352 C  
ENDBRANCH   9  11
ENDBRANCH   6   9
ENDBRANCH   5   6
BRANCH   5  19
HETATM   19  C   UNL     1     -11.546   9.163  71.599  1.00  0.00    -0.449 C  
HETATM   20  C   UNL     1     -12.935   9.269  72.230  1.00  0.00    -0.488 C  
ENDBRANCH   5  19
ENDBRANCH   4   5
BRANCH   4  21
HETATM   21  C   UNL     1     -11.206   6.451  69.058  1.00  0.00    -0.331 C  
HETATM   22  C   UNL     1     -10.956   6.404  67.550  1.00  0.00    -0.454 C  
ENDBRANCH   4  21
ENDBRANCH   3   4
ENDBRANCH   2   3
TORSDOF 8
ENDMDL
MODEL       55
REMARK 921   NORMALIZED FREE ENERGY PREDICTED BY IDOCK:   -4.61 KCAL/MOL
REMARK 922        TOTAL FREE ENERGY PREDICTED BY IDOCK:   -7.73 KCAL/MOL
REMARK 923 INTER-LIGAND FREE ENERGY PREDICTED BY IDOCK:   -6.50 KCAL/MOL
REMARK 924 INTRA-LIGAND FREE ENERGY PREDICTED BY IDOCK:   -1.23 KCAL/MOL
REMARK 927      BINDING AFFINITY PREDICTED BY RF-SCORE:    0.00 PKD
ROOT
HETATM    1  C   UNL     1     -10.588  19.467  66.783  1.00  0.00    -0.597 C  
HETATM    2  C   UNL     1      -9.610  19.781  67.905  1.00  0.00    -0.482 C  
ENDROOT
BRANCH   2   3
HETATM    3  C   UNL     1      -8.547  18.680  68.101  1.00  0.00    -0.307 C  
BRANCH   3   4
HETATM    4  N   UNL     1      -8.631  17.498  67.204  1.00  0.00    -0.220 NA 
BRANCH   4   5
HETATM    5  C   UNL     1      -8.829  16.214  67.985  1.00  0.00    -0.181 C  
BRANCH   5   6
HETATM    6  C   UNL     1     -10.283  16.111  68.459  1.00  0.00    -0.241 C  
HETATM    7  H   UNL     1     -11.314  16.268  70.080  1.00  0.00     0.000 HD 
HETATM    8  O   UNL     1     -10.412  16.331  69.787  1.00  0.00    -0.281 OA 
BRANCH   6   9
HETATM    9  N   UNL     1     -11.253  15.820  67.664  1.00  0.00    -0.290 NA 
HETATM   10  H   UNL     1     -12.018  16.486  67.565  1.00  0.00     0.000 HD 
BRANCH   9  11
HETATM   11  C   UNL     1     -11.304  14.615  66.920  1.00  0.00    -0.356 A  
HETATM   12  C   UNL     1     -11.597  13.345  67.479  1.00  0.00    -0.382 A  
HETATM   13  C   UNL     1     -11.730  12.222  66.643  1.00  0.00    -0.417 A  
HETATM   14  C   UNL     1     -11.749  13.081  68.948  1.00  0.00    -0.371 C  
HETATM   15  C   UNL     1     -11.646  12.338  65.264  1.00  0.00    -0.405 A  
HETATM   16  C   UNL     1     -11.390  13.579  64.698  1.00  0.00    -0.375 A  
HETATM   17  C   UNL     1     -11.206  14.715  65.509  1.00  0.00    -0.343 A  
HETATM   18  C   UNL     1     -10.911  16.028  64.829  1.00  0.00    -0.373 C  
ENDBRANCH   9  11
ENDBRANCH   6   9
ENDBRANCH   5   6
BRANCH   5  19
HETATM   19  C   UNL     1      -7.935  16.053  69.246  1.00  0.00    -0.217 C  
HETATM   20  C   UNL     1      -6.921  14.909  69.197  1.00  0.00    -0.139 C  
ENDBRANCH   5  19
ENDBRANCH   4   5
BRANCH   4  21
HETATM   21  C   UNL     1      -7.431  17.424  66.327  1.00  0.00    -0.319 C  
HETATM   22  C   UNL     1      -6.219  18.276  66.703  1.00  0.00    -0.205 C  
ENDBRANCH   4  21
ENDBRANCH   3   4
ENDBRANCH   2   3
TORSDOF 8
ENDMDL
MODEL       56
REMARK 921   NORMALIZED FREE ENERGY PREDICTED BY IDOCK:   -4.61 KCAL/MOL
REMARK 922        TOTAL FREE ENERGY PREDICTED BY IDOCK:   -7.73 KCAL/MOL
REMARK 923 INTER-LIGAND FREE ENERGY PREDICTED BY IDOCK:   -7.01 KCAL/MOL
REMARK 924 INTRA-LIGAND FREE ENERGY PREDICTED BY IDOCK:   -0.73 KCAL/MOL
REMARK 927      BINDING AFFINITY PREDICTED BY RF-SCORE:    0.00 PKD
ROOT
HETATM    1  C   UNL     1     -13.217   9.176  72.221  1.00  0.00    -0.528 C  
HETATM    2  C   UNL     1     -12.255  10.060  71.439  1.00  0.00    -0.510 C  
ENDROOT
BRANCH   2   3
HETATM    3  C   UNL     1     -11.282   9.252  70.554  1.00  0.00    -0.265 C  
BRANCH   3   4
HETATM    4  N   UNL     1     -10.140   9.993  69.961  1.00  0.00    -0.253 NA 
BRANCH   4   5
HETATM    5  C   UNL     1     -10.125   9.886  68.449  1.00  0.00    -0.167 C  
BRANCH   5   6
HETATM    6  C   UNL     1     -10.911  11.050  67.836  1.00  0.00    -0.264 C  
HETATM    7  H   UNL     1     -12.716  11.723  67.759  1.00  0.00     0.000 HD 
HETATM    8  O   UNL     1     -12.229  11.002  68.139  1.00  0.00    -0.578 OA 
BRANCH   6   9
HETATM    9  N   UNL     1     -10.359  11.948  67.097  1.00  0.00    -0.208 NA 
HETATM   10  H   UNL     1      -9.533  12.429  67.450  1.00  0.00     0.000 HD 
BRANCH   9  11
HETATM   11  C   UNL     1     -10.849  12.297  65.814  1.00  0.00    -0.278 A  
HETATM   12  C   UNL     1     -10.642  11.524  64.644  1.00  0.00    -0.369 A  
HETATM   13  C   UNL     1     -11.257  11.896  63.435  1.00  0.00    -0.463 A  
HETATM   14  C   UNL     1      -9.760  10.312  64.576  1.00  0.00    -0.395 C  
HETATM   15  C   UNL     1     -12.123  12.977  63.373  1.00  0.00    -0.591 A  
HETATM   16  C   UNL     1     -12.361  13.728  64.516  1.00  0.00    -0.399 A  
HETATM   17  C   UNL     1     -11.726  13.408  65.731  1.00  0.00    -0.380 A  
HETATM   18  C   UNL     1     -12.014  14.278  66.928  1.00  0.00    -0.467 C  
ENDBRANCH   9  11
ENDBRANCH   6   9
ENDBRANCH   5   6
BRANCH   5  19
HETATM   19  C   UNL     1     -10.731   8.580  67.865  1.00  0.00    -0.148 C  
HETATM   20  C   UNL     1      -9.755   7.679  67.105  1.00  0.00    -0.239 C  
ENDBRANCH   5  19
ENDBRANCH   4   5
BRANCH   4  21
HETATM   21  C   UNL     1      -8.855   9.531  70.553  1.00  0.00    -0.201 C  
HETATM   22  C   UNL     1      -8.923   8.605  71.768  1.00  0.00    -0.307 C  
ENDBRANCH   4  21
ENDBRANCH   3   4
ENDBRANCH   2   3
TORSDOF 8
ENDMDL
MODEL       57
REMARK 921   NORMALIZED FREE ENERGY PREDICTED BY IDOCK:   -4.59 KCAL/MOL
REMARK 922        TOTAL FREE ENERGY PREDICTED BY IDOCK:   -7.71 KCAL/MOL
REMARK 923 INTER-LIGAND FREE ENERGY PREDICTED BY IDOCK:   -7.09 KCAL/MOL
REMARK 924 INTRA-LIGAND FREE ENERGY PREDICTED BY IDOCK:   -0.62 KCAL/MOL
REMARK 927      BINDING AFFINITY PREDICTED BY RF-SCORE:    0.00 PKD
ROOT
HETATM    1  C   UNL     1      -6.987  14.658  67.600  1.00  0.00    -0.205 C  
HETATM    2  C   UNL     1      -8.244  14.101  68.253  1.00  0.00    -0.148 C  
ENDROOT
BRANCH   2   3
HETATM    3  C   UNL     1      -8.314  12.560  68.203  1.00  0.00    -0.175 C  
BRANCH   3   4
HETATM    4  N   UNL     1      -9.358  11.962  67.332  1.00  0.00    -0.173 NA 
BRANCH   4   5
HETATM    5  C   UNL     1     -10.695  12.656  67.502  1.00  0.00    -0.225 C  
BRANCH   5   6
HETATM    6  C   UNL     1     -11.427  12.085  68.722  1.00  0.00    -0.300 C  
HETATM    7  H   UNL     1     -12.741  10.740  69.149  1.00  0.00     0.000 HD 
HETATM    8  O   UNL     1     -12.287  11.094  68.393  1.00  0.00    -0.556 OA 
BRANCH   6   9
HETATM    9  N   UNL     1     -11.244  12.533  69.915  1.00  0.00    -0.480 NA 
HETATM   10  H   UNL     1     -10.372  12.305  70.392  1.00  0.00     0.000 HD 
BRANCH   9  11
HETATM   11  C   UNL     1     -12.199  13.330  70.593  1.00  0.00    -0.338 A  
HETATM   12  C   UNL     1     -12.430  14.702  70.320  1.00  0.00    -0.401 A  
HETATM   13  C   UNL     1     -13.473  15.384  70.973  1.00  0.00    -0.510 A  
HETATM   14  C   UNL     1     -11.602  15.530  69.382  1.00  0.00    -0.366 C  
HETATM   15  C   UNL     1     -14.333  14.724  71.837  1.00  0.00    -0.657 A  
HETATM   16  C   UNL     1     -14.139  13.373  72.094  1.00  0.00    -0.441 A  
HETATM   17  C   UNL     1     -13.077  12.673  71.491  1.00  0.00    -0.373 A  
HETATM   18  C   UNL     1     -12.913  11.212  71.829  1.00  0.00    -0.526 C  
ENDBRANCH   9  11
ENDBRANCH   6   9
ENDBRANCH   5   6
BRANCH   5  19
HETATM   19  C   UNL     1     -11.670  12.535  66.298  1.00  0.00    -0.462 C  
HETATM   20  C   UNL     1     -12.491  13.787  65.984  1.00  0.00    -0.491 C  
ENDBRANCH   5  19
ENDBRANCH   4   5
BRANCH   4  21
HETATM   21  C   UNL     1      -9.467  10.499  67.579  1.00  0.00    -0.149 C  
HETATM   22  C   UNL     1      -8.248   9.781  68.160  1.00  0.00    -0.109 C  
ENDBRANCH   4  21
ENDBRANCH   3   4
ENDBRANCH   2   3
TORSDOF 8
ENDMDL
MODEL       58
REMARK 921   NORMALIZED FREE ENERGY PREDICTED BY IDOCK:   -4.59 KCAL/MOL
REMARK 922        TOTAL FREE ENERGY PREDICTED BY IDOCK:   -7.71 KCAL/MOL
REMARK 923 INTER-LIGAND FREE ENERGY PREDICTED BY IDOCK:   -6.64 KCAL/MOL
REMARK 924 INTRA-LIGAND FREE ENERGY PREDICTED BY IDOCK:   -1.07 KCAL/MOL
REMARK 927      BINDING AFFINITY PREDICTED BY RF-SCORE:    0.00 PKD
ROOT
HETATM    1  C   UNL     1     -11.361   5.483  72.595  1.00  0.00    -0.346 C  
HETATM    2  C   UNL     1     -10.383   5.639  71.440  1.00  0.00    -0.287 C  
ENDROOT
BRANCH   2   3
HETATM    3  C   UNL     1     -10.009   7.110  71.164  1.00  0.00    -0.183 C  
BRANCH   3   4
HETATM    4  N   UNL     1     -10.499   7.702  69.893  1.00  0.00    -0.226 NA 
BRANCH   4   5
HETATM    5  C   UNL     1     -11.486   8.824  70.140  1.00  0.00    -0.020 C  
BRANCH   5   6
HETATM    6  C   UNL     1     -11.107  10.047  69.297  1.00  0.00    -0.206 C  
HETATM    7  H   UNL     1      -9.545  11.064  68.804  1.00  0.00     0.000 HD 
HETATM    8  O   UNL     1      -9.780  10.306  69.327  1.00  0.00    -0.204 OA 
BRANCH   6   9
HETATM    9  N   UNL     1     -11.979  10.748  68.660  1.00  0.00    -0.756 NA 
HETATM   10  H   UNL     1     -12.773  10.270  68.236  1.00  0.00     0.000 HD 
BRANCH   9  11
HETATM   11  C   UNL     1     -11.885  12.156  68.523  1.00  0.00    -0.310 A  
HETATM   12  C   UNL     1     -12.034  13.073  69.594  1.00  0.00    -0.367 A  
HETATM   13  C   UNL     1     -11.818  14.446  69.380  1.00  0.00    -0.369 A  
HETATM   14  C   UNL     1     -12.454  12.691  70.983  1.00  0.00    -0.354 C  
HETATM   15  C   UNL     1     -11.393  14.924  68.150  1.00  0.00    -0.326 A  
HETATM   16  C   UNL     1     -11.213  14.036  67.098  1.00  0.00    -0.327 A  
HETATM   17  C   UNL     1     -11.465  12.662  67.267  1.00  0.00    -0.402 A  
HETATM   18  C   UNL     1     -11.267  11.756  66.077  1.00  0.00    -0.352 C  
ENDBRANCH   9  11
ENDBRANCH   6   9
ENDBRANCH   5   6
BRANCH   5  19
HETATM   19  C   UNL     1     -11.592   9.311  71.612  1.00  0.00    -0.463 C  
HETATM   20  C   UNL     1     -12.980   9.210  72.245  1.00  0.00    -0.492 C  
ENDBRANCH   5  19
ENDBRANCH   4   5
BRANCH   4  21
HETATM   21  C   UNL     1     -11.079   6.647  69.018  1.00  0.00    -0.257 C  
HETATM   22  C   UNL     1     -10.800   6.734  67.516  1.00  0.00    -0.388 C  
ENDBRANCH   4  21
ENDBRANCH   3   4
ENDBRANCH   2   3
TORSDOF 8
ENDMDL
MODEL       59
REMARK 921   NORMALIZED FREE ENERGY PREDICTED BY IDOCK:   -4.59 KCAL/MOL
REMARK 922        TOTAL FREE ENERGY PREDICTED BY IDOCK:   -7.71 KCAL/MOL
REMARK 923 INTER-LIGAND FREE ENERGY PREDICTED BY IDOCK:   -7.06 KCAL/MOL
REMARK 924 INTRA-LIGAND FREE ENERGY PREDICTED BY IDOCK:   -0.65 KCAL/MOL
REMARK 927      BINDING AFFINITY PREDICTED BY RF-SCORE:    0.00 PKD
ROOT
HETATM    1  C   UNL     1      -9.741  17.194  68.116  1.00  0.00    -0.276 C  
HETATM    2  C   UNL     1     -10.189  16.425  69.350  1.00  0.00    -0.273 C  
ENDROOT
BRANCH   2   3
HETATM    3  C   UNL     1     -11.604  15.826  69.204  1.00  0.00    -0.392 C  
BRANCH   3   4
HETATM    4  N   UNL     1     -11.799  14.437  69.696  1.00  0.00    -0.302 NA 
BRANCH   4   5
HETATM    5  C   UNL     1     -12.122  13.482  68.565  1.00  0.00    -0.268 C  
BRANCH   5   6
HETATM    6  C   UNL     1     -11.713  12.056  68.954  1.00  0.00    -0.326 C  
HETATM    7  H   UNL     1     -11.838  10.256  68.275  1.00  0.00     0.000 HD 
HETATM    8  O   UNL     1     -12.092  11.140  68.034  1.00  0.00    -0.635 OA 
BRANCH   6   9
HETATM    9  N   UNL     1     -11.099  11.786  70.053  1.00  0.00    -0.443 NA 
HETATM   10  H   UNL     1     -10.571  12.527  70.511  1.00  0.00     0.000 HD 
BRANCH   9  11
HETATM   11  C   UNL     1     -11.126  10.503  70.654  1.00  0.00    -0.105 A  
HETATM   12  C   UNL     1     -12.208  10.004  71.422  1.00  0.00    -0.510 A  
HETATM   13  C   UNL     1     -12.188   8.678  71.890  1.00  0.00    -0.419 A  
HETATM   14  C   UNL     1     -13.405  10.815  71.823  1.00  0.00    -0.429 C  
HETATM   15  C   UNL     1     -11.155   7.815  71.559  1.00  0.00    -0.270 A  
HETATM   16  C   UNL     1     -10.100   8.277  70.782  1.00  0.00    -0.218 A  
HETATM   17  C   UNL     1     -10.069   9.612  70.336  1.00  0.00    -0.336 A  
HETATM   18  C   UNL     1      -8.885  10.054  69.513  1.00  0.00    -0.209 C  
ENDBRANCH   9  11
ENDBRANCH   6   9
ENDBRANCH   5   6
BRANCH   5  19
HETATM   19  C   UNL     1     -11.429  13.792  67.209  1.00  0.00    -0.367 C  
HETATM   20  C   UNL     1     -12.366  13.962  66.011  1.00  0.00    -0.511 C  
ENDBRANCH   5  19
ENDBRANCH   4   5
BRANCH   4  21
HETATM   21  C   UNL     1     -12.845  14.402  70.755  1.00  0.00    -0.353 C  
HETATM   22  C   UNL     1     -12.549  15.121  72.072  1.00  0.00    -0.416 C  
ENDBRANCH   4  21
ENDBRANCH   3   4
ENDBRANCH   2   3
TORSDOF 8
ENDMDL
MODEL       60
REMARK 921   NORMALIZED FREE ENERGY PREDICTED BY IDOCK:   -4.59 KCAL/MOL
REMARK 922        TOTAL FREE ENERGY PREDICTED BY IDOCK:   -7.70 KCAL/MOL
REMARK 923 INTER-LIGAND FREE ENERGY PREDICTED BY IDOCK:   -6.33 KCAL/MOL
REMARK 924 INTRA-LIGAND FREE ENERGY PREDICTED BY IDOCK:   -1.37 KCAL/MOL
REMARK 927      BINDING AFFINITY PREDICTED BY RF-SCORE:    0.00 PKD
ROOT
HETATM    1  C   UNL     1     -10.729   7.118  66.994  1.00  0.00    -0.420 C  
HETATM    2  C   UNL     1      -9.994   7.958  68.028  1.00  0.00    -0.213 C  
ENDROOT
BRANCH   2   3
HETATM    3  C   UNL     1      -9.139   9.076  67.396  1.00  0.00    -0.131 C  
BRANCH   3   4
HETATM    4  N   UNL     1      -9.456  10.472  67.796  1.00  0.00    -0.148 NA 
BRANCH   4   5
HETATM    5  C   UNL     1     -10.122  11.239  66.672  1.00  0.00    -0.214 C  
BRANCH   5   6
HETATM    6  C   UNL     1     -11.546  11.633  67.081  1.00  0.00    -0.212 C  
HETATM    7  H   UNL     1     -12.912  11.105  68.335  1.00  0.00     0.000 HD 
HETATM    8  O   UNL     1     -12.030  10.861  68.082  1.00  0.00    -0.581 OA 
BRANCH   6   9
HETATM    9  N   UNL     1     -12.197  12.581  66.504  1.00  0.00    -0.531 NA 
HETATM   10  H   UNL     1     -13.122  12.377  66.126  1.00  0.00     0.000 HD 
BRANCH   9  11
HETATM   11  C   UNL     1     -11.687  13.896  66.369  1.00  0.00    -0.383 A  
HETATM   12  C   UNL     1     -11.263  14.702  67.456  1.00  0.00    -0.343 A  
HETATM   13  C   UNL     1     -10.671  15.954  67.215  1.00  0.00    -0.306 A  
HETATM   14  C   UNL     1     -11.431  14.331  68.900  1.00  0.00    -0.318 C  
HETATM   15  C   UNL     1     -10.428  16.398  65.924  1.00  0.00    -0.350 A  
HETATM   16  C   UNL     1     -10.809  15.609  64.847  1.00  0.00    -0.438 A  
HETATM   17  C   UNL     1     -11.445  14.370  65.055  1.00  0.00    -0.372 A  
HETATM   18  C   UNL     1     -11.850  13.573  63.841  1.00  0.00    -0.460 C  
ENDBRANCH   9  11
ENDBRANCH   6   9
ENDBRANCH   5   6
BRANCH   5  19
HETATM   19  C   UNL     1     -10.238  10.481  65.320  1.00  0.00    -0.352 C  
HETATM   20  C   UNL     1      -9.289  10.948  64.215  1.00  0.00    -0.259 C  
ENDBRANCH   5  19
ENDBRANCH   4   5
BRANCH   4  21
HETATM   21  C   UNL     1      -8.233  11.166  68.281  1.00  0.00    -0.134 C  
HETATM   22  C   UNL     1      -7.965  12.582  67.768  1.00  0.00    -0.163 C  
ENDBRANCH   4  21
ENDBRANCH   3   4
ENDBRANCH   2   3
TORSDOF 8
ENDMDL
MODEL       61
REMARK 921   NORMALIZED FREE ENERGY PREDICTED BY IDOCK:   -4.58 KCAL/MOL
REMARK 922        TOTAL FREE ENERGY PREDICTED BY IDOCK:   -7.70 KCAL/MOL
REMARK 923 INTER-LIGAND FREE ENERGY PREDICTED BY IDOCK:   -6.66 KCAL/MOL
REMARK 924 INTRA-LIGAND FREE ENERGY PREDICTED BY IDOCK:   -1.04 KCAL/MOL
REMARK 927      BINDING AFFINITY PREDICTED BY RF-SCORE:    0.00 PKD
ROOT
HETATM    1  C   UNL     1     -10.364   8.905  71.673  1.00  0.00    -0.416 C  
HETATM    2  C   UNL     1     -11.635   9.505  71.089  1.00  0.00    -0.439 C  
ENDROOT
BRANCH   2   3
HETATM    3  C   UNL     1     -11.374  10.349  69.823  1.00  0.00    -0.289 C  
BRANCH   3   4
HETATM    4  N   UNL     1     -11.998  11.696  69.773  1.00  0.00    -0.327 NA 
BRANCH   4   5
HETATM    5  C   UNL     1     -11.124  12.692  69.037  1.00  0.00    -0.238 C  
BRANCH   5   6
HETATM    6  C   UNL     1     -11.864  13.222  67.803  1.00  0.00    -0.353 C  
HETATM    7  H   UNL     1     -12.516  12.595  66.101  1.00  0.00     0.000 HD 
HETATM    8  O   UNL     1     -12.057  12.267  66.865  1.00  0.00    -0.583 OA 
BRANCH   6   9
HETATM    9  N   UNL     1     -12.228  14.451  67.687  1.00  0.00    -0.623 NA 
HETATM   10  H   UNL     1     -13.223  14.670  67.726  1.00  0.00     0.000 HD 
BRANCH   9  11
HETATM   11  C   UNL     1     -11.307  15.514  67.509  1.00  0.00    -0.232 A  
HETATM   12  C   UNL     1     -10.782  16.299  68.566  1.00  0.00    -0.307 A  
HETATM   13  C   UNL     1      -9.792  17.263  68.303  1.00  0.00    -0.304 A  
HETATM   14  C   UNL     1     -11.235  16.209  69.994  1.00  0.00    -0.359 C  
HETATM   15  C   UNL     1      -9.264  17.421  67.032  1.00  0.00    -0.252 A  
HETATM   16  C   UNL     1      -9.745  16.640  65.989  1.00  0.00    -0.306 A  
HETATM   17  C   UNL     1     -10.768  15.698  66.212  1.00  0.00    -0.295 A  
HETATM   18  C   UNL     1     -11.257  14.897  65.031  1.00  0.00    -0.408 C  
ENDBRANCH   9  11
ENDBRANCH   6   9
ENDBRANCH   5   6
BRANCH   5  19
HETATM   19  C   UNL     1      -9.758  12.143  68.538  1.00  0.00    -0.153 C  
HETATM   20  C   UNL     1      -8.713  13.200  68.176  1.00  0.00    -0.193 C  
ENDBRANCH   5  19
ENDBRANCH   4   5
BRANCH   4  21
HETATM   21  C   UNL     1     -12.327  12.169  71.145  1.00  0.00    -0.160 C  
HETATM   22  C   UNL     1     -12.894  13.581  71.297  1.00  0.00    -0.420 C  
ENDBRANCH   4  21
ENDBRANCH   3   4
ENDBRANCH   2   3
TORSDOF 8
ENDMDL
MODEL       62
REMARK 921   NORMALIZED FREE ENERGY PREDICTED BY IDOCK:   -4.58 KCAL/MOL
REMARK 922        TOTAL FREE ENERGY PREDICTED BY IDOCK:   -7.70 KCAL/MOL
REMARK 923 INTER-LIGAND FREE ENERGY PREDICTED BY IDOCK:   -6.78 KCAL/MOL
REMARK 924 INTRA-LIGAND FREE ENERGY PREDICTED BY IDOCK:   -0.92 KCAL/MOL
REMARK 927      BINDING AFFINITY PREDICTED BY RF-SCORE:    0.00 PKD
ROOT
HETATM    1  C   UNL     1     -10.915   6.138  68.090  1.00  0.00    -0.398 C  
HETATM    2  C   UNL     1     -11.359   6.392  69.524  1.00  0.00    -0.460 C  
ENDROOT
BRANCH   2   3
HETATM    3  C   UNL     1     -10.591   7.552  70.193  1.00  0.00    -0.235 C  
BRANCH   3   4
HETATM    4  N   UNL     1     -11.285   8.864  70.266  1.00  0.00    -0.232 NA 
BRANCH   4   5
HETATM    5  C   UNL     1     -10.517   9.946  69.534  1.00  0.00    -0.241 C  
BRANCH   5   6
HETATM    6  C   UNL     1     -11.208  10.266  68.203  1.00  0.00    -0.229 C  
HETATM    7  H   UNL     1     -11.189   9.689  66.364  1.00  0.00     0.000 HD 
HETATM    8  O   UNL     1     -10.761   9.491  67.188  1.00  0.00    -0.255 OA 
BRANCH   6   9
HETATM    9  N   UNL     1     -12.093  11.193  68.086  1.00  0.00    -0.737 NA 
HETATM   10  H   UNL     1     -13.069  10.960  68.271  1.00  0.00     0.000 HD 
BRANCH   9  11
HETATM   11  C   UNL     1     -11.773  12.522  67.713  1.00  0.00    -0.359 A  
HETATM   12  C   UNL     1     -11.606  12.955  66.373  1.00  0.00    -0.425 A  
HETATM   13  C   UNL     1     -11.394  14.317  66.095  1.00  0.00    -0.342 A  
HETATM   14  C   UNL     1     -11.602  12.042  65.182  1.00  0.00    -0.330 C  
HETATM   15  C   UNL     1     -11.410  15.268  67.104  1.00  0.00    -0.247 A  
HETATM   16  C   UNL     1     -11.602  14.865  68.419  1.00  0.00    -0.348 A  
HETATM   17  C   UNL     1     -11.772  13.504  68.735  1.00  0.00    -0.373 A  
HETATM   18  C   UNL     1     -11.957  13.134  70.185  1.00  0.00    -0.381 C  
ENDBRANCH   9  11
ENDBRANCH   6   9
ENDBRANCH   5   6
BRANCH   5  19
HETATM   19  C   UNL     1      -9.037   9.608  69.200  1.00  0.00    -0.154 C  
HETATM   20  C   UNL     1      -8.098  10.808  69.068  1.00  0.00    -0.140 C  
ENDBRANCH   5  19
ENDBRANCH   4   5
BRANCH   4  21
HETATM   21  C   UNL     1     -11.541   9.239  71.682  1.00  0.00    -0.393 C  
HETATM   22  C   UNL     1     -12.975   9.126  72.202  1.00  0.00    -0.498 C  
ENDBRANCH   4  21
ENDBRANCH   3   4
ENDBRANCH   2   3
TORSDOF 8
ENDMDL
MODEL       63
REMARK 921   NORMALIZED FREE ENERGY PREDICTED BY IDOCK:   -4.58 KCAL/MOL
REMARK 922        TOTAL FREE ENERGY PREDICTED BY IDOCK:   -7.69 KCAL/MOL
REMARK 923 INTER-LIGAND FREE ENERGY PREDICTED BY IDOCK:   -6.76 KCAL/MOL
REMARK 924 INTRA-LIGAND FREE ENERGY PREDICTED BY IDOCK:   -0.93 KCAL/MOL
REMARK 927      BINDING AFFINITY PREDICTED BY RF-SCORE:    0.00 PKD
ROOT
HETATM    1  C   UNL     1     -10.683  17.700  67.688  1.00  0.00    -0.318 C  
HETATM    2  C   UNL     1     -11.167  16.315  68.095  1.00  0.00    -0.298 C  
ENDROOT
BRANCH   2   3
HETATM    3  C   UNL     1     -10.999  15.267  66.974  1.00  0.00    -0.324 C  
BRANCH   3   4
HETATM    4  N   UNL     1     -11.928  14.108  66.993  1.00  0.00    -0.428 NA 
BRANCH   4   5
HETATM    5  C   UNL     1     -11.226  12.834  67.418  1.00  0.00    -0.294 C  
BRANCH   5   6
HETATM    6  C   UNL     1     -11.858  12.296  68.707  1.00  0.00    -0.306 C  
HETATM    7  H   UNL     1     -12.220  12.865  70.513  1.00  0.00     0.000 HD 
HETATM    8  O   UNL     1     -11.828  13.198  69.715  1.00  0.00    -0.307 OA 
BRANCH   6   9
HETATM    9  N   UNL     1     -12.334  11.104  68.802  1.00  0.00    -0.657 NA 
HETATM   10  H   UNL     1     -13.244  10.908  68.385  1.00  0.00     0.000 HD 
BRANCH   9  11
HETATM   11  C   UNL     1     -11.650  10.050  69.458  1.00  0.00    -0.059 A  
HETATM   12  C   UNL     1     -10.683   9.220  68.839  1.00  0.00    -0.182 A  
HETATM   13  C   UNL     1      -9.980   8.269  69.600  1.00  0.00    -0.193 A  
HETATM   14  C   UNL     1     -10.357   9.247  67.374  1.00  0.00    -0.327 C  
HETATM   15  C   UNL     1     -10.164   8.167  70.970  1.00  0.00    -0.221 A  
HETATM   16  C   UNL     1     -11.086   8.993  71.599  1.00  0.00    -0.433 A  
HETATM   17  C   UNL     1     -11.838   9.924  70.858  1.00  0.00    -0.443 A  
HETATM   18  C   UNL     1     -12.837  10.776  71.601  1.00  0.00    -0.562 C  
ENDBRANCH   9  11
ENDBRANCH   6   9
ENDBRANCH   5   6
BRANCH   5  19
HETATM   19  C   UNL     1      -9.702  12.967  67.689  1.00  0.00    -0.212 C  
HETATM   20  C   UNL     1      -8.784  12.406  66.601  1.00  0.00    -0.119 C  
ENDBRANCH   5  19
ENDBRANCH   4   5
BRANCH   4  21
HETATM   21  C   UNL     1     -12.591  13.950  65.671  1.00  0.00    -0.517 C  
HETATM   22  C   UNL     1     -12.445  12.607  64.955  1.00  0.00    -0.564 C  
ENDBRANCH   4  21
ENDBRANCH   3   4
ENDBRANCH   2   3
TORSDOF 8
ENDMDL
MODEL       64
REMARK 921   NORMALIZED FREE ENERGY PREDICTED BY IDOCK:   -4.58 KCAL/MOL
REMARK 922        TOTAL FREE ENERGY PREDICTED BY IDOCK:   -7.69 KCAL/MOL
REMARK 923 INTER-LIGAND FREE ENERGY PREDICTED BY IDOCK:   -7.10 KCAL/MOL
REMARK 924 INTRA-LIGAND FREE ENERGY PREDICTED BY IDOCK:   -0.59 KCAL/MOL
REMARK 927      BINDING AFFINITY PREDICTED BY RF-SCORE:    0.00 PKD
ROOT
HETATM    1  C   UNL     1      -9.636   9.541  64.973  1.00  0.00    -0.218 C  
HETATM    2  C   UNL     1     -10.089  10.245  66.245  1.00  0.00    -0.300 C  
ENDROOT
BRANCH   2   3
HETATM    3  C   UNL     1     -10.898  11.528  65.964  1.00  0.00    -0.276 C  
BRANCH   3   4
HETATM    4  N   UNL     1     -10.218  12.595  65.185  1.00  0.00    -0.290 NA 
BRANCH   4   5
HETATM    5  C   UNL     1     -10.010  13.848  66.011  1.00  0.00    -0.310 C  
BRANCH   5   6
HETATM    6  C   UNL     1     -11.007  13.875  67.176  1.00  0.00    -0.291 C  
HETATM    7  H   UNL     1     -12.900  14.071  67.484  1.00  0.00     0.000 HD 
HETATM    8  O   UNL     1     -12.282  14.054  66.762  1.00  0.00    -0.439 OA 
BRANCH   6   9
HETATM    9  N   UNL     1     -10.641  13.763  68.405  1.00  0.00    -0.247 NA 
HETATM   10  H   UNL     1      -9.649  13.651  68.610  1.00  0.00     0.000 HD 
BRANCH   9  11
HETATM   11  C   UNL     1     -11.556  13.790  69.487  1.00  0.00    -0.297 A  
HETATM   12  C   UNL     1     -12.095  12.633  70.104  1.00  0.00    -0.368 A  
HETATM   13  C   UNL     1     -12.914  12.758  71.240  1.00  0.00    -0.310 A  
HETATM   14  C   UNL     1     -11.884  11.233  69.608  1.00  0.00    -0.430 C  
HETATM   15  C   UNL     1     -13.158  13.994  71.818  1.00  0.00    -0.449 A  
HETATM   16  C   UNL     1     -12.614  15.136  71.244  1.00  0.00    -0.421 A  
HETATM   17  C   UNL     1     -11.827  15.049  70.080  1.00  0.00    -0.357 A  
HETATM   18  C   UNL     1     -11.285  16.330  69.498  1.00  0.00    -0.308 C  
ENDBRANCH   9  11
ENDBRANCH   6   9
ENDBRANCH   5   6
BRANCH   5  19
HETATM   19  C   UNL     1     -10.179  15.190  65.246  1.00  0.00    -0.400 C  
HETATM   20  C   UNL     1      -9.863  16.453  66.049  1.00  0.00    -0.362 C  
ENDBRANCH   5  19
ENDBRANCH   4   5
BRANCH   4  21
HETATM   21  C   UNL     1     -10.969  12.884  63.933  1.00  0.00    -0.384 C  
HETATM   22  C   UNL     1     -12.183  12.012  63.612  1.00  0.00    -0.642 C  
ENDBRANCH   4  21
ENDBRANCH   3   4
ENDBRANCH   2   3
TORSDOF 8
ENDMDL
MODEL       65
REMARK 921   NORMALIZED FREE ENERGY PREDICTED BY IDOCK:   -4.58 KCAL/MOL
REMARK 922        TOTAL FREE ENERGY PREDICTED BY IDOCK:   -7.69 KCAL/MOL
REMARK 923 INTER-LIGAND FREE ENERGY PREDICTED BY IDOCK:   -6.52 KCAL/MOL
REMARK 924 INTRA-LIGAND FREE ENERGY PREDICTED BY IDOCK:   -1.17 KCAL/MOL
REMARK 927      BINDING AFFINITY PREDICTED BY RF-SCORE:    0.00 PKD
ROOT
HETATM    1  C   UNL     1      -8.817   5.788  66.174  1.00  0.00    -0.146 C  
HETATM    2  C   UNL     1     -10.008   5.272  66.970  1.00  0.00    -0.214 C  
ENDROOT
BRANCH   2   3
HETATM    3  C   UNL     1     -11.022   6.381  67.320  1.00  0.00    -0.392 C  
BRANCH   3   4
HETATM    4  N   UNL     1     -10.861   7.048  68.637  1.00  0.00    -0.181 NA 
BRANCH   4   5
HETATM    5  C   UNL     1     -10.082   8.342  68.519  1.00  0.00    -0.197 C  
BRANCH   5   6
HETATM    6  C   UNL     1     -10.572   9.344  69.572  1.00  0.00    -0.222 C  
HETATM    7  H   UNL     1      -9.969  10.168  71.206  1.00  0.00     0.000 HD 
HETATM    8  O   UNL     1      -9.665   9.547  70.555  1.00  0.00    -0.250 OA 
BRANCH   6   9
HETATM    9  N   UNL     1     -11.733   9.897  69.516  1.00  0.00    -0.461 NA 
HETATM   10  H   UNL     1     -12.461   9.447  68.961  1.00  0.00     0.000 HD 
BRANCH   9  11
HETATM   11  C   UNL     1     -12.046  11.102  70.192  1.00  0.00    -0.362 A  
HETATM   12  C   UNL     1     -11.792  12.396  69.671  1.00  0.00    -0.380 A  
HETATM   13  C   UNL     1     -12.234  13.535  70.369  1.00  0.00    -0.426 A  
HETATM   14  C   UNL     1     -11.031  12.666  68.406  1.00  0.00    -0.284 C  
HETATM   15  C   UNL     1     -12.978  13.421  71.532  1.00  0.00    -0.429 A  
HETATM   16  C   UNL     1     -13.262  12.160  72.041  1.00  0.00    -0.496 A  
HETATM   17  C   UNL     1     -12.795  11.002  71.391  1.00  0.00    -0.548 A  
HETATM   18  C   UNL     1     -13.123   9.666  72.008  1.00  0.00    -0.537 C  
ENDBRANCH   9  11
ENDBRANCH   6   9
ENDBRANCH   5   6
BRANCH   5  19
HETATM   19  C   UNL     1     -10.176   9.057  67.143  1.00  0.00    -0.334 C  
HETATM   20  C   UNL     1      -8.981   9.937  66.771  1.00  0.00    -0.155 C  
ENDBRANCH   5  19
ENDBRANCH   4   5
BRANCH   4  21
HETATM   21  C   UNL     1     -10.233   6.120  69.617  1.00  0.00    -0.201 C  
HETATM   22  C   UNL     1     -10.987   5.841  70.918  1.00  0.00    -0.305 C  
ENDBRANCH   4  21
ENDBRANCH   3   4
ENDBRANCH   2   3
TORSDOF 8
ENDMDL
MODEL       66
REMARK 921   NORMALIZED FREE ENERGY PREDICTED BY IDOCK:   -4.58 KCAL/MOL
REMARK 922        TOTAL FREE ENERGY PREDICTED BY IDOCK:   -7.69 KCAL/MOL
REMARK 923 INTER-LIGAND FREE ENERGY PREDICTED BY IDOCK:   -6.82 KCAL/MOL
REMARK 924 INTRA-LIGAND FREE ENERGY PREDICTED BY IDOCK:   -0.87 KCAL/MOL
REMARK 927      BINDING AFFINITY PREDICTED BY RF-SCORE:    0.00 PKD
ROOT
HETATM    1  C   UNL     1     -11.051   6.132  67.976  1.00  0.00    -0.316 C  
HETATM    2  C   UNL     1     -11.228   6.227  69.485  1.00  0.00    -0.500 C  
ENDROOT
BRANCH   2   3
HETATM    3  C   UNL     1     -10.303   7.278  70.134  1.00  0.00    -0.212 C  
BRANCH   3   4
HETATM    4  N   UNL     1     -10.884   8.622  70.383  1.00  0.00    -0.225 NA 
BRANCH   4   5
HETATM    5  C   UNL     1     -10.237   9.682  69.514  1.00  0.00    -0.218 C  
BRANCH   5   6
HETATM    6  C   UNL     1     -11.140   9.995  68.315  1.00  0.00    -0.190 C  
HETATM    7  H   UNL     1     -11.344   9.501  66.463  1.00  0.00     0.000 HD 
HETATM    8  O   UNL     1     -10.785   9.307  67.206  1.00  0.00    -0.268 OA 
BRANCH   6   9
HETATM    9  N   UNL     1     -12.106  10.843  68.376  1.00  0.00    -0.818 NA 
HETATM   10  H   UNL     1     -13.063  10.491  68.382  1.00  0.00     0.000 HD 
BRANCH   9  11
HETATM   11  C   UNL     1     -11.900  12.244  68.436  1.00  0.00    -0.304 A  
HETATM   12  C   UNL     1     -11.662  13.064  67.304  1.00  0.00    -0.429 A  
HETATM   13  C   UNL     1     -11.575  14.460  67.452  1.00  0.00    -0.398 A  
HETATM   14  C   UNL     1     -11.453  12.545  65.912  1.00  0.00    -0.417 C  
HETATM   15  C   UNL     1     -11.784  15.067  68.680  1.00  0.00    -0.363 A  
HETATM   16  C   UNL     1     -12.048  14.282  69.794  1.00  0.00    -0.401 A  
HETATM   17  C   UNL     1     -12.097  12.879  69.688  1.00  0.00    -0.290 A  
HETATM   18  C   UNL     1     -12.369  12.086  70.942  1.00  0.00    -0.384 C  
ENDBRANCH   9  11
ENDBRANCH   6   9
ENDBRANCH   5   6
BRANCH   5  19
HETATM   19  C   UNL     1      -8.841   9.317  68.940  1.00  0.00    -0.135 C  
HETATM   20  C   UNL     1      -7.680  10.195  69.412  1.00  0.00    -0.138 C  
ENDBRANCH   5  19
ENDBRANCH   4   5
BRANCH   4  21
HETATM   21  C   UNL     1     -10.793   8.970  71.827  1.00  0.00    -0.367 C  
HETATM   22  C   UNL     1     -10.739   7.821  72.835  1.00  0.00    -0.446 C  
ENDBRANCH   4  21
ENDBRANCH   3   4
ENDBRANCH   2   3
TORSDOF 8
ENDMDL
MODEL       67
REMARK 921   NORMALIZED FREE ENERGY PREDICTED BY IDOCK:   -4.57 KCAL/MOL
REMARK 922        TOTAL FREE ENERGY PREDICTED BY IDOCK:   -7.69 KCAL/MOL
REMARK 923 INTER-LIGAND FREE ENERGY PREDICTED BY IDOCK:   -6.90 KCAL/MOL
REMARK 924 INTRA-LIGAND FREE ENERGY PREDICTED BY IDOCK:   -0.78 KCAL/MOL
REMARK 927      BINDING AFFINITY PREDICTED BY RF-SCORE:    0.00 PKD
ROOT
HETATM    1  C   UNL     1     -11.005   6.370  67.939  1.00  0.00    -0.416 C  
HETATM    2  C   UNL     1     -11.327   6.797  69.365  1.00  0.00    -0.255 C  
ENDROOT
BRANCH   2   3
HETATM    3  C   UNL     1     -10.446   7.965  69.855  1.00  0.00    -0.229 C  
BRANCH   3   4
HETATM    4  N   UNL     1     -11.035   9.327  69.784  1.00  0.00    -0.224 NA 
BRANCH   4   5
HETATM    5  C   UNL     1     -10.107  10.303  69.090  1.00  0.00    -0.218 C  
BRANCH   5   6
HETATM    6  C   UNL     1     -10.888  11.115  68.050  1.00  0.00    -0.225 C  
HETATM    7  H   UNL     1     -12.711  11.483  67.542  1.00  0.00     0.000 HD 
HETATM    8  O   UNL     1     -12.227  10.980  68.186  1.00  0.00    -0.578 OA 
BRANCH   6   9
HETATM    9  N   UNL     1     -10.309  11.820  67.141  1.00  0.00    -0.212 NA 
HETATM   10  H   UNL     1      -9.330  12.073  67.272  1.00  0.00     0.000 HD 
BRANCH   9  11
HETATM   11  C   UNL     1     -10.971  12.258  65.967  1.00  0.00    -0.292 A  
HETATM   12  C   UNL     1     -11.713  13.462  65.873  1.00  0.00    -0.389 A  
HETATM   13  C   UNL     1     -12.246  13.866  64.636  1.00  0.00    -0.449 A  
HETATM   14  C   UNL     1     -12.019  14.361  67.035  1.00  0.00    -0.424 C  
HETATM   15  C   UNL     1     -12.005  13.142  63.479  1.00  0.00    -0.580 A  
HETATM   16  C   UNL     1     -11.255  11.975  63.547  1.00  0.00    -0.526 A  
HETATM   17  C   UNL     1     -10.746  11.520  64.778  1.00  0.00    -0.366 A  
HETATM   18  C   UNL     1      -9.956  10.235  64.783  1.00  0.00    -0.392 C  
ENDBRANCH   9  11
ENDBRANCH   6   9
ENDBRANCH   5   6
BRANCH   5  19
HETATM   19  C   UNL     1      -8.899   9.667  68.346  1.00  0.00    -0.123 C  
HETATM   20  C   UNL     1      -7.546  10.340  68.585  1.00  0.00    -0.089 C  
ENDBRANCH   5  19
ENDBRANCH   4   5
BRANCH   4  21
HETATM   21  C   UNL     1     -11.411   9.803  71.142  1.00  0.00    -0.398 C  
HETATM   22  C   UNL     1     -12.891  10.071  71.419  1.00  0.00    -0.519 C  
ENDBRANCH   4  21
ENDBRANCH   3   4
ENDBRANCH   2   3
TORSDOF 8
ENDMDL
MODEL       68
REMARK 921   NORMALIZED FREE ENERGY PREDICTED BY IDOCK:   -4.57 KCAL/MOL
REMARK 922        TOTAL FREE ENERGY PREDICTED BY IDOCK:   -7.69 KCAL/MOL
REMARK 923 INTER-LIGAND FREE ENERGY PREDICTED BY IDOCK:   -6.90 KCAL/MOL
REMARK 924 INTRA-LIGAND FREE ENERGY PREDICTED BY IDOCK:   -0.79 KCAL/MOL
REMARK 927      BINDING AFFINITY PREDICTED BY RF-SCORE:    0.00 PKD
ROOT
HETATM    1  C   UNL     1     -10.933   6.174  68.140  1.00  0.00    -0.398 C  
HETATM    2  C   UNL     1     -11.312   6.317  69.607  1.00  0.00    -0.492 C  
ENDROOT
BRANCH   2   3
HETATM    3  C   UNL     1     -10.569   7.473  70.309  1.00  0.00    -0.229 C  
BRANCH   3   4
HETATM    4  N   UNL     1     -11.209   8.813  70.257  1.00  0.00    -0.233 NA 
BRANCH   4   5
HETATM    5  C   UNL     1     -10.358   9.812  69.498  1.00  0.00    -0.230 C  
BRANCH   5   6
HETATM    6  C   UNL     1     -11.035  10.171  68.170  1.00  0.00    -0.259 C  
HETATM    7  H   UNL     1     -10.850   9.814  66.285  1.00  0.00     0.000 HD 
HETATM    8  O   UNL     1     -10.430   9.591  67.107  1.00  0.00    -0.254 OA 
BRANCH   6   9
HETATM    9  N   UNL     1     -12.050  10.960  68.099  1.00  0.00    -0.790 NA 
HETATM   10  H   UNL     1     -12.984  10.552  68.098  1.00  0.00     0.000 HD 
BRANCH   9  11
HETATM   11  C   UNL     1     -11.926  12.370  68.024  1.00  0.00    -0.203 A  
HETATM   12  C   UNL     1     -11.884  13.228  69.151  1.00  0.00    -0.378 A  
HETATM   13  C   UNL     1     -11.652  14.604  68.980  1.00  0.00    -0.328 A  
HETATM   14  C   UNL     1     -12.108  12.779  70.565  1.00  0.00    -0.369 C  
HETATM   15  C   UNL     1     -11.395  15.140  67.728  1.00  0.00    -0.335 A  
HETATM   16  C   UNL     1     -11.403  14.309  66.615  1.00  0.00    -0.356 A  
HETATM   17  C   UNL     1     -11.676  12.934  66.747  1.00  0.00    -0.445 A  
HETATM   18  C   UNL     1     -11.688  12.093  65.496  1.00  0.00    -0.384 C  
ENDBRANCH   9  11
ENDBRANCH   6   9
ENDBRANCH   5   6
BRANCH   5  19
HETATM   19  C   UNL     1      -8.918   9.339  69.153  1.00  0.00    -0.144 C  
HETATM   20  C   UNL     1      -7.835   9.729  70.160  1.00  0.00    -0.196 C  
ENDBRANCH   5  19
ENDBRANCH   4   5
BRANCH   4  21
HETATM   21  C   UNL     1     -11.523   9.295  71.629  1.00  0.00    -0.398 C  
HETATM   22  C   UNL     1     -12.906   8.977  72.198  1.00  0.00    -0.478 C  
ENDBRANCH   4  21
ENDBRANCH   3   4
ENDBRANCH   2   3
TORSDOF 8
ENDMDL
MODEL       69
REMARK 921   NORMALIZED FREE ENERGY PREDICTED BY IDOCK:   -4.56 KCAL/MOL
REMARK 922        TOTAL FREE ENERGY PREDICTED BY IDOCK:   -7.67 KCAL/MOL
REMARK 923 INTER-LIGAND FREE ENERGY PREDICTED BY IDOCK:   -7.23 KCAL/MOL
REMARK 924 INTRA-LIGAND FREE ENERGY PREDICTED BY IDOCK:   -0.45 KCAL/MOL
REMARK 927      BINDING AFFINITY PREDICTED BY RF-SCORE:    0.00 PKD
ROOT
HETATM    1  C   UNL     1     -12.208  11.979  63.556  1.00  0.00    -0.653 C  
HETATM    2  C   UNL     1     -10.772  12.424  63.792  1.00  0.00    -0.492 C  
ENDROOT
BRANCH   2   3
HETATM    3  C   UNL     1     -10.674  13.734  64.603  1.00  0.00    -0.414 C  
BRANCH   3   4
HETATM    4  N   UNL     1      -9.936  13.674  65.890  1.00  0.00    -0.303 NA 
BRANCH   4   5
HETATM    5  C   UNL     1     -10.456  12.567  66.785  1.00  0.00    -0.225 C  
BRANCH   5   6
HETATM    6  C   UNL     1     -11.272  13.168  67.936  1.00  0.00    -0.270 C  
HETATM    7  H   UNL     1     -12.977  14.013  68.242  1.00  0.00     0.000 HD 
HETATM    8  O   UNL     1     -12.472  13.641  67.529  1.00  0.00    -0.171 OA 
BRANCH   6   9
HETATM    9  N   UNL     1     -10.830  13.225  69.144  1.00  0.00    -0.423 NA 
HETATM   10  H   UNL     1      -9.822  13.192  69.295  1.00  0.00     0.000 HD 
BRANCH   9  11
HETATM   11  C   UNL     1     -11.681  13.334  70.271  1.00  0.00    -0.143 A  
HETATM   12  C   UNL     1     -12.118  14.564  70.824  1.00  0.00    -0.398 A  
HETATM   13  C   UNL     1     -13.048  14.570  71.880  1.00  0.00    -0.427 A  
HETATM   14  C   UNL     1     -11.628  15.912  70.384  1.00  0.00    -0.387 C  
HETATM   15  C   UNL     1     -13.604  13.393  72.355  1.00  0.00    -0.708 A  
HETATM   16  C   UNL     1     -13.209  12.180  71.805  1.00  0.00    -0.423 A  
HETATM   17  C   UNL     1     -12.247  12.137  70.778  1.00  0.00    -0.367 A  
HETATM   18  C   UNL     1     -11.850  10.785  70.240  1.00  0.00    -0.438 C  
ENDBRANCH   9  11
ENDBRANCH   6   9
ENDBRANCH   5   6
BRANCH   5  19
HETATM   19  C   UNL     1      -9.371  11.661  67.430  1.00  0.00    -0.168 C  
HETATM   20  C   UNL     1      -7.923  12.031  67.109  1.00  0.00    -0.175 C  
ENDBRANCH   5  19
ENDBRANCH   4   5
BRANCH   4  21
HETATM   21  C   UNL     1      -9.975  14.994  66.576  1.00  0.00    -0.263 C  
HETATM   22  C   UNL     1      -8.843  15.981  66.288  1.00  0.00    -0.379 C  
ENDBRANCH   4  21
ENDBRANCH   3   4
ENDBRANCH   2   3
TORSDOF 8
ENDMDL
MODEL       70
REMARK 921   NORMALIZED FREE ENERGY PREDICTED BY IDOCK:   -4.56 KCAL/MOL
REMARK 922        TOTAL FREE ENERGY PREDICTED BY IDOCK:   -7.67 KCAL/MOL
REMARK 923 INTER-LIGAND FREE ENERGY PREDICTED BY IDOCK:   -6.68 KCAL/MOL
REMARK 924 INTRA-LIGAND FREE ENERGY PREDICTED BY IDOCK:   -0.99 KCAL/MOL
REMARK 927      BINDING AFFINITY PREDICTED BY RF-SCORE:    0.00 PKD
ROOT
HETATM    1  C   UNL     1     -10.005   9.653  69.669  1.00  0.00    -0.239 C  
HETATM    2  C   UNL     1     -10.326   9.313  68.220  1.00  0.00    -0.257 C  
ENDROOT
BRANCH   2   3
HETATM    3  C   UNL     1      -9.962  10.450  67.242  1.00  0.00    -0.188 C  
BRANCH   3   4
HETATM    4  N   UNL     1      -9.474  11.720  67.839  1.00  0.00    -0.184 NA 
BRANCH   4   5
HETATM    5  C   UNL     1     -10.305  12.906  67.392  1.00  0.00    -0.233 C  
BRANCH   5   6
HETATM    6  C   UNL     1     -11.377  13.216  68.442  1.00  0.00    -0.289 C  
HETATM    7  H   UNL     1     -13.198  13.841  68.541  1.00  0.00     0.000 HD 
HETATM    8  O   UNL     1     -12.534  13.649  67.889  1.00  0.00    -0.099 OA 
BRANCH   6   9
HETATM    9  N   UNL     1     -11.166  13.095  69.706  1.00  0.00    -0.488 NA 
HETATM   10  H   UNL     1     -10.377  12.529  70.017  1.00  0.00     0.000 HD 
BRANCH   9  11
HETATM   11  C   UNL     1     -11.983  13.713  70.686  1.00  0.00    -0.252 A  
HETATM   12  C   UNL     1     -12.100  15.115  70.857  1.00  0.00    -0.388 A  
HETATM   13  C   UNL     1     -13.017  15.637  71.787  1.00  0.00    -0.541 A  
HETATM   14  C   UNL     1     -11.272  16.130  70.124  1.00  0.00    -0.374 C  
HETATM   15  C   UNL     1     -13.865  14.808  72.503  1.00  0.00    -0.561 A  
HETATM   16  C   UNL     1     -13.785  13.432  72.327  1.00  0.00    -0.705 A  
HETATM   17  C   UNL     1     -12.846  12.876  71.437  1.00  0.00    -0.377 A  
HETATM   18  C   UNL     1     -12.799  11.374  71.309  1.00  0.00    -0.481 C  
ENDBRANCH   9  11
ENDBRANCH   6   9
ENDBRANCH   5   6
BRANCH   5  19
HETATM   19  C   UNL     1     -11.044  12.733  66.036  1.00  0.00    -0.315 C  
HETATM   20  C   UNL     1     -10.607  13.682  64.918  1.00  0.00    -0.421 C  
ENDBRANCH   5  19
ENDBRANCH   4   5
BRANCH   4  21
HETATM   21  C   UNL     1      -8.031  11.918  67.533  1.00  0.00    -0.155 C  
HETATM   22  C   UNL     1      -7.509  13.353  67.453  1.00  0.00    -0.134 C  
ENDBRANCH   4  21
ENDBRANCH   3   4
ENDBRANCH   2   3
TORSDOF 8
ENDMDL
MODEL       71
REMARK 921   NORMALIZED FREE ENERGY PREDICTED BY IDOCK:   -4.56 KCAL/MOL
REMARK 922        TOTAL FREE ENERGY PREDICTED BY IDOCK:   -7.67 KCAL/MOL
REMARK 923 INTER-LIGAND FREE ENERGY PREDICTED BY IDOCK:   -6.43 KCAL/MOL
REMARK 924 INTRA-LIGAND FREE ENERGY PREDICTED BY IDOCK:   -1.23 KCAL/MOL
REMARK 927      BINDING AFFINITY PREDICTED BY RF-SCORE:    0.00 PKD
ROOT
HETATM    1  C   UNL     1     -10.205   7.559  66.897  1.00  0.00    -0.359 C  
HETATM    2  C   UNL     1      -9.889   8.867  67.610  1.00  0.00    -0.229 C  
ENDROOT
BRANCH   2   3
HETATM    3  C   UNL     1      -9.206   9.901  66.691  1.00  0.00    -0.153 C  
BRANCH   3   4
HETATM    4  N   UNL     1      -9.411  11.335  67.024  1.00  0.00    -0.170 NA 
BRANCH   4   5
HETATM    5  C   UNL     1     -10.322  12.018  66.026  1.00  0.00    -0.238 C  
BRANCH   5   6
HETATM    6  C   UNL     1     -11.600  12.494  66.727  1.00  0.00    -0.382 C  
HETATM    7  H   UNL     1     -12.952  11.824  67.927  1.00  0.00     0.000 HD 
HETATM    8  O   UNL     1     -12.161  11.529  67.493  1.00  0.00    -0.614 OA 
BRANCH   6   9
HETATM    9  N   UNL     1     -12.080  13.678  66.568  1.00  0.00    -0.421 NA 
HETATM   10  H   UNL     1     -12.894  13.797  65.966  1.00  0.00     0.000 HD 
BRANCH   9  11
HETATM   11  C   UNL     1     -11.527  14.823  67.193  1.00  0.00    -0.364 A  
HETATM   12  C   UNL     1     -11.542  15.053  68.592  1.00  0.00    -0.347 A  
HETATM   13  C   UNL     1     -10.874  16.168  69.130  1.00  0.00    -0.298 A  
HETATM   14  C   UNL     1     -12.267  14.192  69.584  1.00  0.00    -0.376 C  
HETATM   15  C   UNL     1     -10.138  17.022  68.324  1.00  0.00    -0.306 A  
HETATM   16  C   UNL     1     -10.087  16.795  66.955  1.00  0.00    -0.286 A  
HETATM   17  C   UNL     1     -10.782  15.714  66.380  1.00  0.00    -0.291 A  
HETATM   18  C   UNL     1     -10.700  15.537  64.885  1.00  0.00    -0.415 C  
ENDBRANCH   9  11
ENDBRANCH   6   9
ENDBRANCH   5   6
BRANCH   5  19
HETATM   19  C   UNL     1     -10.771  11.145  64.822  1.00  0.00    -0.334 C  
HETATM   20  C   UNL     1     -10.349  11.652  63.442  1.00  0.00    -0.482 C  
ENDBRANCH   5  19
ENDBRANCH   4   5
BRANCH   4  21
HETATM   21  C   UNL     1      -8.102  12.035  67.138  1.00  0.00    -0.177 C  
HETATM   22  C   UNL     1      -8.118  13.521  67.496  1.00  0.00    -0.190 C  
ENDBRANCH   4  21
ENDBRANCH   3   4
ENDBRANCH   2   3
TORSDOF 8
ENDMDL
MODEL       72
REMARK 921   NORMALIZED FREE ENERGY PREDICTED BY IDOCK:   -4.55 KCAL/MOL
REMARK 922        TOTAL FREE ENERGY PREDICTED BY IDOCK:   -7.65 KCAL/MOL
REMARK 923 INTER-LIGAND FREE ENERGY PREDICTED BY IDOCK:   -6.51 KCAL/MOL
REMARK 924 INTRA-LIGAND FREE ENERGY PREDICTED BY IDOCK:   -1.15 KCAL/MOL
REMARK 927      BINDING AFFINITY PREDICTED BY RF-SCORE:    0.00 PKD
ROOT
HETATM    1  C   UNL     1      -9.356   5.173  69.836  1.00  0.00    -0.196 C  
HETATM    2  C   UNL     1     -10.731   5.795  69.642  1.00  0.00    -0.416 C  
ENDROOT
BRANCH   2   3
HETATM    3  C   UNL     1     -10.670   7.312  69.365  1.00  0.00    -0.225 C  
BRANCH   3   4
HETATM    4  N   UNL     1     -11.478   8.190  70.249  1.00  0.00    -0.141 NA 
BRANCH   4   5
HETATM    5  C   UNL     1     -10.720   9.442  70.643  1.00  0.00    -0.290 C  
BRANCH   5   6
HETATM    6  C   UNL     1     -11.385  10.673  70.016  1.00  0.00    -0.324 C  
HETATM    7  H   UNL     1     -13.143  11.423  69.765  1.00  0.00     0.000 HD 
HETATM    8  O   UNL     1     -12.731  10.659  70.153  1.00  0.00    -0.308 OA 
BRANCH   6   9
HETATM    9  N   UNL     1     -10.716  11.591  69.411  1.00  0.00    -0.427 NA 
HETATM   10  H   UNL     1      -9.885  11.968  69.866  1.00  0.00     0.000 HD 
BRANCH   9  11
HETATM   11  C   UNL     1     -11.083  12.100  68.141  1.00  0.00    -0.248 A  
HETATM   12  C   UNL     1     -10.972  11.374  66.928  1.00  0.00    -0.355 A  
HETATM   13  C   UNL     1     -11.461  11.925  65.730  1.00  0.00    -0.326 A  
HETATM   14  C   UNL     1     -10.321  10.028  66.804  1.00  0.00    -0.283 C  
HETATM   15  C   UNL     1     -12.115  13.147  65.715  1.00  0.00    -0.502 A  
HETATM   16  C   UNL     1     -12.259  13.859  66.899  1.00  0.00    -0.415 A  
HETATM   17  C   UNL     1     -11.741  13.356  68.107  1.00  0.00    -0.397 A  
HETATM   18  C   UNL     1     -11.915  14.190  69.351  1.00  0.00    -0.382 C  
ENDBRANCH   9  11
ENDBRANCH   6   9
ENDBRANCH   5   6
BRANCH   5  19
HETATM   19  C   UNL     1      -9.224   9.478  70.222  1.00  0.00    -0.303 C  
HETATM   20  C   UNL     1      -8.239   8.881  71.227  1.00  0.00    -0.207 C  
ENDBRANCH   5  19
ENDBRANCH   4   5
BRANCH   4  21
HETATM   21  C   UNL     1     -11.945   7.436  71.445  1.00  0.00    -0.310 C  
HETATM   22  C   UNL     1     -11.408   7.864  72.812  1.00  0.00    -0.453 C  
ENDBRANCH   4  21
ENDBRANCH   3   4
ENDBRANCH   2   3
TORSDOF 8
ENDMDL
MODEL       73
REMARK 921   NORMALIZED FREE ENERGY PREDICTED BY IDOCK:   -4.55 KCAL/MOL
REMARK 922        TOTAL FREE ENERGY PREDICTED BY IDOCK:   -7.65 KCAL/MOL
REMARK 923 INTER-LIGAND FREE ENERGY PREDICTED BY IDOCK:   -7.26 KCAL/MOL
REMARK 924 INTRA-LIGAND FREE ENERGY PREDICTED BY IDOCK:   -0.39 KCAL/MOL
REMARK 927      BINDING AFFINITY PREDICTED BY RF-SCORE:    0.00 PKD
ROOT
HETATM    1  C   UNL     1     -11.631  13.558  64.359  1.00  0.00    -0.429 C  
HETATM    2  C   UNL     1     -10.625  14.504  64.998  1.00  0.00    -0.458 C  
ENDROOT
BRANCH   2   3
HETATM    3  C   UNL     1     -11.128  15.107  66.327  1.00  0.00    -0.309 C  
BRANCH   3   4
HETATM    4  N   UNL     1     -10.169  15.949  67.088  1.00  0.00    -0.272 NA 
BRANCH   4   5
HETATM    5  C   UNL     1      -9.877  15.368  68.457  1.00  0.00    -0.207 C  
BRANCH   5   6
HETATM    6  C   UNL     1     -11.066  15.614  69.392  1.00  0.00    -0.303 C  
HETATM    7  H   UNL     1     -11.540  16.705  70.909  1.00  0.00     0.000 HD 
HETATM    8  O   UNL     1     -10.802  16.553  70.330  1.00  0.00    -0.294 OA 
BRANCH   6   9
HETATM    9  N   UNL     1     -12.174  14.966  69.292  1.00  0.00    -0.545 NA 
HETATM   10  H   UNL     1     -12.862  15.281  68.609  1.00  0.00     0.000 HD 
BRANCH   9  11
HETATM   11  C   UNL     1     -12.480  13.834  70.087  1.00  0.00    -0.267 A  
HETATM   12  C   UNL     1     -11.930  12.543  69.882  1.00  0.00    -0.371 A  
HETATM   13  C   UNL     1     -12.211  11.506  70.789  1.00  0.00    -0.463 A  
HETATM   14  C   UNL     1     -11.066  12.167  68.714  1.00  0.00    -0.297 C  
HETATM   15  C   UNL     1     -12.968  11.732  71.927  1.00  0.00    -0.435 A  
HETATM   16  C   UNL     1     -13.490  12.997  72.160  1.00  0.00    -0.638 A  
HETATM   17  C   UNL     1     -13.265  14.046  71.249  1.00  0.00    -0.373 A  
HETATM   18  C   UNL     1     -13.877  15.390  71.553  1.00  0.00    -0.599 C  
ENDBRANCH   9  11
ENDBRANCH   6   9
ENDBRANCH   5   6
BRANCH   5  19
HETATM   19  C   UNL     1      -8.620  15.938  69.171  1.00  0.00    -0.252 C  
HETATM   20  C   UNL     1      -7.519  14.923  69.485  1.00  0.00    -0.162 C  
ENDBRANCH   5  19
ENDBRANCH   4   5
BRANCH   4  21
HETATM   21  C   UNL     1     -10.667  17.348  67.184  1.00  0.00    -0.188 C  
HETATM   22  C   UNL     1      -9.966  18.414  66.340  1.00  0.00    -0.399 C  
ENDBRANCH   4  21
ENDBRANCH   3   4
ENDBRANCH   2   3
TORSDOF 8
ENDMDL
MODEL       74
REMARK 921   NORMALIZED FREE ENERGY PREDICTED BY IDOCK:   -4.55 KCAL/MOL
REMARK 922        TOTAL FREE ENERGY PREDICTED BY IDOCK:   -7.65 KCAL/MOL
REMARK 923 INTER-LIGAND FREE ENERGY PREDICTED BY IDOCK:   -7.25 KCAL/MOL
REMARK 924 INTRA-LIGAND FREE ENERGY PREDICTED BY IDOCK:   -0.39 KCAL/MOL
REMARK 927      BINDING AFFINITY PREDICTED BY RF-SCORE:    0.00 PKD
ROOT
HETATM    1  C   UNL     1     -14.095   8.761  72.432  1.00  0.00    -0.485 C  
HETATM    2  C   UNL     1     -13.633   9.540  71.209  1.00  0.00    -0.298 C  
ENDROOT
BRANCH   2   3
HETATM    3  C   UNL     1     -12.933  10.868  71.572  1.00  0.00    -0.451 C  
BRANCH   3   4
HETATM    4  N   UNL     1     -11.800  11.287  70.708  1.00  0.00    -0.277 NA 
BRANCH   4   5
HETATM    5  C   UNL     1     -12.156  12.493  69.862  1.00  0.00    -0.252 C  
BRANCH   5   6
HETATM    6  C   UNL     1     -11.455  12.401  68.501  1.00  0.00    -0.306 C  
HETATM    7  H   UNL     1      -9.794  12.914  67.668  1.00  0.00     0.000 HD 
HETATM    8  O   UNL     1     -10.228  12.972  68.511  1.00  0.00    -0.241 OA 
BRANCH   6   9
HETATM    9  N   UNL     1     -12.005  11.857  67.472  1.00  0.00    -0.588 NA 
HETATM   10  H   UNL     1     -12.904  11.391  67.590  1.00  0.00     0.000 HD 
BRANCH   9  11
HETATM   11  C   UNL     1     -11.417  11.878  66.183  1.00  0.00    -0.288 A  
HETATM   12  C   UNL     1     -10.494  10.911  65.712  1.00  0.00    -0.275 A  
HETATM   13  C   UNL     1     -10.045  10.955  64.380  1.00  0.00    -0.402 A  
HETATM   14  C   UNL     1      -9.905   9.820  66.558  1.00  0.00    -0.286 C  
HETATM   15  C   UNL     1     -10.539  11.893  63.487  1.00  0.00    -0.507 A  
HETATM   16  C   UNL     1     -11.467  12.830  63.923  1.00  0.00    -0.505 A  
HETATM   17  C   UNL     1     -11.901  12.840  65.261  1.00  0.00    -0.442 A  
HETATM   18  C   UNL     1     -12.895  13.898  65.673  1.00  0.00    -0.467 C  
ENDBRANCH   9  11
ENDBRANCH   6   9
ENDBRANCH   5   6
BRANCH   5  19
HETATM   19  C   UNL     1     -11.776  13.872  70.468  1.00  0.00    -0.231 C  
HETATM   20  C   UNL     1     -12.920  14.880  70.589  1.00  0.00    -0.389 C  
ENDBRANCH   5  19
ENDBRANCH   4   5
BRANCH   4  21
HETATM   21  C   UNL     1     -11.336  10.149  69.869  1.00  0.00    -0.275 C  
HETATM   22  C   UNL     1     -10.040   9.445  70.275  1.00  0.00    -0.288 C  
ENDBRANCH   4  21
ENDBRANCH   3   4
ENDBRANCH   2   3
TORSDOF 8
ENDMDL
MODEL       75
REMARK 921   NORMALIZED FREE ENERGY PREDICTED BY IDOCK:   -4.54 KCAL/MOL
REMARK 922        TOTAL FREE ENERGY PREDICTED BY IDOCK:   -7.64 KCAL/MOL
REMARK 923 INTER-LIGAND FREE ENERGY PREDICTED BY IDOCK:   -6.98 KCAL/MOL
REMARK 924 INTRA-LIGAND FREE ENERGY PREDICTED BY IDOCK:   -0.66 KCAL/MOL
REMARK 927      BINDING AFFINITY PREDICTED BY RF-SCORE:    0.00 PKD
ROOT
HETATM    1  C   UNL     1      -6.907  19.940  66.216  1.00  0.00    -0.242 C  
HETATM    2  C   UNL     1      -7.159  20.422  67.638  1.00  0.00    -0.345 C  
ENDROOT
BRANCH   2   3
HETATM    3  C   UNL     1      -8.076  19.473  68.439  1.00  0.00    -0.342 C  
BRANCH   3   4
HETATM    4  N   UNL     1      -8.300  18.118  67.873  1.00  0.00    -0.245 NA 
BRANCH   4   5
HETATM    5  C   UNL     1      -9.774  17.824  67.686  1.00  0.00    -0.282 C  
BRANCH   5   6
HETATM    6  C   UNL     1      -9.964  16.802  66.559  1.00  0.00    -0.298 C  
HETATM    7  H   UNL     1      -9.021  16.120  65.023  1.00  0.00     0.000 HD 
HETATM    8  O   UNL     1      -8.903  16.753  65.721  1.00  0.00    -0.505 OA 
BRANCH   6   9
HETATM    9  N   UNL     1     -11.035  16.100  66.432  1.00  0.00    -0.123 NA 
HETATM   10  H   UNL     1     -11.814  16.490  65.902  1.00  0.00     0.000 HD 
BRANCH   9  11
HETATM   11  C   UNL     1     -11.181  14.808  66.997  1.00  0.00    -0.345 A  
HETATM   12  C   UNL     1     -11.555  14.564  68.342  1.00  0.00    -0.356 A  
HETATM   13  C   UNL     1     -11.777  13.247  68.783  1.00  0.00    -0.366 A  
HETATM   14  C   UNL     1     -11.706  15.631  69.386  1.00  0.00    -0.395 C  
HETATM   15  C   UNL     1     -11.704  12.174  67.908  1.00  0.00    -0.403 A  
HETATM   16  C   UNL     1     -11.368  12.398  66.579  1.00  0.00    -0.392 A  
HETATM   17  C   UNL     1     -11.095  13.699  66.117  1.00  0.00    -0.299 A  
HETATM   18  C   UNL     1     -10.717  13.869  64.667  1.00  0.00    -0.422 C  
ENDBRANCH   9  11
ENDBRANCH   6   9
ENDBRANCH   5   6
BRANCH   5  19
HETATM   19  C   UNL     1     -10.662  19.050  67.333  1.00  0.00    -0.559 C  
HETATM   20  C   UNL     1     -10.535  19.568  65.900  1.00  0.00    -0.585 C  
ENDBRANCH   5  19
ENDBRANCH   4   5
BRANCH   4  21
HETATM   21  C   UNL     1      -7.640  17.085  68.717  1.00  0.00    -0.243 C  
HETATM   22  C   UNL     1      -6.369  17.484  69.468  1.00  0.00    -0.230 C  
ENDBRANCH   4  21
ENDBRANCH   3   4
ENDBRANCH   2   3
TORSDOF 8
ENDMDL
MODEL       76
REMARK 921   NORMALIZED FREE ENERGY PREDICTED BY IDOCK:   -4.52 KCAL/MOL
REMARK 922        TOTAL FREE ENERGY PREDICTED BY IDOCK:   -7.60 KCAL/MOL
REMARK 923 INTER-LIGAND FREE ENERGY PREDICTED BY IDOCK:   -7.12 KCAL/MOL
REMARK 924 INTRA-LIGAND FREE ENERGY PREDICTED BY IDOCK:   -0.48 KCAL/MOL
REMARK 927      BINDING AFFINITY PREDICTED BY RF-SCORE:    0.00 PKD
ROOT
HETATM    1  C   UNL     1      -8.676   9.854  64.862  1.00  0.00    -0.198 C  
HETATM    2  C   UNL     1      -9.503  10.736  63.936  1.00  0.00    -0.312 C  
ENDROOT
BRANCH   2   3
HETATM    3  C   UNL     1     -10.472  11.664  64.698  1.00  0.00    -0.302 C  
BRANCH   3   4
HETATM    4  N   UNL     1     -10.671  13.028  64.144  1.00  0.00    -0.408 NA 
BRANCH   4   5
HETATM    5  C   UNL     1     -10.458  14.097  65.196  1.00  0.00    -0.402 C  
BRANCH   5   6
HETATM    6  C   UNL     1     -11.180  13.706  66.491  1.00  0.00    -0.310 C  
HETATM    7  H   UNL     1     -12.968  13.623  67.207  1.00  0.00     0.000 HD 
HETATM    8  O   UNL     1     -12.521  13.866  66.405  1.00  0.00    -0.441 OA 
BRANCH   6   9
HETATM    9  N   UNL     1     -10.554  13.298  67.539  1.00  0.00    -0.244 NA 
HETATM   10  H   UNL     1      -9.560  13.083  67.459  1.00  0.00     0.000 HD 
BRANCH   9  11
HETATM   11  C   UNL     1     -11.183  13.134  68.798  1.00  0.00    -0.281 A  
HETATM   12  C   UNL     1     -11.585  14.206  69.634  1.00  0.00    -0.349 A  
HETATM   13  C   UNL     1     -12.299  13.946  70.817  1.00  0.00    -0.449 A  
HETATM   14  C   UNL     1     -11.271  15.649  69.369  1.00  0.00    -0.313 C  
HETATM   15  C   UNL     1     -12.681  12.658  71.158  1.00  0.00    -0.347 A  
HETATM   16  C   UNL     1     -12.321  11.599  70.336  1.00  0.00    -0.373 A  
HETATM   17  C   UNL     1     -11.568  11.820  69.168  1.00  0.00    -0.372 A  
HETATM   18  C   UNL     1     -11.195  10.623  68.330  1.00  0.00    -0.347 C  
ENDBRANCH   9  11
ENDBRANCH   6   9
ENDBRANCH   5   6
BRANCH   5  19
HETATM   19  C   UNL     1     -10.958  15.519  64.817  1.00  0.00    -0.416 C  
HETATM   20  C   UNL     1     -10.388  16.666  65.653  1.00  0.00    -0.310 C  
ENDBRANCH   5  19
ENDBRANCH   4   5
BRANCH   4  21
HETATM   21  C   UNL     1     -12.014  13.143  63.513  1.00  0.00    -0.513 C  
HETATM   22  C   UNL     1     -12.891  11.891  63.470  1.00  0.00    -0.435 C  
ENDBRANCH   4  21
ENDBRANCH   3   4
ENDBRANCH   2   3
TORSDOF 8
ENDMDL
MODEL       77
REMARK 921   NORMALIZED FREE ENERGY PREDICTED BY IDOCK:   -4.50 KCAL/MOL
REMARK 922        TOTAL FREE ENERGY PREDICTED BY IDOCK:   -7.58 KCAL/MOL
REMARK 923 INTER-LIGAND FREE ENERGY PREDICTED BY IDOCK:   -6.43 KCAL/MOL
REMARK 924 INTRA-LIGAND FREE ENERGY PREDICTED BY IDOCK:   -1.15 KCAL/MOL
REMARK 927      BINDING AFFINITY PREDICTED BY RF-SCORE:    0.00 PKD
ROOT
HETATM    1  C   UNL     1     -13.718   9.848  71.652  1.00  0.00    -0.243 C  
HETATM    2  C   UNL     1     -14.043   8.382  71.902  1.00  0.00    -0.516 C  
ENDROOT
BRANCH   2   3
HETATM    3  C   UNL     1     -12.812   7.462  71.764  1.00  0.00    -0.329 C  
BRANCH   3   4
HETATM    4  N   UNL     1     -11.478   8.097  71.918  1.00  0.00    -0.280 NA 
BRANCH   4   5
HETATM    5  C   UNL     1     -10.588   7.831  70.721  1.00  0.00    -0.218 C  
BRANCH   5   6
HETATM    6  C   UNL     1     -10.473   9.098  69.865  1.00  0.00    -0.223 C  
HETATM    7  H   UNL     1      -9.322  10.631  69.660  1.00  0.00     0.000 HD 
HETATM    8  O   UNL     1      -9.393   9.846  70.190  1.00  0.00    -0.234 OA 
BRANCH   6   9
HETATM    9  N   UNL     1     -11.337   9.407  68.962  1.00  0.00    -0.441 NA 
HETATM   10  H   UNL     1     -12.273   9.009  69.027  1.00  0.00     0.000 HD 
BRANCH   9  11
HETATM   11  C   UNL     1     -11.043  10.274  67.880  1.00  0.00    -0.276 A  
HETATM   12  C   UNL     1     -11.223  11.680  67.914  1.00  0.00    -0.334 A  
HETATM   13  C   UNL     1     -10.804  12.470  66.828  1.00  0.00    -0.281 A  
HETATM   14  C   UNL     1     -11.879  12.422  69.041  1.00  0.00    -0.349 C  
HETATM   15  C   UNL     1     -10.152  11.909  65.741  1.00  0.00    -0.272 A  
HETATM   16  C   UNL     1      -9.941  10.537  65.704  1.00  0.00    -0.332 A  
HETATM   17  C   UNL     1     -10.389   9.713  66.754  1.00  0.00    -0.292 A  
HETATM   18  C   UNL     1     -10.145   8.229  66.640  1.00  0.00    -0.351 C  
ENDBRANCH   9  11
ENDBRANCH   6   9
ENDBRANCH   5   6
BRANCH   5  19
HETATM   19  C   UNL     1     -11.062   6.694  69.774  1.00  0.00    -0.398 C  
HETATM   20  C   UNL     1     -10.234   5.408  69.819  1.00  0.00    -0.348 C  
ENDBRANCH   5  19
ENDBRANCH   4   5
BRANCH   4  21
HETATM   21  C   UNL     1     -10.834   7.655  73.185  1.00  0.00    -0.382 C  
HETATM   22  C   UNL     1      -9.322   7.836  73.318  1.00  0.00    -0.331 C  
ENDBRANCH   4  21
ENDBRANCH   3   4
ENDBRANCH   2   3
TORSDOF 8
ENDMDL
MODEL       78
REMARK 921   NORMALIZED FREE ENERGY PREDICTED BY IDOCK:   -4.50 KCAL/MOL
REMARK 922        TOTAL FREE ENERGY PREDICTED BY IDOCK:   -7.57 KCAL/MOL
REMARK 923 INTER-LIGAND FREE ENERGY PREDICTED BY IDOCK:   -6.49 KCAL/MOL
REMARK 924 INTRA-LIGAND FREE ENERGY PREDICTED BY IDOCK:   -1.08 KCAL/MOL
REMARK 927      BINDING AFFINITY PREDICTED BY RF-SCORE:    0.00 PKD
ROOT
HETATM    1  C   UNL     1      -6.401  20.410  64.529  1.00  0.00    -0.332 C  
HETATM    2  C   UNL     1      -5.848  19.684  65.747  1.00  0.00    -0.188 C  
ENDROOT
BRANCH   2   3
HETATM    3  C   UNL     1      -6.651  18.416  66.107  1.00  0.00    -0.237 C  
BRANCH   3   4
HETATM    4  N   UNL     1      -6.960  18.201  67.544  1.00  0.00    -0.196 NA 
BRANCH   4   5
HETATM    5  C   UNL     1      -8.412  18.502  67.857  1.00  0.00    -0.275 C  
BRANCH   5   6
HETATM    6  C   UNL     1      -9.074  17.273  68.492  1.00  0.00    -0.269 C  
HETATM    7  H   UNL     1      -8.583  15.659  69.424  1.00  0.00     0.000 HD 
HETATM    8  O   UNL     1      -8.173  16.420  69.031  1.00  0.00    -0.229 OA 
BRANCH   6   9
HETATM    9  N   UNL     1     -10.347  17.085  68.477  1.00  0.00    -0.336 NA 
HETATM   10  H   UNL     1     -10.959  17.891  68.599  1.00  0.00     0.000 HD 
BRANCH   9  11
HETATM   11  C   UNL     1     -10.936  15.809  68.299  1.00  0.00    -0.325 A  
HETATM   12  C   UNL     1     -10.964  15.109  67.066  1.00  0.00    -0.322 A  
HETATM   13  C   UNL     1     -11.477  13.801  67.011  1.00  0.00    -0.368 A  
HETATM   14  C   UNL     1     -10.505  15.681  65.757  1.00  0.00    -0.383 C  
HETATM   15  C   UNL     1     -11.900  13.146  68.156  1.00  0.00    -0.386 A  
HETATM   16  C   UNL     1     -11.853  13.805  69.377  1.00  0.00    -0.392 A  
HETATM   17  C   UNL     1     -11.387  15.131  69.459  1.00  0.00    -0.301 A  
HETATM   18  C   UNL     1     -11.380  15.794  70.814  1.00  0.00    -0.419 C  
ENDBRANCH   9  11
ENDBRANCH   6   9
ENDBRANCH   5   6
BRANCH   5  19
HETATM   19  C   UNL     1      -9.290  18.905  66.640  1.00  0.00    -0.348 C  
HETATM   20  C   UNL     1      -9.967  20.273  66.736  1.00  0.00    -0.587 C  
ENDBRANCH   5  19
ENDBRANCH   4   5
BRANCH   4  21
HETATM   21  C   UNL     1      -6.040  18.999  68.399  1.00  0.00    -0.220 C  
HETATM   22  C   UNL     1      -6.644  19.756  69.583  1.00  0.00    -0.378 C  
ENDBRANCH   4  21
ENDBRANCH   3   4
ENDBRANCH   2   3
TORSDOF 8
ENDMDL
MODEL       79
REMARK 921   NORMALIZED FREE ENERGY PREDICTED BY IDOCK:   -4.50 KCAL/MOL
REMARK 922        TOTAL FREE ENERGY PREDICTED BY IDOCK:   -7.57 KCAL/MOL
REMARK 923 INTER-LIGAND FREE ENERGY PREDICTED BY IDOCK:   -6.96 KCAL/MOL
REMARK 924 INTRA-LIGAND FREE ENERGY PREDICTED BY IDOCK:   -0.61 KCAL/MOL
REMARK 927      BINDING AFFINITY PREDICTED BY RF-SCORE:    0.00 PKD
ROOT
HETATM    1  C   UNL     1     -13.333   9.186  72.076  1.00  0.00    -0.507 C  
HETATM    2  C   UNL     1     -12.135   9.959  71.543  1.00  0.00    -0.496 C  
ENDROOT
BRANCH   2   3
HETATM    3  C   UNL     1     -11.124   9.061  70.798  1.00  0.00    -0.272 C  
BRANCH   3   4
HETATM    4  N   UNL     1     -10.020   9.747  70.078  1.00  0.00    -0.242 NA 
BRANCH   4   5
HETATM    5  C   UNL     1     -10.098   9.516  68.582  1.00  0.00    -0.181 C  
BRANCH   5   6
HETATM    6  C   UNL     1     -10.829  10.684  67.911  1.00  0.00    -0.277 C  
HETATM    7  H   UNL     1     -12.583  11.482  67.858  1.00  0.00     0.000 HD 
HETATM    8  O   UNL     1     -12.130  10.758  68.274  1.00  0.00    -0.496 OA 
BRANCH   6   9
HETATM    9  N   UNL     1     -10.251  11.477  67.078  1.00  0.00    -0.209 NA 
HETATM   10  H   UNL     1      -9.259  11.676  67.203  1.00  0.00     0.000 HD 
BRANCH   9  11
HETATM   11  C   UNL     1     -10.933  12.087  65.996  1.00  0.00    -0.304 A  
HETATM   12  C   UNL     1     -11.689  13.282  66.101  1.00  0.00    -0.416 A  
HETATM   13  C   UNL     1     -12.242  13.869  64.950  1.00  0.00    -0.445 A  
HETATM   14  C   UNL     1     -11.990  13.982  67.394  1.00  0.00    -0.439 C  
HETATM   15  C   UNL     1     -12.009  13.340  63.690  1.00  0.00    -0.547 A  
HETATM   16  C   UNL     1     -11.245  12.187  63.564  1.00  0.00    -0.536 A  
HETATM   17  C   UNL     1     -10.715  11.549  64.702  1.00  0.00    -0.379 A  
HETATM   18  C   UNL     1      -9.912  10.290  64.496  1.00  0.00    -0.359 C  
ENDBRANCH   9  11
ENDBRANCH   6   9
ENDBRANCH   5   6
BRANCH   5  19
HETATM   19  C   UNL     1     -10.830   8.217  68.143  1.00  0.00     0.015 C  
HETATM   20  C   UNL     1     -10.318   7.572  66.854  1.00  0.00    -0.379 C  
ENDBRANCH   5  19
ENDBRANCH   4   5
BRANCH   4  21
HETATM   21  C   UNL     1      -8.702   9.330  70.627  1.00  0.00    -0.234 C  
HETATM   22  C   UNL     1      -8.697   8.450  71.878  1.00  0.00    -0.258 C  
ENDBRANCH   4  21
ENDBRANCH   3   4
ENDBRANCH   2   3
TORSDOF 8
ENDMDL
MODEL       80
REMARK 921   NORMALIZED FREE ENERGY PREDICTED BY IDOCK:   -4.49 KCAL/MOL
REMARK 922        TOTAL FREE ENERGY PREDICTED BY IDOCK:   -7.57 KCAL/MOL
REMARK 923 INTER-LIGAND FREE ENERGY PREDICTED BY IDOCK:   -6.19 KCAL/MOL
REMARK 924 INTRA-LIGAND FREE ENERGY PREDICTED BY IDOCK:   -1.38 KCAL/MOL
REMARK 927      BINDING AFFINITY PREDICTED BY RF-SCORE:    0.00 PKD
ROOT
HETATM    1  C   UNL     1     -12.452  11.903  63.239  1.00  0.00    -0.506 C  
HETATM    2  C   UNL     1     -12.440  12.557  64.614  1.00  0.00    -0.539 C  
ENDROOT
BRANCH   2   3
HETATM    3  C   UNL     1     -11.119  12.324  65.378  1.00  0.00    -0.311 C  
BRANCH   3   4
HETATM    4  N   UNL     1     -10.603  13.457  66.187  1.00  0.00    -0.289 NA 
BRANCH   4   5
HETATM    5  C   UNL     1     -10.590  13.130  67.667  1.00  0.00    -0.228 C  
BRANCH   5   6
HETATM    6  C   UNL     1      -9.210  13.439  68.258  1.00  0.00    -0.198 C  
HETATM    7  H   UNL     1      -7.398  12.786  68.174  1.00  0.00     0.000 HD 
HETATM    8  O   UNL     1      -8.253  12.594  67.808  1.00  0.00    -0.146 OA 
BRANCH   6   9
HETATM    9  N   UNL     1      -9.014  14.387  69.106  1.00  0.00    -0.387 NA 
HETATM   10  H   UNL     1      -8.818  14.141  70.076  1.00  0.00     0.000 HD 
BRANCH   9  11
HETATM   11  C   UNL     1      -9.058  15.759  68.752  1.00  0.00    -0.213 A  
HETATM   12  C   UNL     1      -8.107  16.397  67.916  1.00  0.00    -0.164 A  
HETATM   13  C   UNL     1      -8.293  17.738  67.535  1.00  0.00    -0.227 A  
HETATM   14  C   UNL     1      -6.852  15.748  67.413  1.00  0.00    -0.235 C  
HETATM   15  C   UNL     1      -9.429  18.440  67.905  1.00  0.00    -0.299 A  
HETATM   16  C   UNL     1     -10.386  17.821  68.699  1.00  0.00    -0.351 A  
HETATM   17  C   UNL     1     -10.208  16.495  69.135  1.00  0.00    -0.298 A  
HETATM   18  C   UNL     1     -11.276  15.890  70.011  1.00  0.00    -0.354 C  
ENDBRANCH   9  11
ENDBRANCH   6   9
ENDBRANCH   5   6
BRANCH   5  19
HETATM   19  C   UNL     1     -10.912  11.653  68.029  1.00  0.00    -0.275 C  
HETATM   20  C   UNL     1     -12.025  11.451  69.058  1.00  0.00    -0.387 C  
ENDBRANCH   5  19
ENDBRANCH   4   5
BRANCH   4  21
HETATM   21  C   UNL     1     -11.382  14.694  65.908  1.00  0.00    -0.338 C  
HETATM   22  C   UNL     1     -10.635  15.887  65.310  1.00  0.00    -0.441 C  
ENDBRANCH   4  21
ENDBRANCH   3   4
ENDBRANCH   2   3
TORSDOF 8
ENDMDL
MODEL       81
REMARK 921   NORMALIZED FREE ENERGY PREDICTED BY IDOCK:   -4.49 KCAL/MOL
REMARK 922        TOTAL FREE ENERGY PREDICTED BY IDOCK:   -7.56 KCAL/MOL
REMARK 923 INTER-LIGAND FREE ENERGY PREDICTED BY IDOCK:   -6.73 KCAL/MOL
REMARK 924 INTRA-LIGAND FREE ENERGY PREDICTED BY IDOCK:   -0.83 KCAL/MOL
REMARK 927      BINDING AFFINITY PREDICTED BY RF-SCORE:    0.00 PKD
ROOT
HETATM    1  C   UNL     1     -14.363  14.939  71.978  1.00  0.00    -0.651 C  
HETATM    2  C   UNL     1     -13.492  13.690  71.962  1.00  0.00    -0.573 C  
ENDROOT
BRANCH   2   3
HETATM    3  C   UNL     1     -12.261  13.828  71.041  1.00  0.00    -0.319 C  
BRANCH   3   4
HETATM    4  N   UNL     1     -11.801  12.599  70.345  1.00  0.00    -0.241 NA 
BRANCH   4   5
HETATM    5  C   UNL     1     -11.907  12.733  68.840  1.00  0.00    -0.308 C  
BRANCH   5   6
HETATM    6  C   UNL     1     -10.956  11.741  68.160  1.00  0.00    -0.228 C  
HETATM    7  H   UNL     1      -9.069  11.371  68.030  1.00  0.00     0.000 HD 
HETATM    8  O   UNL     1      -9.658  11.985  68.451  1.00  0.00    -0.204 OA 
BRANCH   6   9
HETATM    9  N   UNL     1     -11.372  10.804  67.381  1.00  0.00    -0.446 NA 
HETATM   10  H   UNL     1     -12.356  10.541  67.418  1.00  0.00     0.000 HD 
BRANCH   9  11
HETATM   11  C   UNL     1     -10.522  10.123  66.474  1.00  0.00    -0.166 A  
HETATM   12  C   UNL     1     -10.109  10.646  65.223  1.00  0.00    -0.363 A  
HETATM   13  C   UNL     1      -9.179   9.941  64.437  1.00  0.00    -0.317 A  
HETATM   14  C   UNL     1     -10.627  11.922  64.626  1.00  0.00    -0.353 C  
HETATM   15  C   UNL     1      -8.599   8.767  64.891  1.00  0.00    -0.177 A  
HETATM   16  C   UNL     1      -8.970   8.255  66.127  1.00  0.00    -0.222 A  
HETATM   17  C   UNL     1      -9.932   8.913  66.917  1.00  0.00    -0.315 A  
HETATM   18  C   UNL     1     -10.302   8.292  68.241  1.00  0.00    -0.242 C  
ENDBRANCH   9  11
ENDBRANCH   6   9
ENDBRANCH   5   6
BRANCH   5  19
HETATM   19  C   UNL     1     -11.572  14.139  68.268  1.00  0.00    -0.356 C  
HETATM   20  C   UNL     1     -11.956  14.367  66.805  1.00  0.00    -0.423 C  
ENDBRANCH   5  19
ENDBRANCH   4   5
BRANCH   4  21
HETATM   21  C   UNL     1     -12.547  11.410  70.841  1.00  0.00    -0.356 C  
HETATM   22  C   UNL     1     -11.758  10.122  71.080  1.00  0.00    -0.470 C  
ENDBRANCH   4  21
ENDBRANCH   3   4
ENDBRANCH   2   3
TORSDOF 8
ENDMDL
MODEL       82
REMARK 921   NORMALIZED FREE ENERGY PREDICTED BY IDOCK:   -4.48 KCAL/MOL
REMARK 922        TOTAL FREE ENERGY PREDICTED BY IDOCK:   -7.55 KCAL/MOL
REMARK 923 INTER-LIGAND FREE ENERGY PREDICTED BY IDOCK:   -6.68 KCAL/MOL
REMARK 924 INTRA-LIGAND FREE ENERGY PREDICTED BY IDOCK:   -0.87 KCAL/MOL
REMARK 927      BINDING AFFINITY PREDICTED BY RF-SCORE:    0.00 PKD
ROOT
HETATM    1  C   UNL     1     -14.305   8.422  71.872  1.00  0.00    -0.561 C  
HETATM    2  C   UNL     1     -13.228   9.477  72.081  1.00  0.00    -0.539 C  
ENDROOT
BRANCH   2   3
HETATM    3  C   UNL     1     -12.628   9.993  70.756  1.00  0.00    -0.285 C  
BRANCH   3   4
HETATM    4  N   UNL     1     -12.683  11.459  70.519  1.00  0.00    -0.188 NA 
BRANCH   4   5
HETATM    5  C   UNL     1     -11.498  11.941  69.707  1.00  0.00    -0.229 C  
BRANCH   5   6
HETATM    6  C   UNL     1     -11.978  12.490  68.358  1.00  0.00    -0.221 C  
HETATM    7  H   UNL     1     -12.428  11.859  66.593  1.00  0.00     0.000 HD 
HETATM    8  O   UNL     1     -12.130  11.519  67.429  1.00  0.00    -0.593 OA 
BRANCH   6   9
HETATM    9  N   UNL     1     -12.182  13.744  68.152  1.00  0.00    -0.444 NA 
HETATM   10  H   UNL     1     -13.029  14.168  68.528  1.00  0.00     0.000 HD 
BRANCH   9  11
HETATM   11  C   UNL     1     -11.280  14.562  67.427  1.00  0.00    -0.327 A  
HETATM   12  C   UNL     1     -11.327  14.749  66.023  1.00  0.00    -0.332 A  
HETATM   13  C   UNL     1     -10.456  15.664  65.404  1.00  0.00    -0.435 A  
HETATM   14  C   UNL     1     -12.241  13.999  65.099  1.00  0.00    -0.446 C  
HETATM   15  C   UNL     1      -9.587  16.445  66.150  1.00  0.00    -0.356 A  
HETATM   16  C   UNL     1      -9.548  16.297  67.530  1.00  0.00    -0.230 A  
HETATM   17  C   UNL     1     -10.375  15.357  68.174  1.00  0.00    -0.239 A  
HETATM   18  C   UNL     1     -10.268  15.234  69.674  1.00  0.00    -0.253 C  
ENDBRANCH   9  11
ENDBRANCH   6   9
ENDBRANCH   5   6
BRANCH   5  19
HETATM   19  C   UNL     1     -10.419  10.867  69.394  1.00  0.00    -0.205 C  
HETATM   20  C   UNL     1      -9.147  11.383  68.719  1.00  0.00    -0.096 C  
ENDBRANCH   5  19
ENDBRANCH   4   5
BRANCH   4  21
HETATM   21  C   UNL     1     -12.795  12.191  71.809  1.00  0.00    -0.262 C  
HETATM   22  C   UNL     1     -13.022  13.703  71.754  1.00  0.00    -0.441 C  
ENDBRANCH   4  21
ENDBRANCH   3   4
ENDBRANCH   2   3
TORSDOF 8
ENDMDL
MODEL       83
REMARK 921   NORMALIZED FREE ENERGY PREDICTED BY IDOCK:   -4.48 KCAL/MOL
REMARK 922        TOTAL FREE ENERGY PREDICTED BY IDOCK:   -7.55 KCAL/MOL
REMARK 923 INTER-LIGAND FREE ENERGY PREDICTED BY IDOCK:   -6.42 KCAL/MOL
REMARK 924 INTRA-LIGAND FREE ENERGY PREDICTED BY IDOCK:   -1.13 KCAL/MOL
REMARK 927      BINDING AFFINITY PREDICTED BY RF-SCORE:    0.00 PKD
ROOT
HETATM    1  C   UNL     1      -9.784  10.019  65.221  1.00  0.00    -0.373 C  
HETATM    2  C   UNL     1      -8.712  10.418  66.224  1.00  0.00    -0.163 C  
ENDROOT
BRANCH   2   3
HETATM    3  C   UNL     1      -8.692  11.934  66.513  1.00  0.00    -0.158 C  
BRANCH   3   4
HETATM    4  N   UNL     1      -8.945  12.354  67.915  1.00  0.00    -0.176 NA 
BRANCH   4   5
HETATM    5  C   UNL     1     -10.368  12.836  68.108  1.00  0.00    -0.239 C  
BRANCH   5   6
HETATM    6  C   UNL     1     -11.200  11.745  68.791  1.00  0.00    -0.251 C  
HETATM    7  H   UNL     1     -12.672  10.562  68.403  1.00  0.00     0.000 HD 
HETATM    8  O   UNL     1     -12.157  11.238  67.979  1.00  0.00    -0.638 OA 
BRANCH   6   9
HETATM    9  N   UNL     1     -11.006  11.386  70.012  1.00  0.00    -0.454 NA 
HETATM   10  H   UNL     1     -10.450  11.992  70.615  1.00  0.00     0.000 HD 
BRANCH   9  11
HETATM   11  C   UNL     1     -11.530  10.187  70.556  1.00  0.00    -0.337 A  
HETATM   12  C   UNL     1     -10.963   8.904  70.351  1.00  0.00    -0.275 A  
HETATM   13  C   UNL     1     -11.493   7.785  71.018  1.00  0.00    -0.298 A  
HETATM   14  C   UNL     1      -9.821   8.622  69.419  1.00  0.00    -0.184 C  
HETATM   15  C   UNL     1     -12.526   7.916  71.933  1.00  0.00    -0.352 A  
HETATM   16  C   UNL     1     -13.075   9.170  72.168  1.00  0.00    -0.516 A  
HETATM   17  C   UNL     1     -12.597  10.303  71.482  1.00  0.00    -0.544 A  
HETATM   18  C   UNL     1     -13.251  11.631  71.772  1.00  0.00    -0.438 C  
ENDBRANCH   9  11
ENDBRANCH   6   9
ENDBRANCH   5   6
BRANCH   5  19
HETATM   19  C   UNL     1     -11.125  13.228  66.809  1.00  0.00    -0.313 C  
HETATM   20  C   UNL     1     -11.661  14.660  66.761  1.00  0.00    -0.355 C  
ENDBRANCH   5  19
ENDBRANCH   4   5
BRANCH   4  21
HETATM   21  C   UNL     1      -7.957  13.386  68.335  1.00  0.00    -0.139 C  
HETATM   22  C   UNL     1      -7.698  14.554  67.383  1.00  0.00    -0.215 C  
ENDBRANCH   4  21
ENDBRANCH   3   4
ENDBRANCH   2   3
TORSDOF 8
ENDMDL
MODEL       84
REMARK 921   NORMALIZED FREE ENERGY PREDICTED BY IDOCK:   -4.48 KCAL/MOL
REMARK 922        TOTAL FREE ENERGY PREDICTED BY IDOCK:   -7.54 KCAL/MOL
REMARK 923 INTER-LIGAND FREE ENERGY PREDICTED BY IDOCK:   -6.72 KCAL/MOL
REMARK 924 INTRA-LIGAND FREE ENERGY PREDICTED BY IDOCK:   -0.83 KCAL/MOL
REMARK 927      BINDING AFFINITY PREDICTED BY RF-SCORE:    0.00 PKD
ROOT
HETATM    1  C   UNL     1     -10.001   6.176  67.270  1.00  0.00    -0.174 C  
HETATM    2  C   UNL     1     -11.015   6.324  68.395  1.00  0.00    -0.409 C  
ENDROOT
BRANCH   2   3
HETATM    3  C   UNL     1     -10.503   7.204  69.554  1.00  0.00    -0.225 C  
BRANCH   3   4
HETATM    4  N   UNL     1     -11.527   7.919  70.359  1.00  0.00    -0.204 NA 
BRANCH   4   5
HETATM    5  C   UNL     1     -10.915   9.037  71.178  1.00  0.00    -0.301 C  
BRANCH   5   6
HETATM    6  C   UNL     1     -11.371  10.395  70.631  1.00  0.00    -0.325 C  
HETATM    7  H   UNL     1     -12.880  11.589  70.738  1.00  0.00     0.000 HD 
HETATM    8  O   UNL     1     -12.598  10.748  71.077  1.00  0.00    -0.352 OA 
BRANCH   6   9
HETATM    9  N   UNL     1     -10.656  11.090  69.817  1.00  0.00    -0.454 NA 
HETATM   10  H   UNL     1      -9.643  11.086  69.933  1.00  0.00     0.000 HD 
BRANCH   9  11
HETATM   11  C   UNL     1     -11.214  11.860  68.766  1.00  0.00    -0.259 A  
HETATM   12  C   UNL     1     -11.711  13.179  68.922  1.00  0.00    -0.368 A  
HETATM   13  C   UNL     1     -12.149  13.903  67.799  1.00  0.00    -0.328 A  
HETATM   14  C   UNL     1     -11.847  13.882  70.240  1.00  0.00    -0.360 C  
HETATM   15  C   UNL     1     -12.044  13.379  66.520  1.00  0.00    -0.444 A  
HETATM   16  C   UNL     1     -11.531  12.100  66.345  1.00  0.00    -0.430 A  
HETATM   17  C   UNL     1     -11.127  11.332  67.453  1.00  0.00    -0.358 A  
HETATM   18  C   UNL     1     -10.598   9.944  67.194  1.00  0.00    -0.295 C  
ENDBRANCH   9  11
ENDBRANCH   6   9
ENDBRANCH   5   6
BRANCH   5  19
HETATM   19  C   UNL     1      -9.362   9.068  71.216  1.00  0.00    -0.324 C  
HETATM   20  C   UNL     1      -8.711   8.254  72.336  1.00  0.00    -0.279 C  
ENDBRANCH   5  19
ENDBRANCH   4   5
BRANCH   4  21
HETATM   21  C   UNL     1     -12.278   6.962  71.215  1.00  0.00    -0.380 C  
HETATM   22  C   UNL     1     -13.700   7.341  71.631  1.00  0.00    -0.446 C  
ENDBRANCH   4  21
ENDBRANCH   3   4
ENDBRANCH   2   3
TORSDOF 8
ENDMDL
MODEL       85
REMARK 921   NORMALIZED FREE ENERGY PREDICTED BY IDOCK:   -4.47 KCAL/MOL
REMARK 922        TOTAL FREE ENERGY PREDICTED BY IDOCK:   -7.53 KCAL/MOL
REMARK 923 INTER-LIGAND FREE ENERGY PREDICTED BY IDOCK:   -6.52 KCAL/MOL
REMARK 924 INTRA-LIGAND FREE ENERGY PREDICTED BY IDOCK:   -1.02 KCAL/MOL
REMARK 927      BINDING AFFINITY PREDICTED BY RF-SCORE:    0.00 PKD
ROOT
HETATM    1  C   UNL     1      -8.353  12.525  67.025  1.00  0.00    -0.144 C  
HETATM    2  C   UNL     1      -9.514  11.801  66.358  1.00  0.00    -0.234 C  
ENDROOT
BRANCH   2   3
HETATM    3  C   UNL     1     -10.891  12.349  66.789  1.00  0.00    -0.248 C  
BRANCH   3   4
HETATM    4  N   UNL     1     -11.322  13.635  66.182  1.00  0.00    -0.307 NA 
BRANCH   4   5
HETATM    5  C   UNL     1     -11.506  14.715  67.228  1.00  0.00    -0.372 C  
BRANCH   5   6
HETATM    6  C   UNL     1     -10.644  15.934  66.878  1.00  0.00    -0.309 C  
HETATM    7  H   UNL     1      -9.540  16.585  65.438  1.00  0.00     0.000 HD 
HETATM    8  O   UNL     1     -10.074  15.830  65.655  1.00  0.00    -0.330 OA 
BRANCH   6   9
HETATM    9  N   UNL     1     -10.477  16.922  67.686  1.00  0.00    -0.325 NA 
HETATM   10  H   UNL     1     -11.140  17.042  68.452  1.00  0.00     0.000 HD 
BRANCH   9  11
HETATM   11  C   UNL     1      -9.414  17.850  67.559  1.00  0.00    -0.258 A  
HETATM   12  C   UNL     1      -9.514  19.089  66.878  1.00  0.00    -0.355 A  
HETATM   13  C   UNL     1      -8.436  19.992  66.896  1.00  0.00    -0.385 A  
HETATM   14  C   UNL     1     -10.708  19.521  66.079  1.00  0.00    -0.529 C  
HETATM   15  C   UNL     1      -7.289  19.726  67.627  1.00  0.00    -0.306 A  
HETATM   16  C   UNL     1      -7.185  18.531  68.325  1.00  0.00    -0.279 A  
HETATM   17  C   UNL     1      -8.228  17.586  68.290  1.00  0.00    -0.263 A  
HETATM   18  C   UNL     1      -8.041  16.300  69.055  1.00  0.00    -0.236 C  
ENDBRANCH   9  11
ENDBRANCH   6   9
ENDBRANCH   5   6
BRANCH   5  19
HETATM   19  C   UNL     1     -11.138  14.309  68.682  1.00  0.00    -0.273 C  
HETATM   20  C   UNL     1     -12.207  14.591  69.739  1.00  0.00    -0.360 C  
ENDBRANCH   5  19
ENDBRANCH   4   5
BRANCH   4  21
HETATM   21  C   UNL     1     -12.556  13.442  65.373  1.00  0.00    -0.475 C  
HETATM   22  C   UNL     1     -12.515  12.407  64.247  1.00  0.00    -0.529 C  
ENDBRANCH   4  21
ENDBRANCH   3   4
ENDBRANCH   2   3
TORSDOF 8
ENDMDL
MODEL       86
REMARK 921   NORMALIZED FREE ENERGY PREDICTED BY IDOCK:   -4.47 KCAL/MOL
REMARK 922        TOTAL FREE ENERGY PREDICTED BY IDOCK:   -7.53 KCAL/MOL
REMARK 923 INTER-LIGAND FREE ENERGY PREDICTED BY IDOCK:   -6.52 KCAL/MOL
REMARK 924 INTRA-LIGAND FREE ENERGY PREDICTED BY IDOCK:   -1.01 KCAL/MOL
REMARK 927      BINDING AFFINITY PREDICTED BY RF-SCORE:    0.00 PKD
ROOT
HETATM    1  C   UNL     1     -10.531   7.474  66.760  1.00  0.00    -0.319 C  
HETATM    2  C   UNL     1      -9.792   8.724  67.217  1.00  0.00    -0.260 C  
ENDROOT
BRANCH   2   3
HETATM    3  C   UNL     1      -9.981   9.918  66.259  1.00  0.00    -0.256 C  
BRANCH   3   4
HETATM    4  N   UNL     1      -9.837  11.277  66.842  1.00  0.00    -0.191 NA 
BRANCH   4   5
HETATM    5  C   UNL     1     -10.792  12.265  66.205  1.00  0.00    -0.279 C  
BRANCH   5   6
HETATM    6  C   UNL     1     -11.811  12.749  67.243  1.00  0.00    -0.350 C  
HETATM    7  H   UNL     1     -12.843  12.060  68.719  1.00  0.00     0.000 HD 
HETATM    8  O   UNL     1     -12.212  11.760  68.075  1.00  0.00    -0.518 OA 
BRANCH   6   9
HETATM    9  N   UNL     1     -12.241  13.962  67.282  1.00  0.00    -0.489 NA 
HETATM   10  H   UNL     1     -13.205  14.146  67.005  1.00  0.00     0.000 HD 
BRANCH   9  11
HETATM   11  C   UNL     1     -11.434  15.052  67.692  1.00  0.00    -0.333 A  
HETATM   12  C   UNL     1     -10.720  15.894  66.803  1.00  0.00    -0.281 A  
HETATM   13  C   UNL     1     -10.031  17.017  67.296  1.00  0.00    -0.275 A  
HETATM   14  C   UNL     1     -10.604  15.661  65.325  1.00  0.00    -0.448 C  
HETATM   15  C   UNL     1     -10.088  17.362  68.637  1.00  0.00    -0.355 A  
HETATM   16  C   UNL     1     -10.807  16.566  69.518  1.00  0.00    -0.315 A  
HETATM   17  C   UNL     1     -11.470  15.410  69.063  1.00  0.00    -0.349 A  
HETATM   18  C   UNL     1     -12.217  14.580  70.077  1.00  0.00    -0.396 C  
ENDBRANCH   9  11
ENDBRANCH   6   9
ENDBRANCH   5   6
BRANCH   5  19
HETATM   19  C   UNL     1     -11.607  11.726  64.996  1.00  0.00    -0.214 C  
HETATM   20  C   UNL     1     -11.253  12.331  63.636  1.00  0.00    -0.539 C  
ENDBRANCH   5  19
ENDBRANCH   4   5
BRANCH   4  21
HETATM   21  C   UNL     1      -8.426  11.739  66.741  1.00  0.00    -0.177 C  
HETATM   22  C   UNL     1      -8.061  13.067  67.408  1.00  0.00    -0.180 C  
ENDBRANCH   4  21
ENDBRANCH   3   4
ENDBRANCH   2   3
TORSDOF 8
ENDMDL
MODEL       87
REMARK 921   NORMALIZED FREE ENERGY PREDICTED BY IDOCK:   -4.46 KCAL/MOL
REMARK 922        TOTAL FREE ENERGY PREDICTED BY IDOCK:   -7.52 KCAL/MOL
REMARK 923 INTER-LIGAND FREE ENERGY PREDICTED BY IDOCK:   -7.13 KCAL/MOL
REMARK 924 INTRA-LIGAND FREE ENERGY PREDICTED BY IDOCK:   -0.39 KCAL/MOL
REMARK 927      BINDING AFFINITY PREDICTED BY RF-SCORE:    0.00 PKD
ROOT
HETATM    1  C   UNL     1     -12.205  12.746  63.660  1.00  0.00    -0.597 C  
HETATM    2  C   UNL     1     -12.274  13.305  65.074  1.00  0.00    -0.477 C  
ENDROOT
BRANCH   2   3
HETATM    3  C   UNL     1     -10.940  13.925  65.540  1.00  0.00    -0.302 C  
BRANCH   3   4
HETATM    4  N   UNL     1     -10.567  13.725  66.965  1.00  0.00    -0.277 NA 
BRANCH   4   5
HETATM    5  C   UNL     1     -10.029  12.331  67.213  1.00  0.00    -0.204 C  
BRANCH   5   6
HETATM    6  C   UNL     1     -10.907  11.609  68.242  1.00  0.00    -0.219 C  
HETATM    7  H   UNL     1     -12.631  10.753  68.357  1.00  0.00     0.000 HD 
HETATM    8  O   UNL     1     -12.087  11.201  67.720  1.00  0.00    -0.606 OA 
BRANCH   6   9
HETATM    9  N   UNL     1     -10.549  11.445  69.467  1.00  0.00    -0.445 NA 
HETATM   10  H   UNL     1      -9.671  11.859  69.778  1.00  0.00     0.000 HD 
BRANCH   9  11
HETATM   11  C   UNL     1     -11.321  10.714  70.404  1.00  0.00    -0.304 A  
HETATM   12  C   UNL     1     -12.373  11.268  71.175  1.00  0.00    -0.429 A  
HETATM   13  C   UNL     1     -13.153  10.439  72.002  1.00  0.00    -0.521 A  
HETATM   14  C   UNL     1     -12.718  12.728  71.212  1.00  0.00    -0.364 C  
HETATM   15  C   UNL     1     -12.959   9.067  72.032  1.00  0.00    -0.470 A  
HETATM   16  C   UNL     1     -11.952   8.503  71.261  1.00  0.00    -0.334 A  
HETATM   17  C   UNL     1     -11.125   9.311  70.457  1.00  0.00    -0.317 A  
HETATM   18  C   UNL     1     -10.038   8.635  69.660  1.00  0.00    -0.201 C  
ENDBRANCH   9  11
ENDBRANCH   6   9
ENDBRANCH   5   6
BRANCH   5  19
HETATM   19  C   UNL     1      -8.570  12.260  67.743  1.00  0.00    -0.170 C  
HETATM   20  C   UNL     1      -7.865  13.606  67.923  1.00  0.00    -0.159 C  
ENDBRANCH   5  19
ENDBRANCH   4   5
BRANCH   4  21
HETATM   21  C   UNL     1     -11.721  14.032  67.853  1.00  0.00    -0.362 C  
HETATM   22  C   UNL     1     -11.700  15.356  68.618  1.00  0.00    -0.371 C  
ENDBRANCH   4  21
ENDBRANCH   3   4
ENDBRANCH   2   3
TORSDOF 8
ENDMDL
MODEL       88
REMARK 921   NORMALIZED FREE ENERGY PREDICTED BY IDOCK:   -4.46 KCAL/MOL
REMARK 922        TOTAL FREE ENERGY PREDICTED BY IDOCK:   -7.52 KCAL/MOL
REMARK 923 INTER-LIGAND FREE ENERGY PREDICTED BY IDOCK:   -6.67 KCAL/MOL
REMARK 924 INTRA-LIGAND FREE ENERGY PREDICTED BY IDOCK:   -0.84 KCAL/MOL
REMARK 927      BINDING AFFINITY PREDICTED BY RF-SCORE:    0.00 PKD
ROOT
HETATM    1  C   UNL     1     -10.487  11.370  63.512  1.00  0.00    -0.477 C  
HETATM    2  C   UNL     1      -9.908  10.399  64.531  1.00  0.00    -0.405 C  
ENDROOT
BRANCH   2   3
HETATM    3  C   UNL     1     -10.178  10.827  65.989  1.00  0.00    -0.251 C  
BRANCH   3   4
HETATM    4  N   UNL     1     -10.421   9.741  66.974  1.00  0.00    -0.239 NA 
BRANCH   4   5
HETATM    5  C   UNL     1      -9.651   9.967  68.259  1.00  0.00    -0.140 C  
BRANCH   5   6
HETATM    6  C   UNL     1     -10.628  10.185  69.420  1.00  0.00    -0.237 C  
HETATM    7  H   UNL     1     -10.733   9.894  71.323  1.00  0.00     0.000 HD 
HETATM    8  O   UNL     1     -10.128   9.759  70.604  1.00  0.00    -0.272 OA 
BRANCH   6   9
HETATM    9  N   UNL     1     -11.798  10.696  69.257  1.00  0.00    -0.469 NA 
HETATM   10  H   UNL     1     -12.371  10.363  68.482  1.00  0.00     0.000 HD 
BRANCH   9  11
HETATM   11  C   UNL     1     -12.325  11.700  70.107  1.00  0.00    -0.219 A  
HETATM   12  C   UNL     1     -12.912  11.446  71.372  1.00  0.00    -0.468 A  
HETATM   13  C   UNL     1     -13.312  12.518  72.191  1.00  0.00    -0.540 A  
HETATM   14  C   UNL     1     -13.184  10.076  71.919  1.00  0.00    -0.557 C  
HETATM   15  C   UNL     1     -13.084  13.832  71.816  1.00  0.00    -0.463 A  
HETATM   16  C   UNL     1     -12.483  14.100  70.592  1.00  0.00    -0.432 A  
HETATM   17  C   UNL     1     -12.113  13.050  69.730  1.00  0.00    -0.325 A  
HETATM   18  C   UNL     1     -11.483  13.412  68.409  1.00  0.00    -0.351 C  
ENDBRANCH   9  11
ENDBRANCH   6   9
ENDBRANCH   5   6
BRANCH   5  19
HETATM   19  C   UNL     1      -8.682  11.182  68.254  1.00  0.00    -0.151 C  
HETATM   20  C   UNL     1      -7.199  10.846  68.424  1.00  0.00    -0.087 C  
ENDBRANCH   5  19
ENDBRANCH   4   5
BRANCH   4  21
HETATM   21  C   UNL     1     -10.109   8.415  66.375  1.00  0.00    -0.172 C  
HETATM   22  C   UNL     1     -10.680   7.172  67.057  1.00  0.00    -0.420 C  
ENDBRANCH   4  21
ENDBRANCH   3   4
ENDBRANCH   2   3
TORSDOF 8
ENDMDL
MODEL       89
REMARK 921   NORMALIZED FREE ENERGY PREDICTED BY IDOCK:   -4.46 KCAL/MOL
REMARK 922        TOTAL FREE ENERGY PREDICTED BY IDOCK:   -7.51 KCAL/MOL
REMARK 923 INTER-LIGAND FREE ENERGY PREDICTED BY IDOCK:   -6.77 KCAL/MOL
REMARK 924 INTRA-LIGAND FREE ENERGY PREDICTED BY IDOCK:   -0.74 KCAL/MOL
REMARK 927      BINDING AFFINITY PREDICTED BY RF-SCORE:    0.00 PKD
ROOT
HETATM    1  C   UNL     1     -11.471  15.844  71.245  1.00  0.00    -0.489 C  
HETATM    2  C   UNL     1     -11.609  15.909  69.731  1.00  0.00    -0.340 C  
ENDROOT
BRANCH   2   3
HETATM    3  C   UNL     1     -10.472  16.708  69.058  1.00  0.00    -0.328 C  
BRANCH   3   4
HETATM    4  N   UNL     1     -10.611  16.980  67.604  1.00  0.00    -0.345 NA 
BRANCH   4   5
HETATM    5  C   UNL     1      -9.458  16.400  66.812  1.00  0.00    -0.247 C  
BRANCH   5   6
HETATM    6  C   UNL     1      -9.495  14.869  66.882  1.00  0.00    -0.237 C  
HETATM    7  H   UNL     1      -8.301  13.383  67.170  1.00  0.00     0.000 HD 
HETATM    8  O   UNL     1      -8.277  14.332  67.126  1.00  0.00    -0.199 OA 
BRANCH   6   9
HETATM    9  N   UNL     1     -10.575  14.192  66.700  1.00  0.00    -0.276 NA 
HETATM   10  H   UNL     1     -11.312  14.252  67.402  1.00  0.00     0.000 HD 
BRANCH   9  11
HETATM   11  C   UNL     1     -10.785  13.366  65.567  1.00  0.00    -0.294 A  
HETATM   12  C   UNL     1     -10.353  12.019  65.472  1.00  0.00    -0.298 A  
HETATM   13  C   UNL     1     -10.701  11.246  64.350  1.00  0.00    -0.407 A  
HETATM   14  C   UNL     1      -9.494  11.331  66.492  1.00  0.00    -0.213 C  
HETATM   15  C   UNL     1     -11.520  11.754  63.353  1.00  0.00    -0.424 A  
HETATM   16  C   UNL     1     -11.976  13.062  63.445  1.00  0.00    -0.592 A  
HETATM   17  C   UNL     1     -11.609  13.876  64.533  1.00  0.00    -0.409 A  
HETATM   18  C   UNL     1     -12.124  15.293  64.560  1.00  0.00    -0.252 C  
ENDBRANCH   9  11
ENDBRANCH   6   9
ENDBRANCH   5   6
BRANCH   5  19
HETATM   19  C   UNL     1      -8.040  16.835  67.276  1.00  0.00    -0.201 C  
HETATM   20  C   UNL     1      -7.242  17.670  66.274  1.00  0.00    -0.342 C  
ENDBRANCH   5  19
ENDBRANCH   4   5
BRANCH   4  21
HETATM   21  C   UNL     1     -10.761  18.441  67.360  1.00  0.00    -0.361 C  
HETATM   22  C   UNL     1     -10.264  19.399  68.443  1.00  0.00    -0.516 C  
ENDBRANCH   4  21
ENDBRANCH   3   4
ENDBRANCH   2   3
TORSDOF 8
ENDMDL
MODEL       90
REMARK 921   NORMALIZED FREE ENERGY PREDICTED BY IDOCK:   -4.45 KCAL/MOL
REMARK 922        TOTAL FREE ENERGY PREDICTED BY IDOCK:   -7.50 KCAL/MOL
REMARK 923 INTER-LIGAND FREE ENERGY PREDICTED BY IDOCK:   -6.37 KCAL/MOL
REMARK 924 INTRA-LIGAND FREE ENERGY PREDICTED BY IDOCK:   -1.13 KCAL/MOL
REMARK 927      BINDING AFFINITY PREDICTED BY RF-SCORE:    0.00 PKD
ROOT
HETATM    1  C   UNL     1     -12.505  12.588  64.572  1.00  0.00    -0.539 C  
HETATM    2  C   UNL     1     -12.569  13.822  65.460  1.00  0.00    -0.551 C  
ENDROOT
BRANCH   2   3
HETATM    3  C   UNL     1     -11.551  13.782  66.619  1.00  0.00    -0.369 C  
BRANCH   3   4
HETATM    4  N   UNL     1     -10.487  14.819  66.615  1.00  0.00    -0.281 NA 
BRANCH   4   5
HETATM    5  C   UNL     1     -10.611  15.755  67.800  1.00  0.00    -0.292 C  
BRANCH   5   6
HETATM    6  C   UNL     1      -9.279  15.821  68.555  1.00  0.00    -0.198 C  
HETATM    7  H   UNL     1      -7.976  14.635  69.339  1.00  0.00     0.000 HD 
HETATM    8  O   UNL     1      -8.802  14.594  68.871  1.00  0.00    -0.179 OA 
BRANCH   6   9
HETATM    9  N   UNL     1      -8.710  16.933  68.864  1.00  0.00    -0.245 NA 
HETATM   10  H   UNL     1      -8.561  17.146  69.850  1.00  0.00     0.000 HD 
BRANCH   9  11
HETATM   11  C   UNL     1      -8.281  17.874  67.896  1.00  0.00    -0.246 A  
HETATM   12  C   UNL     1      -7.208  17.659  66.995  1.00  0.00    -0.212 A  
HETATM   13  C   UNL     1      -6.923  18.609  65.998  1.00  0.00    -0.305 A  
HETATM   14  C   UNL     1      -6.291  16.472  67.039  1.00  0.00    -0.207 C  
HETATM   15  C   UNL     1      -7.717  19.733  65.829  1.00  0.00    -0.268 A  
HETATM   16  C   UNL     1      -8.791  19.945  66.683  1.00  0.00    -0.429 A  
HETATM   17  C   UNL     1      -9.074  19.036  67.720  1.00  0.00    -0.331 A  
HETATM   18  C   UNL     1     -10.244  19.338  68.623  1.00  0.00    -0.438 C  
ENDBRANCH   9  11
ENDBRANCH   6   9
ENDBRANCH   5   6
BRANCH   5  19
HETATM   19  C   UNL     1     -11.699  15.375  68.843  1.00  0.00    -0.377 C  
HETATM   20  C   UNL     1     -11.513  15.970  70.240  1.00  0.00    -0.369 C  
ENDBRANCH   5  19
ENDBRANCH   4   5
BRANCH   4  21
HETATM   21  C   UNL     1     -10.491  15.564  65.327  1.00  0.00    -0.411 C  
HETATM   22  C   UNL     1     -10.776  17.066  65.373  1.00  0.00    -0.126 C  
ENDBRANCH   4  21
ENDBRANCH   3   4
ENDBRANCH   2   3
TORSDOF 8
ENDMDL
MODEL       91
REMARK 921   NORMALIZED FREE ENERGY PREDICTED BY IDOCK:   -4.45 KCAL/MOL
REMARK 922        TOTAL FREE ENERGY PREDICTED BY IDOCK:   -7.50 KCAL/MOL
REMARK 923 INTER-LIGAND FREE ENERGY PREDICTED BY IDOCK:   -6.54 KCAL/MOL
REMARK 924 INTRA-LIGAND FREE ENERGY PREDICTED BY IDOCK:   -0.96 KCAL/MOL
REMARK 927      BINDING AFFINITY PREDICTED BY RF-SCORE:    0.00 PKD
ROOT
HETATM    1  C   UNL     1      -8.622   6.604  74.344  1.00  0.00    -0.170 C  
HETATM    2  C   UNL     1      -9.577   7.572  73.659  1.00  0.00    -0.347 C  
ENDROOT
BRANCH   2   3
HETATM    3  C   UNL     1      -9.420   7.585  72.124  1.00  0.00    -0.147 C  
BRANCH   3   4
HETATM    4  N   UNL     1      -9.943   8.775  71.405  1.00  0.00    -0.255 NA 
BRANCH   4   5
HETATM    5  C   UNL     1     -11.199   8.450  70.621  1.00  0.00    -0.255 C  
BRANCH   5   6
HETATM    6  C   UNL     1     -12.364   9.311  71.121  1.00  0.00    -0.293 C  
HETATM    7  H   UNL     1     -13.434   9.555  72.706  1.00  0.00     0.000 HD 
HETATM    8  O   UNL     1     -12.712   9.021  72.396  1.00  0.00    -0.392 OA 
BRANCH   6   9
HETATM    9  N   UNL     1     -12.946  10.189  70.381  1.00  0.00    -0.585 NA 
HETATM   10  H   UNL     1     -13.878   9.983  70.024  1.00  0.00     0.000 HD 
BRANCH   9  11
HETATM   11  C   UNL     1     -12.349  11.428  70.042  1.00  0.00    -0.237 A  
HETATM   12  C   UNL     1     -11.631  11.665  68.843  1.00  0.00    -0.377 A  
HETATM   13  C   UNL     1     -11.165  12.958  68.545  1.00  0.00    -0.310 A  
HETATM   14  C   UNL     1     -11.281  10.604  67.842  1.00  0.00    -0.376 C  
HETATM   15  C   UNL     1     -11.451  14.034  69.372  1.00  0.00    -0.343 A  
HETATM   16  C   UNL     1     -12.180  13.825  70.536  1.00  0.00    -0.440 A  
HETATM   17  C   UNL     1     -12.621  12.535  70.885  1.00  0.00    -0.331 A  
HETATM   18  C   UNL     1     -13.390  12.377  72.173  1.00  0.00    -0.508 C  
ENDBRANCH   9  11
ENDBRANCH   6   9
ENDBRANCH   5   6
BRANCH   5  19
HETATM   19  C   UNL     1     -11.671   6.971  70.697  1.00  0.00    -0.384 C  
HETATM   20  C   UNL     1     -11.331   6.105  69.482  1.00  0.00    -0.426 C  
ENDBRANCH   5  19
ENDBRANCH   4   5
BRANCH   4  21
HETATM   21  C   UNL     1      -8.891   9.361  70.531  1.00  0.00    -0.239 C  
HETATM   22  C   UNL     1      -8.515   8.599  69.259  1.00  0.00    -0.123 C  
ENDBRANCH   4  21
ENDBRANCH   3   4
ENDBRANCH   2   3
TORSDOF 8
ENDMDL
MODEL       92
REMARK 921   NORMALIZED FREE ENERGY PREDICTED BY IDOCK:   -4.44 KCAL/MOL
REMARK 922        TOTAL FREE ENERGY PREDICTED BY IDOCK:   -7.49 KCAL/MOL
REMARK 923 INTER-LIGAND FREE ENERGY PREDICTED BY IDOCK:   -6.50 KCAL/MOL
REMARK 924 INTRA-LIGAND FREE ENERGY PREDICTED BY IDOCK:   -0.99 KCAL/MOL
REMARK 927      BINDING AFFINITY PREDICTED BY RF-SCORE:    0.00 PKD
ROOT
HETATM    1  C   UNL     1      -8.401  11.880  67.630  1.00  0.00    -0.152 C  
HETATM    2  C   UNL     1      -9.200  11.969  66.338  1.00  0.00    -0.216 C  
ENDROOT
BRANCH   2   3
HETATM    3  C   UNL     1     -10.691  12.289  66.575  1.00  0.00    -0.246 C  
BRANCH   3   4
HETATM    4  N   UNL     1     -11.249  13.462  65.854  1.00  0.00    -0.298 NA 
BRANCH   4   5
HETATM    5  C   UNL     1     -11.558  14.606  66.799  1.00  0.00    -0.360 C  
BRANCH   5   6
HETATM    6  C   UNL     1     -10.846  15.879  66.327  1.00  0.00    -0.200 C  
HETATM    7  H   UNL     1     -10.323  16.745  64.685  1.00  0.00     0.000 HD 
HETATM    8  O   UNL     1     -10.764  15.956  64.978  1.00  0.00    -0.451 OA 
BRANCH   6   9
HETATM    9  N   UNL     1     -10.367  16.751  67.144  1.00  0.00    -0.296 NA 
HETATM   10  H   UNL     1     -10.858  16.918  68.021  1.00  0.00     0.000 HD 
BRANCH   9  11
HETATM   11  C   UNL     1      -9.186  17.488  66.878  1.00  0.00    -0.265 A  
HETATM   12  C   UNL     1      -7.898  16.911  66.747  1.00  0.00    -0.279 A  
HETATM   13  C   UNL     1      -6.802  17.711  66.378  1.00  0.00    -0.297 A  
HETATM   14  C   UNL     1      -7.586  15.468  67.013  1.00  0.00    -0.228 C  
HETATM   15  C   UNL     1      -6.963  19.053  66.071  1.00  0.00    -0.287 A  
HETATM   16  C   UNL     1      -8.223  19.629  66.165  1.00  0.00    -0.355 A  
HETATM   17  C   UNL     1      -9.333  18.866  66.576  1.00  0.00    -0.351 A  
HETATM   18  C   UNL     1     -10.668  19.559  66.675  1.00  0.00    -0.552 C  
ENDBRANCH   9  11
ENDBRANCH   6   9
ENDBRANCH   5   6
BRANCH   5  19
HETATM   19  C   UNL     1     -11.140  14.383  68.279  1.00  0.00    -0.275 C  
HETATM   20  C   UNL     1     -12.253  14.552  69.314  1.00  0.00    -0.264 C  
ENDBRANCH   5  19
ENDBRANCH   4   5
BRANCH   4  21
HETATM   21  C   UNL     1     -12.448  13.068  65.066  1.00  0.00    -0.477 C  
HETATM   22  C   UNL     1     -12.222  12.459  63.681  1.00  0.00    -0.653 C  
ENDBRANCH   4  21
ENDBRANCH   3   4
ENDBRANCH   2   3
TORSDOF 8
ENDMDL
MODEL       93
REMARK 921   NORMALIZED FREE ENERGY PREDICTED BY IDOCK:   -4.43 KCAL/MOL
REMARK 922        TOTAL FREE ENERGY PREDICTED BY IDOCK:   -7.48 KCAL/MOL
REMARK 923 INTER-LIGAND FREE ENERGY PREDICTED BY IDOCK:   -6.55 KCAL/MOL
REMARK 924 INTRA-LIGAND FREE ENERGY PREDICTED BY IDOCK:   -0.93 KCAL/MOL
REMARK 927      BINDING AFFINITY PREDICTED BY RF-SCORE:    0.00 PKD
ROOT
HETATM    1  C   UNL     1      -8.898   5.831  68.140  1.00  0.00    -0.105 C  
HETATM    2  C   UNL     1     -10.131   5.475  68.958  1.00  0.00    -0.275 C  
ENDROOT
BRANCH   2   3
HETATM    3  C   UNL     1     -10.072   6.018  70.401  1.00  0.00    -0.194 C  
BRANCH   3   4
HETATM    4  N   UNL     1     -11.155   6.947  70.815  1.00  0.00    -0.261 NA 
BRANCH   4   5
HETATM    5  C   UNL     1     -10.612   8.310  71.193  1.00  0.00    -0.214 C  
BRANCH   5   6
HETATM    6  C   UNL     1     -10.764   9.277  70.014  1.00  0.00    -0.232 C  
HETATM    7  H   UNL     1      -9.737   9.954  68.529  1.00  0.00     0.000 HD 
HETATM    8  O   UNL     1      -9.643   9.354  69.260  1.00  0.00    -0.161 OA 
BRANCH   6   9
HETATM    9  N   UNL     1     -11.841   9.949  69.801  1.00  0.00    -0.463 NA 
HETATM   10  H   UNL     1     -12.538   9.564  69.165  1.00  0.00     0.000 HD 
BRANCH   9  11
HETATM   11  C   UNL     1     -12.101  11.201  70.412  1.00  0.00    -0.385 A  
HETATM   12  C   UNL     1     -11.714  12.451  69.866  1.00  0.00    -0.339 A  
HETATM   13  C   UNL     1     -12.110  13.646  70.492  1.00  0.00    -0.411 A  
HETATM   14  C   UNL     1     -10.855  12.612  68.646  1.00  0.00    -0.281 C  
HETATM   15  C   UNL     1     -12.934  13.635  71.606  1.00  0.00    -0.448 A  
HETATM   16  C   UNL     1     -13.347  12.421  72.138  1.00  0.00    -0.508 A  
HETATM   17  C   UNL     1     -12.931  11.206  71.561  1.00  0.00    -0.542 A  
HETATM   18  C   UNL     1     -13.401   9.923  72.201  1.00  0.00    -0.498 C  
ENDBRANCH   9  11
ENDBRANCH   6   9
ENDBRANCH   5   6
BRANCH   5  19
HETATM   19  C   UNL     1      -9.115   8.342  71.609  1.00  0.00    -0.242 C  
HETATM   20  C   UNL     1      -8.844   8.264  73.113  1.00  0.00    -0.292 C  
ENDBRANCH   5  19
ENDBRANCH   4   5
BRANCH   4  21
HETATM   21  C   UNL     1     -11.957   6.352  71.919  1.00  0.00    -0.329 C  
HETATM   22  C   UNL     1     -11.255   5.374  72.863  1.00  0.00    -0.372 C  
ENDBRANCH   4  21
ENDBRANCH   3   4
ENDBRANCH   2   3
TORSDOF 8
ENDMDL
MODEL       94
REMARK 921   NORMALIZED FREE ENERGY PREDICTED BY IDOCK:   -4.43 KCAL/MOL
REMARK 922        TOTAL FREE ENERGY PREDICTED BY IDOCK:   -7.48 KCAL/MOL
REMARK 923 INTER-LIGAND FREE ENERGY PREDICTED BY IDOCK:   -6.98 KCAL/MOL
REMARK 924 INTRA-LIGAND FREE ENERGY PREDICTED BY IDOCK:   -0.49 KCAL/MOL
REMARK 927      BINDING AFFINITY PREDICTED BY RF-SCORE:    0.00 PKD
ROOT
HETATM    1  C   UNL     1     -10.630   7.657  67.019  1.00  0.00    -0.406 C  
HETATM    2  C   UNL     1     -10.217   8.984  66.399  1.00  0.00    -0.297 C  
ENDROOT
BRANCH   2   3
HETATM    3  C   UNL     1     -10.329  10.168  67.383  1.00  0.00    -0.238 C  
BRANCH   3   4
HETATM    4  N   UNL     1     -11.473  11.096  67.190  1.00  0.00    -0.473 NA 
BRANCH   4   5
HETATM    5  C   UNL     1     -11.168  12.155  66.151  1.00  0.00    -0.338 C  
BRANCH   5   6
HETATM    6  C   UNL     1     -10.568  13.393  66.828  1.00  0.00    -0.277 C  
HETATM    7  H   UNL     1      -8.849  14.097  67.343  1.00  0.00     0.000 HD 
HETATM    8  O   UNL     1      -9.220  13.330  66.923  1.00  0.00    -0.229 OA 
BRANCH   6   9
HETATM    9  N   UNL     1     -11.292  14.360  67.272  1.00  0.00    -0.327 NA 
HETATM   10  H   UNL     1     -12.229  14.150  67.616  1.00  0.00     0.000 HD 
BRANCH   9  11
HETATM   11  C   UNL     1     -10.846  15.705  67.305  1.00  0.00    -0.298 A  
HETATM   12  C   UNL     1     -10.761  16.544  66.165  1.00  0.00    -0.155 A  
HETATM   13  C   UNL     1     -10.408  17.898  66.313  1.00  0.00    -0.364 A  
HETATM   14  C   UNL     1     -10.993  16.085  64.756  1.00  0.00    -0.373 C  
HETATM   15  C   UNL     1     -10.202  18.454  67.565  1.00  0.00    -0.393 A  
HETATM   16  C   UNL     1     -10.309  17.654  68.695  1.00  0.00    -0.359 A  
HETATM   17  C   UNL     1     -10.617  16.285  68.578  1.00  0.00    -0.294 A  
HETATM   18  C   UNL     1     -10.700  15.470  69.844  1.00  0.00    -0.321 C  
ENDBRANCH   9  11
ENDBRANCH   6   9
ENDBRANCH   5   6
BRANCH   5  19
HETATM   19  C   UNL     1     -12.384  12.646  65.317  1.00  0.00    -0.528 C  
HETATM   20  C   UNL     1     -12.320  12.351  63.817  1.00  0.00    -0.625 C  
ENDBRANCH   5  19
ENDBRANCH   4   5
BRANCH   4  21
HETATM   21  C   UNL     1     -11.874  11.704  68.488  1.00  0.00    -0.292 C  
HETATM   22  C   UNL     1     -11.577  10.918  69.766  1.00  0.00    -0.399 C  
ENDBRANCH   4  21
ENDBRANCH   3   4
ENDBRANCH   2   3
TORSDOF 8
ENDMDL
MODEL       95
REMARK 921   NORMALIZED FREE ENERGY PREDICTED BY IDOCK:   -4.43 KCAL/MOL
REMARK 922        TOTAL FREE ENERGY PREDICTED BY IDOCK:   -7.47 KCAL/MOL
REMARK 923 INTER-LIGAND FREE ENERGY PREDICTED BY IDOCK:   -6.51 KCAL/MOL
REMARK 924 INTRA-LIGAND FREE ENERGY PREDICTED BY IDOCK:   -0.97 KCAL/MOL
REMARK 927      BINDING AFFINITY PREDICTED BY RF-SCORE:    0.00 PKD
ROOT
HETATM    1  C   UNL     1     -10.089   4.885  69.636  1.00  0.00    -0.300 C  
HETATM    2  C   UNL     1     -11.025   6.054  69.361  1.00  0.00    -0.455 C  
ENDROOT
BRANCH   2   3
HETATM    3  C   UNL     1     -10.428   7.413  69.783  1.00  0.00    -0.229 C  
BRANCH   3   4
HETATM    4  N   UNL     1     -10.347   8.465  68.737  1.00  0.00    -0.211 NA 
BRANCH   4   5
HETATM    5  C   UNL     1     -11.219   9.658  69.074  1.00  0.00     0.011 C  
BRANCH   5   6
HETATM    6  C   UNL     1     -10.829  10.853  68.195  1.00  0.00    -0.234 C  
HETATM    7  H   UNL     1      -9.267  11.878  67.720  1.00  0.00     0.000 HD 
HETATM    8  O   UNL     1      -9.508  11.138  68.264  1.00  0.00    -0.168 OA 
BRANCH   6   9
HETATM    9  N   UNL     1     -11.688  11.511  67.498  1.00  0.00    -0.604 NA 
HETATM   10  H   UNL     1     -12.676  11.275  67.592  1.00  0.00     0.000 HD 
BRANCH   9  11
HETATM   11  C   UNL     1     -11.323  12.549  66.605  1.00  0.00    -0.334 A  
HETATM   12  C   UNL     1     -10.894  12.338  65.270  1.00  0.00    -0.332 A  
HETATM   13  C   UNL     1     -10.655  13.437  64.425  1.00  0.00    -0.423 A  
HETATM   14  C   UNL     1     -10.632  10.989  64.668  1.00  0.00    -0.369 C  
HETATM   15  C   UNL     1     -10.893  14.734  64.850  1.00  0.00    -0.433 A  
HETATM   16  C   UNL     1     -11.341  14.958  66.145  1.00  0.00    -0.307 A  
HETATM   17  C   UNL     1     -11.547  13.883  67.029  1.00  0.00    -0.394 A  
HETATM   18  C   UNL     1     -12.016  14.198  68.427  1.00  0.00    -0.366 C  
ENDBRANCH   9  11
ENDBRANCH   6   9
ENDBRANCH   5   6
BRANCH   5  19
HETATM   19  C   UNL     1     -11.148  10.145  70.548  1.00  0.00    -0.400 C  
HETATM   20  C   UNL     1     -12.482  10.559  71.173  1.00  0.00    -0.517 C  
ENDBRANCH   5  19
ENDBRANCH   4   5
BRANCH   4  21
HETATM   21  C   UNL     1     -10.686   7.900  67.403  1.00  0.00    -0.208 C  
HETATM   22  C   UNL     1      -9.566   7.799  66.367  1.00  0.00    -0.235 C  
ENDBRANCH   4  21
ENDBRANCH   3   4
ENDBRANCH   2   3
TORSDOF 8
ENDMDL
MODEL       96
REMARK 921   NORMALIZED FREE ENERGY PREDICTED BY IDOCK:   -4.42 KCAL/MOL
REMARK 922        TOTAL FREE ENERGY PREDICTED BY IDOCK:   -7.46 KCAL/MOL
REMARK 923 INTER-LIGAND FREE ENERGY PREDICTED BY IDOCK:   -6.17 KCAL/MOL
REMARK 924 INTRA-LIGAND FREE ENERGY PREDICTED BY IDOCK:   -1.28 KCAL/MOL
REMARK 927      BINDING AFFINITY PREDICTED BY RF-SCORE:    0.00 PKD
ROOT
HETATM    1  C   UNL     1     -11.624   8.254  72.348  1.00  0.00    -0.464 C  
HETATM    2  C   UNL     1     -12.413   7.324  71.439  1.00  0.00    -0.418 C  
ENDROOT
BRANCH   2   3
HETATM    3  C   UNL     1     -11.512   6.371  70.626  1.00  0.00    -0.362 C  
BRANCH   3   4
HETATM    4  N   UNL     1     -10.112   6.808  70.390  1.00  0.00    -0.183 NA 
BRANCH   4   5
HETATM    5  C   UNL     1      -9.904   7.285  68.967  1.00  0.00    -0.165 C  
BRANCH   5   6
HETATM    6  C   UNL     1     -10.120   8.800  68.888  1.00  0.00    -0.198 C  
HETATM    7  H   UNL     1      -9.301  10.433  69.504  1.00  0.00     0.000 HD 
HETATM    8  O   UNL     1      -9.168   9.494  69.554  1.00  0.00    -0.165 OA 
BRANCH   6   9
HETATM    9  N   UNL     1     -11.119   9.328  68.272  1.00  0.00    -0.487 NA 
HETATM   10  H   UNL     1     -11.982   8.791  68.194  1.00  0.00     0.000 HD 
BRANCH   9  11
HETATM   11  C   UNL     1     -11.074  10.623  67.698  1.00  0.00    -0.319 A  
HETATM   12  C   UNL     1     -10.628  10.896  66.381  1.00  0.00    -0.289 A  
HETATM   13  C   UNL     1     -10.719  12.200  65.862  1.00  0.00    -0.302 A  
HETATM   14  C   UNL     1     -10.011   9.877  65.468  1.00  0.00    -0.363 C  
HETATM   15  C   UNL     1     -11.302  13.224  66.592  1.00  0.00    -0.353 A  
HETATM   16  C   UNL     1     -11.771  12.969  67.873  1.00  0.00    -0.402 A  
HETATM   17  C   UNL     1     -11.653  11.685  68.438  1.00  0.00    -0.376 A  
HETATM   18  C   UNL     1     -12.166  11.482  69.842  1.00  0.00    -0.328 C  
ENDBRANCH   9  11
ENDBRANCH   6   9
ENDBRANCH   5   6
BRANCH   5  19
HETATM   19  C   UNL     1     -10.839   6.644  67.903  1.00  0.00    -0.353 C  
HETATM   20  C   UNL     1     -10.135   5.937  66.744  1.00  0.00    -0.235 C  
ENDBRANCH   5  19
ENDBRANCH   4   5
BRANCH   4  21
HETATM   21  C   UNL     1      -9.160   5.720  70.746  1.00  0.00    -0.148 C  
HETATM   22  C   UNL     1      -9.569   4.282  70.425  1.00  0.00    -0.265 C  
ENDBRANCH   4  21
ENDBRANCH   3   4
ENDBRANCH   2   3
TORSDOF 8
ENDMDL
MODEL       97
REMARK 921   NORMALIZED FREE ENERGY PREDICTED BY IDOCK:   -4.41 KCAL/MOL
REMARK 922        TOTAL FREE ENERGY PREDICTED BY IDOCK:   -7.45 KCAL/MOL
REMARK 923 INTER-LIGAND FREE ENERGY PREDICTED BY IDOCK:   -6.89 KCAL/MOL
REMARK 924 INTRA-LIGAND FREE ENERGY PREDICTED BY IDOCK:   -0.56 KCAL/MOL
REMARK 927      BINDING AFFINITY PREDICTED BY RF-SCORE:    0.00 PKD
ROOT
HETATM    1  C   UNL     1     -13.287  12.217  71.956  1.00  0.00    -0.491 C  
HETATM    2  C   UNL     1     -13.021  10.757  71.619  1.00  0.00    -0.581 C  
ENDROOT
BRANCH   2   3
HETATM    3  C   UNL     1     -12.271  10.576  70.283  1.00  0.00    -0.311 C  
BRANCH   3   4
HETATM    4  N   UNL     1     -10.807  10.336  70.362  1.00  0.00    -0.291 NA 
BRANCH   4   5
HETATM    5  C   UNL     1     -10.094  10.800  69.108  1.00  0.00    -0.205 C  
BRANCH   5   6
HETATM    6  C   UNL     1     -10.990  10.572  67.884  1.00  0.00    -0.295 C  
HETATM    7  H   UNL     1     -11.400   9.193  66.601  1.00  0.00     0.000 HD 
HETATM    8  O   UNL     1     -10.844   9.334  67.359  1.00  0.00    -0.255 OA 
BRANCH   6   9
HETATM    9  N   UNL     1     -11.767  11.484  67.414  1.00  0.00    -0.609 NA 
HETATM   10  H   UNL     1     -12.772  11.390  67.559  1.00  0.00     0.000 HD 
BRANCH   9  11
HETATM   11  C   UNL     1     -11.288  12.614  66.704  1.00  0.00    -0.326 A  
HETATM   12  C   UNL     1     -10.828  12.577  65.364  1.00  0.00    -0.316 A  
HETATM   13  C   UNL     1     -10.472  13.769  64.709  1.00  0.00    -0.448 A  
HETATM   14  C   UNL     1     -10.650  11.320  64.564  1.00  0.00    -0.401 C  
HETATM   15  C   UNL     1     -10.623  15.001  65.326  1.00  0.00    -0.418 A  
HETATM   16  C   UNL     1     -11.100  15.059  66.629  1.00  0.00    -0.326 A  
HETATM   17  C   UNL     1     -11.423  13.880  67.327  1.00  0.00    -0.369 A  
HETATM   18  C   UNL     1     -11.917  14.014  68.746  1.00  0.00    -0.382 C  
ENDBRANCH   9  11
ENDBRANCH   6   9
ENDBRANCH   5   6
BRANCH   5  19
HETATM   19  C   UNL     1      -8.740  10.097  68.808  1.00  0.00    -0.138 C  
HETATM   20  C   UNL     1      -7.497  10.788  69.370  1.00  0.00    -0.124 C  
ENDBRANCH   5  19
ENDBRANCH   4   5
BRANCH   4  21
HETATM   21  C   UNL     1     -10.529   8.902  70.649  1.00  0.00    -0.221 C  
HETATM   22  C   UNL     1      -9.928   8.551  72.010  1.00  0.00    -0.383 C  
ENDBRANCH   4  21
ENDBRANCH   3   4
ENDBRANCH   2   3
TORSDOF 8
ENDMDL
MODEL       98
REMARK 921   NORMALIZED FREE ENERGY PREDICTED BY IDOCK:   -4.41 KCAL/MOL
REMARK 922        TOTAL FREE ENERGY PREDICTED BY IDOCK:   -7.45 KCAL/MOL
REMARK 923 INTER-LIGAND FREE ENERGY PREDICTED BY IDOCK:   -6.52 KCAL/MOL
REMARK 924 INTRA-LIGAND FREE ENERGY PREDICTED BY IDOCK:   -0.92 KCAL/MOL
REMARK 927      BINDING AFFINITY PREDICTED BY RF-SCORE:    0.00 PKD
ROOT
HETATM    1  C   UNL     1     -12.520  12.050  63.434  1.00  0.00    -0.625 C  
HETATM    2  C   UNL     1     -12.294  13.289  64.288  1.00  0.00    -0.406 C  
ENDROOT
BRANCH   2   3
HETATM    3  C   UNL     1     -10.875  13.351  64.892  1.00  0.00    -0.352 C  
BRANCH   3   4
HETATM    4  N   UNL     1     -10.706  12.818  66.268  1.00  0.00    -0.267 NA 
BRANCH   4   5
HETATM    5  C   UNL     1     -10.435  11.327  66.263  1.00  0.00    -0.258 C  
BRANCH   5   6
HETATM    6  C   UNL     1     -10.342  10.809  67.703  1.00  0.00    -0.201 C  
HETATM    7  H   UNL     1      -9.245  11.025  69.273  1.00  0.00     0.000 HD 
HETATM    8  O   UNL     1      -9.302  11.346  68.381  1.00  0.00    -0.183 OA 
BRANCH   6   9
HETATM    9  N   UNL     1     -11.162   9.939  68.181  1.00  0.00    -0.523 NA 
HETATM   10  H   UNL     1     -11.953   9.648  67.608  1.00  0.00     0.000 HD 
BRANCH   9  11
HETATM   11  C   UNL     1     -11.014   9.368  69.470  1.00  0.00    -0.173 A  
HETATM   12  C   UNL     1     -11.597   9.898  70.648  1.00  0.00    -0.413 A  
HETATM   13  C   UNL     1     -11.482   9.202  71.865  1.00  0.00    -0.423 A  
HETATM   14  C   UNL     1     -12.328  11.207  70.717  1.00  0.00    -0.504 C  
HETATM   15  C   UNL     1     -10.862   7.964  71.929  1.00  0.00    -0.295 A  
HETATM   16  C   UNL     1     -10.310   7.416  70.779  1.00  0.00    -0.208 A  
HETATM   17  C   UNL     1     -10.369   8.109  69.555  1.00  0.00    -0.222 A  
HETATM   18  C   UNL     1      -9.732   7.465  68.348  1.00  0.00    -0.158 C  
ENDBRANCH   9  11
ENDBRANCH   6   9
ENDBRANCH   5   6
BRANCH   5  19
HETATM   19  C   UNL     1      -9.129  10.886  65.544  1.00  0.00    -0.221 C  
HETATM   20  C   UNL     1      -9.320  10.173  64.204  1.00  0.00    -0.340 C  
ENDBRANCH   5  19
ENDBRANCH   4   5
BRANCH   4  21
HETATM   21  C   UNL     1     -11.889  13.154  67.105  1.00  0.00    -0.369 C  
HETATM   22  C   UNL     1     -11.694  14.151  68.249  1.00  0.00    -0.383 C  
ENDBRANCH   4  21
ENDBRANCH   3   4
ENDBRANCH   2   3
TORSDOF 8
ENDMDL
MODEL       99
REMARK 921   NORMALIZED FREE ENERGY PREDICTED BY IDOCK:   -4.38 KCAL/MOL
REMARK 922        TOTAL FREE ENERGY PREDICTED BY IDOCK:   -7.40 KCAL/MOL
REMARK 923 INTER-LIGAND FREE ENERGY PREDICTED BY IDOCK:   -6.50 KCAL/MOL
REMARK 924 INTRA-LIGAND FREE ENERGY PREDICTED BY IDOCK:   -0.90 KCAL/MOL
REMARK 927      BINDING AFFINITY PREDICTED BY RF-SCORE:    0.00 PKD
ROOT
HETATM    1  C   UNL     1      -5.927  20.400  64.109  1.00  0.00    -0.328 C  
HETATM    2  C   UNL     1      -6.044  19.149  64.968  1.00  0.00    -0.316 C  
ENDROOT
BRANCH   2   3
HETATM    3  C   UNL     1      -7.343  19.111  65.800  1.00  0.00    -0.218 C  
BRANCH   3   4
HETATM    4  N   UNL     1      -7.421  18.092  66.878  1.00  0.00    -0.203 NA 
BRANCH   4   5
HETATM    5  C   UNL     1      -8.853  17.830  67.300  1.00  0.00    -0.238 C  
BRANCH   5   6
HETATM    6  C   UNL     1      -9.241  16.387  66.960  1.00  0.00    -0.221 C  
HETATM    7  H   UNL     1      -8.434  14.767  66.294  1.00  0.00     0.000 HD 
HETATM    8  O   UNL     1      -8.193  15.662  66.505  1.00  0.00    -0.264 OA 
BRANCH   6   9
HETATM    9  N   UNL     1     -10.444  15.945  67.079  1.00  0.00    -0.303 NA 
HETATM   10  H   UNL     1     -11.114  16.496  67.615  1.00  0.00     0.000 HD 
BRANCH   9  11
HETATM   11  C   UNL     1     -10.879  14.727  66.499  1.00  0.00    -0.319 A  
HETATM   12  C   UNL     1     -11.000  13.505  67.207  1.00  0.00    -0.293 A  
HETATM   13  C   UNL     1     -11.542  12.374  66.571  1.00  0.00    -0.447 A  
HETATM   14  C   UNL     1     -10.550  13.299  68.623  1.00  0.00    -0.264 C  
HETATM   15  C   UNL     1     -12.027  12.441  65.275  1.00  0.00    -0.461 A  
HETATM   16  C   UNL     1     -11.944  13.638  64.576  1.00  0.00    -0.454 A  
HETATM   17  C   UNL     1     -11.366  14.777  65.168  1.00  0.00    -0.379 A  
HETATM   18  C   UNL     1     -11.290  16.039  64.346  1.00  0.00    -0.253 C  
ENDBRANCH   9  11
ENDBRANCH   6   9
ENDBRANCH   5   6
BRANCH   5  19
HETATM   19  C   UNL     1      -9.923  18.748  66.645  1.00  0.00    -0.400 C  
HETATM   20  C   UNL     1     -10.583  19.765  67.577  1.00  0.00    -0.544 C  
ENDBRANCH   5  19
ENDBRANCH   4   5
BRANCH   4  21
HETATM   21  C   UNL     1      -6.575  18.492  68.035  1.00  0.00    -0.215 C  
HETATM   22  C   UNL     1      -7.023  19.698  68.862  1.00  0.00    -0.382 C  
ENDBRANCH   4  21
ENDBRANCH   3   4
ENDBRANCH   2   3
TORSDOF 8
ENDMDL
MODEL      100
REMARK 921   NORMALIZED FREE ENERGY PREDICTED BY IDOCK:   -4.38 KCAL/MOL
REMARK 922        TOTAL FREE ENERGY PREDICTED BY IDOCK:   -7.40 KCAL/MOL
REMARK 923 INTER-LIGAND FREE ENERGY PREDICTED BY IDOCK:   -6.47 KCAL/MOL
REMARK 924 INTRA-LIGAND FREE ENERGY PREDICTED BY IDOCK:   -0.93 KCAL/MOL
REMARK 927      BINDING AFFINITY PREDICTED BY RF-SCORE:    0.00 PKD
ROOT
HETATM    1  C   UNL     1     -12.881  10.372  71.590  1.00  0.00    -0.579 C  
HETATM    2  C   UNL     1     -12.304  11.558  70.831  1.00  0.00    -0.460 C  
ENDROOT
BRANCH   2   3
HETATM    3  C   UNL     1     -11.927  11.213  69.374  1.00  0.00    -0.349 C  
BRANCH   3   4
HETATM    4  N   UNL     1     -10.488  11.298  69.015  1.00  0.00    -0.212 NA 
BRANCH   4   5
HETATM    5  C   UNL     1     -10.281  12.009  67.692  1.00  0.00    -0.199 C  
BRANCH   5   6
HETATM    6  C   UNL     1     -10.091  13.511  67.932  1.00  0.00    -0.248 C  
HETATM    7  H   UNL     1      -8.737  14.740  68.543  1.00  0.00     0.000 HD 
HETATM    8  O   UNL     1      -8.855  13.809  68.394  1.00  0.00    -0.181 OA 
BRANCH   6   9
HETATM    9  N   UNL     1     -11.028  14.370  67.732  1.00  0.00    -0.268 NA 
HETATM   10  H   UNL     1     -11.986  14.034  67.642  1.00  0.00     0.000 HD 
BRANCH   9  11
HETATM   11  C   UNL     1     -10.788  15.763  67.631  1.00  0.00    -0.310 A  
HETATM   12  C   UNL     1     -10.669  16.634  68.744  1.00  0.00    -0.342 A  
HETATM   13  C   UNL     1     -10.324  17.983  68.549  1.00  0.00    -0.359 A  
HETATM   14  C   UNL     1     -10.922  16.229  70.166  1.00  0.00    -0.335 C  
HETATM   15  C   UNL     1     -10.031  18.474  67.286  1.00  0.00    -0.350 A  
HETATM   16  C   UNL     1     -10.114  17.629  66.188  1.00  0.00    -0.307 A  
HETATM   17  C   UNL     1     -10.500  16.284  66.345  1.00  0.00    -0.297 A  
HETATM   18  C   UNL     1     -10.588  15.426  65.108  1.00  0.00    -0.458 C  
ENDBRANCH   9  11
ENDBRANCH   6   9
ENDBRANCH   5   6
BRANCH   5  19
HETATM   19  C   UNL     1     -11.438  11.863  66.665  1.00  0.00    -0.382 C  
HETATM   20  C   UNL     1     -11.011  11.700  65.206  1.00  0.00    -0.327 C  
ENDBRANCH   5  19
ENDBRANCH   4   5
BRANCH   4  21
HETATM   21  C   UNL     1      -9.872   9.944  69.008  1.00  0.00    -0.190 C  
HETATM   22  C   UNL     1      -9.347   9.393  70.335  1.00  0.00    -0.317 C  
ENDBRANCH   4  21
ENDBRANCH   3   4
ENDBRANCH   2   3
TORSDOF 8
ENDMDL
MODEL      101
REMARK 921   NORMALIZED FREE ENERGY PREDICTED BY IDOCK:   -4.37 KCAL/MOL
REMARK 922        TOTAL FREE ENERGY PREDICTED BY IDOCK:   -7.39 KCAL/MOL
REMARK 923 INTER-LIGAND FREE ENERGY PREDICTED BY IDOCK:   -6.64 KCAL/MOL
REMARK 924 INTRA-LIGAND FREE ENERGY PREDICTED BY IDOCK:   -0.75 KCAL/MOL
REMARK 927      BINDING AFFINITY PREDICTED BY RF-SCORE:    0.00 PKD
ROOT
HETATM    1  C   UNL     1      -9.753  10.604  66.675  1.00  0.00    -0.225 C  
HETATM    2  C   UNL     1      -9.781  11.819  65.758  1.00  0.00    -0.260 C  
ENDROOT
BRANCH   2   3
HETATM    3  C   UNL     1     -10.704  12.942  66.276  1.00  0.00    -0.274 C  
BRANCH   3   4
HETATM    4  N   UNL     1     -10.723  14.208  65.500  1.00  0.00    -0.308 NA 
BRANCH   4   5
HETATM    5  C   UNL     1     -10.569  15.419  66.397  1.00  0.00    -0.307 C  
BRANCH   5   6
HETATM    6  C   UNL     1      -9.125  15.933  66.337  1.00  0.00    -0.320 C  
HETATM    7  H   UNL     1      -7.371  15.462  66.984  1.00  0.00     0.000 HD 
HETATM    8  O   UNL     1      -8.266  15.143  67.021  1.00  0.00    -0.205 OA 
BRANCH   6   9
HETATM    9  N   UNL     1      -8.798  17.013  65.718  1.00  0.00    -0.493 NA 
HETATM   10  H   UNL     1      -8.926  17.052  64.707  1.00  0.00     0.000 HD 
BRANCH   9  11
HETATM   11  C   UNL     1      -8.269  18.149  66.378  1.00  0.00    -0.253 A  
HETATM   12  C   UNL     1      -6.891  18.340  66.655  1.00  0.00    -0.230 A  
HETATM   13  C   UNL     1      -6.448  19.550  67.220  1.00  0.00    -0.210 A  
HETATM   14  C   UNL     1      -5.829  17.308  66.418  1.00  0.00    -0.222 C  
HETATM   15  C   UNL     1      -7.325  20.597  67.454  1.00  0.00    -0.384 A  
HETATM   16  C   UNL     1      -8.673  20.439  67.162  1.00  0.00    -0.413 A  
HETATM   17  C   UNL     1      -9.155  19.224  66.638  1.00  0.00    -0.374 A  
HETATM   18  C   UNL     1     -10.634  19.113  66.361  1.00  0.00    -0.522 C  
ENDBRANCH   9  11
ENDBRANCH   6   9
ENDBRANCH   5   6
BRANCH   5  19
HETATM   19  C   UNL     1     -10.898  15.186  67.898  1.00  0.00    -0.291 C  
HETATM   20  C   UNL     1     -11.041  16.450  68.748  1.00  0.00    -0.337 C  
ENDBRANCH   5  19
ENDBRANCH   4   5
BRANCH   4  21
HETATM   21  C   UNL     1     -11.958  14.294  64.674  1.00  0.00    -0.455 C  
HETATM   22  C   UNL     1     -12.148  13.259  63.565  1.00  0.00    -0.550 C  
ENDBRANCH   4  21
ENDBRANCH   3   4
ENDBRANCH   2   3
TORSDOF 8
ENDMDL
MODEL      102
REMARK 921   NORMALIZED FREE ENERGY PREDICTED BY IDOCK:   -4.37 KCAL/MOL
REMARK 922        TOTAL FREE ENERGY PREDICTED BY IDOCK:   -7.38 KCAL/MOL
REMARK 923 INTER-LIGAND FREE ENERGY PREDICTED BY IDOCK:   -6.44 KCAL/MOL
REMARK 924 INTRA-LIGAND FREE ENERGY PREDICTED BY IDOCK:   -0.95 KCAL/MOL
REMARK 927      BINDING AFFINITY PREDICTED BY RF-SCORE:    0.00 PKD
ROOT
HETATM    1  C   UNL     1     -11.141   5.274  72.701  1.00  0.00    -0.319 C  
HETATM    2  C   UNL     1     -12.125   6.322  72.203  1.00  0.00    -0.304 C  
ENDROOT
BRANCH   2   3
HETATM    3  C   UNL     1     -11.654   7.022  70.910  1.00  0.00    -0.328 C  
BRANCH   3   4
HETATM    4  N   UNL     1     -11.771   8.502  70.866  1.00  0.00    -0.272 NA 
BRANCH   4   5
HETATM    5  C   UNL     1     -10.413   9.172  70.837  1.00  0.00    -0.278 C  
BRANCH   5   6
HETATM    6  C   UNL     1     -10.173   9.806  69.462  1.00  0.00    -0.221 C  
HETATM    7  H   UNL     1      -8.795  10.753  68.503  1.00  0.00     0.000 HD 
HETATM    8  O   UNL     1      -8.944  10.361  69.355  1.00  0.00    -0.194 OA 
BRANCH   6   9
HETATM    9  N   UNL     1     -11.068   9.817  68.537  1.00  0.00    -0.462 NA 
HETATM   10  H   UNL     1     -11.976   9.396  68.733  1.00  0.00     0.000 HD 
BRANCH   9  11
HETATM   11  C   UNL     1     -10.848  10.389  67.259  1.00  0.00    -0.264 A  
HETATM   12  C   UNL     1     -11.078  11.752  66.946  1.00  0.00    -0.361 A  
HETATM   13  C   UNL     1     -10.730  12.252  65.678  1.00  0.00    -0.302 A  
HETATM   14  C   UNL     1     -11.718  12.739  67.878  1.00  0.00    -0.408 C  
HETATM   15  C   UNL     1     -10.100  11.451  64.738  1.00  0.00    -0.326 A  
HETATM   16  C   UNL     1      -9.840  10.120  65.039  1.00  0.00    -0.392 A  
HETATM   17  C   UNL     1     -10.217   9.578  66.282  1.00  0.00    -0.290 A  
HETATM   18  C   UNL     1      -9.922   8.121  66.535  1.00  0.00    -0.302 C  
ENDBRANCH   9  11
ENDBRANCH   6   9
ENDBRANCH   5   6
BRANCH   5  19
HETATM   19  C   UNL     1      -9.201   8.241  71.119  1.00  0.00    -0.200 C  
HETATM   20  C   UNL     1      -8.536   8.414  72.486  1.00  0.00    -0.253 C  
ENDBRANCH   5  19
ENDBRANCH   4   5
BRANCH   4  21
HETATM   21  C   UNL     1     -12.598   8.993  72.002  1.00  0.00    -0.394 C  
HETATM   22  C   UNL     1     -13.149  10.417  71.920  1.00  0.00    -0.563 C  
ENDBRANCH   4  21
ENDBRANCH   3   4
ENDBRANCH   2   3
TORSDOF 8
ENDMDL
MODEL      103
REMARK 921   NORMALIZED FREE ENERGY PREDICTED BY IDOCK:   -4.37 KCAL/MOL
REMARK 922        TOTAL FREE ENERGY PREDICTED BY IDOCK:   -7.38 KCAL/MOL
REMARK 923 INTER-LIGAND FREE ENERGY PREDICTED BY IDOCK:   -6.84 KCAL/MOL
REMARK 924 INTRA-LIGAND FREE ENERGY PREDICTED BY IDOCK:   -0.54 KCAL/MOL
REMARK 927      BINDING AFFINITY PREDICTED BY RF-SCORE:    0.00 PKD
ROOT
HETATM    1  C   UNL     1     -12.654  11.977  63.690  1.00  0.00    -0.605 C  
HETATM    2  C   UNL     1     -12.005  13.340  63.885  1.00  0.00    -0.541 C  
ENDROOT
BRANCH   2   3
HETATM    3  C   UNL     1     -12.054  13.824  65.349  1.00  0.00    -0.407 C  
BRANCH   3   4
HETATM    4  N   UNL     1     -10.755  14.156  65.991  1.00  0.00    -0.294 NA 
BRANCH   4   5
HETATM    5  C   UNL     1     -10.358  13.120  67.022  1.00  0.00    -0.249 C  
BRANCH   5   6
HETATM    6  C   UNL     1     -11.586  12.697  67.836  1.00  0.00    -0.349 C  
HETATM    7  H   UNL     1     -12.910  13.470  69.005  1.00  0.00     0.000 HD 
HETATM    8  O   UNL     1     -12.149  13.732  68.501  1.00  0.00    -0.363 OA 
BRANCH   6   9
HETATM    9  N   UNL     1     -12.001  11.479  67.885  1.00  0.00    -0.641 NA 
HETATM   10  H   UNL     1     -12.890  11.250  67.442  1.00  0.00     0.000 HD 
BRANCH   9  11
HETATM   11  C   UNL     1     -11.277  10.444  68.526  1.00  0.00    -0.251 A  
HETATM   12  C   UNL     1     -10.360   9.586  67.867  1.00  0.00    -0.276 A  
HETATM   13  C   UNL     1      -9.608   8.657  68.608  1.00  0.00    -0.159 A  
HETATM   14  C   UNL     1     -10.139   9.563  66.383  1.00  0.00    -0.328 C  
HETATM   15  C   UNL     1      -9.694   8.601  69.990  1.00  0.00    -0.176 A  
HETATM   16  C   UNL     1     -10.565   9.454  70.655  1.00  0.00    -0.354 A  
HETATM   17  C   UNL     1     -11.365  10.365  69.939  1.00  0.00    -0.370 A  
HETATM   18  C   UNL     1     -12.303  11.248  70.722  1.00  0.00    -0.495 C  
ENDBRANCH   9  11
ENDBRANCH   6   9
ENDBRANCH   5   6
BRANCH   5  19
HETATM   19  C   UNL     1      -9.278  13.571  68.044  1.00  0.00    -0.209 C  
HETATM   20  C   UNL     1      -8.158  12.564  68.312  1.00  0.00    -0.165 C  
ENDBRANCH   5  19
ENDBRANCH   4   5
BRANCH   4  21
HETATM   21  C   UNL     1     -10.799  15.523  66.579  1.00  0.00    -0.284 C  
HETATM   22  C   UNL     1     -10.257  16.679  65.738  1.00  0.00    -0.328 C  
ENDBRANCH   4  21
ENDBRANCH   3   4
ENDBRANCH   2   3
TORSDOF 8
ENDMDL
MODEL      104
REMARK 921   NORMALIZED FREE ENERGY PREDICTED BY IDOCK:   -4.34 KCAL/MOL
REMARK 922        TOTAL FREE ENERGY PREDICTED BY IDOCK:   -7.35 KCAL/MOL
REMARK 923 INTER-LIGAND FREE ENERGY PREDICTED BY IDOCK:   -6.25 KCAL/MOL
REMARK 924 INTRA-LIGAND FREE ENERGY PREDICTED BY IDOCK:   -1.09 KCAL/MOL
REMARK 927      BINDING AFFINITY PREDICTED BY RF-SCORE:    0.00 PKD
ROOT
HETATM    1  C   UNL     1     -12.951  10.376  71.603  1.00  0.00    -0.581 C  
HETATM    2  C   UNL     1     -12.438  11.569  70.809  1.00  0.00    -0.444 C  
ENDROOT
BRANCH   2   3
HETATM    3  C   UNL     1     -11.879  11.174  69.426  1.00  0.00    -0.345 C  
BRANCH   3   4
HETATM    4  N   UNL     1     -10.425  11.382  69.205  1.00  0.00    -0.172 NA 
BRANCH   4   5
HETATM    5  C   UNL     1     -10.149  12.030  67.863  1.00  0.00    -0.195 C  
BRANCH   5   6
HETATM    6  C   UNL     1      -9.944  13.539  68.046  1.00  0.00    -0.248 C  
HETATM    7  H   UNL     1      -8.544  14.786  68.494  1.00  0.00     0.000 HD 
HETATM    8  O   UNL     1      -8.671  13.851  68.381  1.00  0.00    -0.178 OA 
BRANCH   6   9
HETATM    9  N   UNL     1     -10.900  14.390  67.913  1.00  0.00    -0.247 NA 
HETATM   10  H   UNL     1     -11.858  14.074  68.062  1.00  0.00     0.000 HD 
BRANCH   9  11
HETATM   11  C   UNL     1     -10.681  15.748  67.570  1.00  0.00    -0.317 A  
HETATM   12  C   UNL     1     -10.489  16.214  66.245  1.00  0.00    -0.321 A  
HETATM   13  C   UNL     1     -10.385  17.594  65.993  1.00  0.00    -0.305 A  
HETATM   14  C   UNL     1     -10.350  15.323  65.046  1.00  0.00    -0.375 C  
HETATM   15  C   UNL     1     -10.532  18.524  67.010  1.00  0.00    -0.440 A  
HETATM   16  C   UNL     1     -10.749  18.086  68.310  1.00  0.00    -0.208 A  
HETATM   17  C   UNL     1     -10.813  16.710  68.602  1.00  0.00    -0.344 A  
HETATM   18  C   UNL     1     -11.032  16.304  70.038  1.00  0.00    -0.356 C  
ENDBRANCH   9  11
ENDBRANCH   6   9
ENDBRANCH   5   6
BRANCH   5  19
HETATM   19  C   UNL     1     -11.263  11.856  66.794  1.00  0.00    -0.384 C  
HETATM   20  C   UNL     1     -10.778  11.521  65.382  1.00  0.00    -0.335 C  
ENDBRANCH   5  19
ENDBRANCH   4   5
BRANCH   4  21
HETATM   21  C   UNL     1      -9.687  10.098  69.353  1.00  0.00    -0.229 C  
HETATM   22  C   UNL     1     -10.456   8.800  69.104  1.00  0.00    -0.230 C  
ENDBRANCH   4  21
ENDBRANCH   3   4
ENDBRANCH   2   3
TORSDOF 8
ENDMDL
MODEL      105
REMARK 921   NORMALIZED FREE ENERGY PREDICTED BY IDOCK:   -4.34 KCAL/MOL
REMARK 922        TOTAL FREE ENERGY PREDICTED BY IDOCK:   -7.35 KCAL/MOL
REMARK 923 INTER-LIGAND FREE ENERGY PREDICTED BY IDOCK:   -6.89 KCAL/MOL
REMARK 924 INTRA-LIGAND FREE ENERGY PREDICTED BY IDOCK:   -0.45 KCAL/MOL
REMARK 927      BINDING AFFINITY PREDICTED BY RF-SCORE:    0.00 PKD
ROOT
HETATM    1  C   UNL     1     -10.481   7.679  67.327  1.00  0.00    -0.396 C  
HETATM    2  C   UNL     1     -10.139   8.983  66.621  1.00  0.00    -0.355 C  
ENDROOT
BRANCH   2   3
HETATM    3  C   UNL     1     -10.288  10.217  67.536  1.00  0.00    -0.229 C  
BRANCH   3   4
HETATM    4  N   UNL     1     -11.427  11.130  67.252  1.00  0.00    -0.501 NA 
BRANCH   4   5
HETATM    5  C   UNL     1     -11.070  12.162  66.202  1.00  0.00    -0.312 C  
BRANCH   5   6
HETATM    6  C   UNL     1     -10.546  13.434  66.877  1.00  0.00    -0.273 C  
HETATM    7  H   UNL     1      -8.901  14.148  67.586  1.00  0.00     0.000 HD 
HETATM    8  O   UNL     1      -9.226  13.360  67.168  1.00  0.00    -0.221 OA 
BRANCH   6   9
HETATM    9  N   UNL     1     -11.303  14.438  67.151  1.00  0.00    -0.328 NA 
HETATM   10  H   UNL     1     -12.305  14.278  67.255  1.00  0.00     0.000 HD 
BRANCH   9  11
HETATM   11  C   UNL     1     -10.808  15.756  67.312  1.00  0.00    -0.298 A  
HETATM   12  C   UNL     1     -10.403  16.308  68.554  1.00  0.00    -0.261 A  
HETATM   13  C   UNL     1      -9.825  17.589  68.599  1.00  0.00    -0.338 A  
HETATM   14  C   UNL     1     -10.577  15.628  69.880  1.00  0.00    -0.328 C  
HETATM   15  C   UNL     1      -9.577  18.307  67.439  1.00  0.00    -0.284 A  
HETATM   16  C   UNL     1      -9.940  17.769  66.212  1.00  0.00    -0.322 A  
HETATM   17  C   UNL     1     -10.563  16.509  66.137  1.00  0.00    -0.239 A  
HETATM   18  C   UNL     1     -10.948  15.993  64.773  1.00  0.00    -0.373 C  
ENDBRANCH   9  11
ENDBRANCH   6   9
ENDBRANCH   5   6
BRANCH   5  19
HETATM   19  C   UNL     1     -12.234  12.597  65.269  1.00  0.00    -0.532 C  
HETATM   20  C   UNL     1     -11.994  12.396  63.772  1.00  0.00    -0.600 C  
ENDBRANCH   5  19
ENDBRANCH   4   5
BRANCH   4  21
HETATM   21  C   UNL     1     -11.905  11.771  68.507  1.00  0.00    -0.303 C  
HETATM   22  C   UNL     1     -11.625  11.051  69.827  1.00  0.00    -0.401 C  
ENDBRANCH   4  21
ENDBRANCH   3   4
ENDBRANCH   2   3
TORSDOF 8
ENDMDL
MODEL      106
REMARK 921   NORMALIZED FREE ENERGY PREDICTED BY IDOCK:   -4.33 KCAL/MOL
REMARK 922        TOTAL FREE ENERGY PREDICTED BY IDOCK:   -7.33 KCAL/MOL
REMARK 923 INTER-LIGAND FREE ENERGY PREDICTED BY IDOCK:   -6.35 KCAL/MOL
REMARK 924 INTRA-LIGAND FREE ENERGY PREDICTED BY IDOCK:   -0.98 KCAL/MOL
REMARK 927      BINDING AFFINITY PREDICTED BY RF-SCORE:    0.00 PKD
ROOT
HETATM    1  C   UNL     1     -10.315  16.346  68.241  1.00  0.00    -0.279 C  
HETATM    2  C   UNL     1     -10.800  15.582  67.018  1.00  0.00    -0.314 C  
ENDROOT
BRANCH   2   3
HETATM    3  C   UNL     1     -11.425  14.216  67.371  1.00  0.00    -0.345 C  
BRANCH   3   4
HETATM    4  N   UNL     1     -11.010  13.053  66.546  1.00  0.00    -0.282 NA 
BRANCH   4   5
HETATM    5  C   UNL     1     -10.141  12.090  67.330  1.00  0.00    -0.194 C  
BRANCH   5   6
HETATM    6  C   UNL     1     -10.970  11.418  68.431  1.00  0.00    -0.215 C  
HETATM    7  H   UNL     1     -12.679  10.556  68.662  1.00  0.00     0.000 HD 
HETATM    8  O   UNL     1     -12.165  10.973  67.980  1.00  0.00    -0.520 OA 
BRANCH   6   9
HETATM    9  N   UNL     1     -10.561  11.323  69.647  1.00  0.00    -0.454 NA 
HETATM   10  H   UNL     1     -10.058  12.111  70.055  1.00  0.00     0.000 HD 
BRANCH   9  11
HETATM   11  C   UNL     1     -10.780  10.173  70.446  1.00  0.00    -0.266 A  
HETATM   12  C   UNL     1     -11.924   9.973  71.258  1.00  0.00    -0.483 A  
HETATM   13  C   UNL     1     -12.103   8.752  71.934  1.00  0.00    -0.433 A  
HETATM   14  C   UNL     1     -12.986  11.006  71.495  1.00  0.00    -0.553 C  
HETATM   15  C   UNL     1     -11.212   7.703  71.771  1.00  0.00    -0.285 A  
HETATM   16  C   UNL     1     -10.100   7.872  70.956  1.00  0.00    -0.212 A  
HETATM   17  C   UNL     1      -9.869   9.097  70.302  1.00  0.00    -0.245 A  
HETATM   18  C   UNL     1      -8.632   9.218  69.447  1.00  0.00    -0.142 C  
ENDBRANCH   9  11
ENDBRANCH   6   9
ENDBRANCH   5   6
BRANCH   5  19
HETATM   19  C   UNL     1      -8.902  12.720  68.024  1.00  0.00    -0.195 C  
HETATM   20  C   UNL     1      -7.542  12.277  67.481  1.00  0.00    -0.155 C  
ENDBRANCH   5  19
ENDBRANCH   4   5
BRANCH   4  21
HETATM   21  C   UNL     1     -10.332  13.512  65.303  1.00  0.00    -0.331 C  
HETATM   22  C   UNL     1     -10.499  12.661  64.043  1.00  0.00    -0.443 C  
ENDBRANCH   4  21
ENDBRANCH   3   4
ENDBRANCH   2   3
TORSDOF 8
ENDMDL
MODEL      107
REMARK 921   NORMALIZED FREE ENERGY PREDICTED BY IDOCK:   -4.32 KCAL/MOL
REMARK 922        TOTAL FREE ENERGY PREDICTED BY IDOCK:   -7.32 KCAL/MOL
REMARK 923 INTER-LIGAND FREE ENERGY PREDICTED BY IDOCK:   -6.06 KCAL/MOL
REMARK 924 INTRA-LIGAND FREE ENERGY PREDICTED BY IDOCK:   -1.26 KCAL/MOL
REMARK 927      BINDING AFFINITY PREDICTED BY RF-SCORE:    0.00 PKD
ROOT
HETATM    1  C   UNL     1     -11.883  10.662  70.277  1.00  0.00    -0.430 C  
HETATM    2  C   UNL     1     -11.621  11.148  68.859  1.00  0.00    -0.385 C  
ENDROOT
BRANCH   2   3
HETATM    3  C   UNL     1     -11.859  12.664  68.691  1.00  0.00    -0.302 C  
BRANCH   3   4
HETATM    4  N   UNL     1     -11.286  13.303  67.478  1.00  0.00    -0.270 NA 
BRANCH   4   5
HETATM    5  C   UNL     1     -10.574  14.599  67.810  1.00  0.00    -0.251 C  
BRANCH   5   6
HETATM    6  C   UNL     1      -9.258  14.686  67.029  1.00  0.00    -0.239 C  
HETATM    7  H   UNL     1      -7.674  13.639  66.700  1.00  0.00     0.000 HD 
HETATM    8  O   UNL     1      -8.489  13.584  67.185  1.00  0.00    -0.196 OA 
BRANCH   6   9
HETATM    9  N   UNL     1      -8.934  15.716  66.328  1.00  0.00    -0.324 NA 
HETATM   10  H   UNL     1      -8.423  15.572  65.458  1.00  0.00     0.000 HD 
BRANCH   9  11
HETATM   11  C   UNL     1      -9.255  17.042  66.713  1.00  0.00    -0.252 A  
HETATM   12  C   UNL     1      -8.545  17.782  67.693  1.00  0.00    -0.230 A  
HETATM   13  C   UNL     1      -8.872  19.129  67.931  1.00  0.00    -0.345 A  
HETATM   14  C   UNL     1      -7.454  17.217  68.554  1.00  0.00    -0.241 C  
HETATM   15  C   UNL     1      -9.838  19.778  67.179  1.00  0.00    -0.513 A  
HETATM   16  C   UNL     1     -10.523  19.077  66.195  1.00  0.00    -0.541 A  
HETATM   17  C   UNL     1     -10.251  17.716  65.962  1.00  0.00    -0.301 A  
HETATM   18  C   UNL     1     -11.045  17.010  64.892  1.00  0.00     0.141 C  
ENDBRANCH   9  11
ENDBRANCH   6   9
ENDBRANCH   5   6
BRANCH   5  19
HETATM   19  C   UNL     1     -10.219  14.802  69.309  1.00  0.00    -0.193 C  
HETATM   20  C   UNL     1     -10.817  16.047  69.969  1.00  0.00    -0.353 C  
ENDBRANCH   5  19
ENDBRANCH   4   5
BRANCH   4  21
HETATM   21  C   UNL     1     -12.342  13.508  66.450  1.00  0.00    -0.357 C  
HETATM   22  C   UNL     1     -12.123  12.886  65.070  1.00  0.00    -0.480 C  
ENDBRANCH   4  21
ENDBRANCH   3   4
ENDBRANCH   2   3
TORSDOF 8
ENDMDL
MODEL      108
REMARK 921   NORMALIZED FREE ENERGY PREDICTED BY IDOCK:   -4.32 KCAL/MOL
REMARK 922        TOTAL FREE ENERGY PREDICTED BY IDOCK:   -7.31 KCAL/MOL
REMARK 923 INTER-LIGAND FREE ENERGY PREDICTED BY IDOCK:   -6.26 KCAL/MOL
REMARK 924 INTRA-LIGAND FREE ENERGY PREDICTED BY IDOCK:   -1.05 KCAL/MOL
REMARK 927      BINDING AFFINITY PREDICTED BY RF-SCORE:    0.00 PKD
ROOT
HETATM    1  C   UNL     1     -12.019   7.371  72.321  1.00  0.00    -0.277 C  
HETATM    2  C   UNL     1     -12.425   6.927  70.923  1.00  0.00    -0.314 C  
ENDROOT
BRANCH   2   3
HETATM    3  C   UNL     1     -11.219   6.534  70.044  1.00  0.00    -0.393 C  
BRANCH   3   4
HETATM    4  N   UNL     1     -10.195   7.583  69.799  1.00  0.00    -0.206 NA 
BRANCH   4   5
HETATM    5  C   UNL     1     -10.042   7.883  68.322  1.00  0.00    -0.194 C  
BRANCH   5   6
HETATM    6  C   UNL     1     -10.235   9.383  68.072  1.00  0.00    -0.204 C  
HETATM    7  H   UNL     1      -9.184  10.992  67.911  1.00  0.00     0.000 HD 
HETATM    8  O   UNL     1      -9.064  10.062  68.067  1.00  0.00    -0.131 OA 
BRANCH   6   9
HETATM    9  N   UNL     1     -11.395   9.917  67.913  1.00  0.00    -0.538 NA 
HETATM   10  H   UNL     1     -12.132   9.360  67.482  1.00  0.00     0.000 HD 
BRANCH   9  11
HETATM   11  C   UNL     1     -11.694  11.244  68.311  1.00  0.00    -0.274 A  
HETATM   12  C   UNL     1     -11.909  11.644  69.654  1.00  0.00    -0.419 A  
HETATM   13  C   UNL     1     -12.095  13.003  69.963  1.00  0.00    -0.367 A  
HETATM   14  C   UNL     1     -11.993  10.698  70.816  1.00  0.00    -0.477 C  
HETATM   15  C   UNL     1     -12.007  13.981  68.985  1.00  0.00    -0.392 A  
HETATM   16  C   UNL     1     -11.767  13.610  67.668  1.00  0.00    -0.398 A  
HETATM   17  C   UNL     1     -11.621  12.254  67.319  1.00  0.00    -0.427 A  
HETATM   18  C   UNL     1     -11.382  11.921  65.868  1.00  0.00    -0.365 C  
ENDBRANCH   9  11
ENDBRANCH   6   9
ENDBRANCH   5   6
BRANCH   5  19
HETATM   19  C   UNL     1     -11.033   7.142  67.382  1.00  0.00    -0.296 C  
HETATM   20  C   UNL     1     -10.444   5.973  66.589  1.00  0.00    -0.291 C  
ENDBRANCH   5  19
ENDBRANCH   4   5
BRANCH   4  21
HETATM   21  C   UNL     1      -8.897   7.197  70.416  1.00  0.00    -0.151 C  
HETATM   22  C   UNL     1      -8.290   8.145  71.451  1.00  0.00    -0.146 C  
ENDBRANCH   4  21
ENDBRANCH   3   4
ENDBRANCH   2   3
TORSDOF 8
ENDMDL
MODEL      109
REMARK 921   NORMALIZED FREE ENERGY PREDICTED BY IDOCK:   -4.32 KCAL/MOL
REMARK 922        TOTAL FREE ENERGY PREDICTED BY IDOCK:   -7.31 KCAL/MOL
REMARK 923 INTER-LIGAND FREE ENERGY PREDICTED BY IDOCK:   -6.18 KCAL/MOL
REMARK 924 INTRA-LIGAND FREE ENERGY PREDICTED BY IDOCK:   -1.13 KCAL/MOL
REMARK 927      BINDING AFFINITY PREDICTED BY RF-SCORE:    0.00 PKD
ROOT
HETATM    1  C   UNL     1      -6.836  19.672  65.521  1.00  0.00    -0.321 C  
HETATM    2  C   UNL     1      -6.884  18.184  65.836  1.00  0.00    -0.333 C  
ENDROOT
BRANCH   2   3
HETATM    3  C   UNL     1      -8.234  17.741  66.440  1.00  0.00    -0.255 C  
BRANCH   3   4
HETATM    4  N   UNL     1      -8.549  16.290  66.388  1.00  0.00    -0.299 NA 
BRANCH   4   5
HETATM    5  C   UNL     1      -9.841  15.971  67.112  1.00  0.00    -0.236 C  
BRANCH   5   6
HETATM    6  C   UNL     1     -10.884  15.454  66.114  1.00  0.00    -0.313 C  
HETATM    7  H   UNL     1     -11.394  15.690  64.269  1.00  0.00     0.000 HD 
HETATM    8  O   UNL     1     -10.748  16.011  64.888  1.00  0.00    -0.576 OA 
BRANCH   6   9
HETATM    9  N   UNL     1     -11.794  14.604  66.438  1.00  0.00    -0.338 NA 
HETATM   10  H   UNL     1     -12.763  14.919  66.480  1.00  0.00     0.000 HD 
BRANCH   9  11
HETATM   11  C   UNL     1     -11.509  13.249  66.740  1.00  0.00    -0.350 A  
HETATM   12  C   UNL     1     -10.938  12.331  65.823  1.00  0.00    -0.338 A  
HETATM   13  C   UNL     1     -10.594  11.035  66.246  1.00  0.00    -0.295 A  
HETATM   14  C   UNL     1     -10.691  12.626  64.372  1.00  0.00    -0.384 C  
HETATM   15  C   UNL     1     -10.740  10.648  67.569  1.00  0.00    -0.321 A  
HETATM   16  C   UNL     1     -11.270  11.544  68.488  1.00  0.00    -0.315 A  
HETATM   17  C   UNL     1     -11.667  12.834  68.086  1.00  0.00    -0.392 A  
HETATM   18  C   UNL     1     -12.253  13.749  69.131  1.00  0.00    -0.289 C  
ENDBRANCH   9  11
ENDBRANCH   6   9
ENDBRANCH   5   6
BRANCH   5  19
HETATM   19  C   UNL     1     -10.497  17.160  67.868  1.00  0.00    -0.369 C  
HETATM   20  C   UNL     1     -10.378  17.121  69.393  1.00  0.00    -0.195 C  
ENDBRANCH   5  19
ENDBRANCH   4   5
BRANCH   4  21
HETATM   21  C   UNL     1      -7.413  15.491  66.922  1.00  0.00    -0.082 C  
HETATM   22  C   UNL     1      -7.710  14.081  67.432  1.00  0.00    -0.177 C  
ENDBRANCH   4  21
ENDBRANCH   3   4
ENDBRANCH   2   3
TORSDOF 8
ENDMDL
MODEL      110
REMARK 921   NORMALIZED FREE ENERGY PREDICTED BY IDOCK:   -4.31 KCAL/MOL
REMARK 922        TOTAL FREE ENERGY PREDICTED BY IDOCK:   -7.30 KCAL/MOL
REMARK 923 INTER-LIGAND FREE ENERGY PREDICTED BY IDOCK:   -7.19 KCAL/MOL
REMARK 924 INTRA-LIGAND FREE ENERGY PREDICTED BY IDOCK:   -0.11 KCAL/MOL
REMARK 927      BINDING AFFINITY PREDICTED BY RF-SCORE:    0.00 PKD
ROOT
HETATM    1  C   UNL     1     -14.316  14.953  71.430  1.00  0.00    -0.560 C  
HETATM    2  C   UNL     1     -12.899  15.342  71.033  1.00  0.00    -0.525 C  
ENDROOT
BRANCH   2   3
HETATM    3  C   UNL     1     -12.215  14.286  70.140  1.00  0.00    -0.345 C  
BRANCH   3   4
HETATM    4  N   UNL     1     -11.998  14.650  68.715  1.00  0.00    -0.293 NA 
BRANCH   4   5
HETATM    5  C   UNL     1     -12.141  13.449  67.802  1.00  0.00    -0.259 C  
BRANCH   5   6
HETATM    6  C   UNL     1     -11.494  12.220  68.451  1.00  0.00    -0.307 C  
HETATM    7  H   UNL     1      -9.761  11.609  69.034  1.00  0.00     0.000 HD 
HETATM    8  O   UNL     1     -10.162  12.371  68.632  1.00  0.00    -0.218 OA 
BRANCH   6   9
HETATM    9  N   UNL     1     -12.163  11.164  68.757  1.00  0.00    -0.676 NA 
HETATM   10  H   UNL     1     -13.119  11.076  68.412  1.00  0.00     0.000 HD 
BRANCH   9  11
HETATM   11  C   UNL     1     -11.631  10.118  69.552  1.00  0.00    -0.118 A  
HETATM   12  C   UNL     1     -10.726   9.137  69.076  1.00  0.00    -0.176 A  
HETATM   13  C   UNL     1     -10.169   8.201  69.966  1.00  0.00    -0.202 A  
HETATM   14  C   UNL     1     -10.321   8.985  67.639  1.00  0.00    -0.317 C  
HETATM   15  C   UNL     1     -10.435   8.256  71.325  1.00  0.00    -0.262 A  
HETATM   16  C   UNL     1     -11.297   9.229  71.814  1.00  0.00    -0.437 A  
HETATM   17  C   UNL     1     -11.905  10.152  70.942  1.00  0.00    -0.468 A  
HETATM   18  C   UNL     1     -12.846  11.170  71.538  1.00  0.00    -0.542 C  
ENDBRANCH   9  11
ENDBRANCH   6   9
ENDBRANCH   5   6
BRANCH   5  19
HETATM   19  C   UNL     1     -11.503  13.600  66.393  1.00  0.00    -0.358 C  
HETATM   20  C   UNL     1     -12.462  13.443  65.212  1.00  0.00    -0.532 C  
ENDBRANCH   5  19
ENDBRANCH   4   5
BRANCH   4  21
HETATM   21  C   UNL     1     -10.677  15.313  68.542  1.00  0.00    -0.247 C  
HETATM   22  C   UNL     1     -10.615  16.832  68.706  1.00  0.00    -0.348 C  
ENDBRANCH   4  21
ENDBRANCH   3   4
ENDBRANCH   2   3
TORSDOF 8
ENDMDL
MODEL      111
REMARK 921   NORMALIZED FREE ENERGY PREDICTED BY IDOCK:   -4.31 KCAL/MOL
REMARK 922        TOTAL FREE ENERGY PREDICTED BY IDOCK:   -7.29 KCAL/MOL
REMARK 923 INTER-LIGAND FREE ENERGY PREDICTED BY IDOCK:   -6.28 KCAL/MOL
REMARK 924 INTRA-LIGAND FREE ENERGY PREDICTED BY IDOCK:   -1.01 KCAL/MOL
REMARK 927      BINDING AFFINITY PREDICTED BY RF-SCORE:    0.00 PKD
ROOT
HETATM    1  C   UNL     1     -12.163   6.724  70.569  1.00  0.00    -0.253 C  
HETATM    2  C   UNL     1     -10.782   6.214  70.183  1.00  0.00    -0.366 C  
ENDROOT
BRANCH   2   3
HETATM    3  C   UNL     1      -9.742   7.346  70.040  1.00  0.00    -0.175 C  
BRANCH   3   4
HETATM    4  N   UNL     1     -10.038   8.622  70.741  1.00  0.00    -0.190 NA 
BRANCH   4   5
HETATM    5  C   UNL     1      -9.760   9.823  69.860  1.00  0.00    -0.238 C  
BRANCH   5   6
HETATM    6  C   UNL     1     -10.858   9.956  68.798  1.00  0.00    -0.208 C  
HETATM    7  H   UNL     1     -11.097   9.730  66.898  1.00  0.00     0.000 HD 
HETATM    8  O   UNL     1     -10.416   9.648  67.556  1.00  0.00    -0.228 OA 
BRANCH   6   9
HETATM    9  N   UNL     1     -12.052  10.343  69.079  1.00  0.00    -0.688 NA 
HETATM   10  H   UNL     1     -12.838   9.808  68.709  1.00  0.00     0.000 HD 
BRANCH   9  11
HETATM   11  C   UNL     1     -12.326  11.480  69.880  1.00  0.00    -0.180 A  
HETATM   12  C   UNL     1     -12.789  11.420  71.218  1.00  0.00    -0.481 A  
HETATM   13  C   UNL     1     -12.930  12.601  71.968  1.00  0.00    -0.379 A  
HETATM   14  C   UNL     1     -13.190  10.155  71.919  1.00  0.00    -0.557 C  
HETATM   15  C   UNL     1     -12.561  13.831  71.448  1.00  0.00    -0.433 A  
HETATM   16  C   UNL     1     -12.077  13.906  70.149  1.00  0.00    -0.418 A  
HETATM   17  C   UNL     1     -11.966  12.748  69.356  1.00  0.00    -0.321 A  
HETATM   18  C   UNL     1     -11.451  12.903  67.947  1.00  0.00    -0.362 C  
ENDBRANCH   9  11
ENDBRANCH   6   9
ENDBRANCH   5   6
BRANCH   5  19
HETATM   19  C   UNL     1      -8.404   9.798  69.101  1.00  0.00    -0.137 C  
HETATM   20  C   UNL     1      -7.675  11.140  69.004  1.00  0.00    -0.114 C  
ENDBRANCH   5  19
ENDBRANCH   4   5
BRANCH   4  21
HETATM   21  C   UNL     1      -9.285   8.699  72.022  1.00  0.00    -0.268 C  
HETATM   22  C   UNL     1      -9.905   8.040  73.255  1.00  0.00    -0.281 C  
ENDBRANCH   4  21
ENDBRANCH   3   4
ENDBRANCH   2   3
TORSDOF 8
ENDMDL
MODEL      112
REMARK 921   NORMALIZED FREE ENERGY PREDICTED BY IDOCK:   -4.30 KCAL/MOL
REMARK 922        TOTAL FREE ENERGY PREDICTED BY IDOCK:   -7.28 KCAL/MOL
REMARK 923 INTER-LIGAND FREE ENERGY PREDICTED BY IDOCK:   -6.29 KCAL/MOL
REMARK 924 INTRA-LIGAND FREE ENERGY PREDICTED BY IDOCK:   -0.98 KCAL/MOL
REMARK 927      BINDING AFFINITY PREDICTED BY RF-SCORE:    0.00 PKD
ROOT
HETATM    1  C   UNL     1      -7.763  14.122  67.459  1.00  0.00    -0.201 C  
HETATM    2  C   UNL     1      -7.646  12.802  68.207  1.00  0.00    -0.134 C  
ENDROOT
BRANCH   2   3
HETATM    3  C   UNL     1      -8.994  12.063  68.336  1.00  0.00    -0.153 C  
BRANCH   3   4
HETATM    4  N   UNL     1      -9.859  12.027  67.128  1.00  0.00    -0.195 NA 
BRANCH   4   5
HETATM    5  C   UNL     1     -11.324  11.895  67.490  1.00  0.00    -0.314 C  
BRANCH   5   6
HETATM    6  C   UNL     1     -12.143  12.957  66.746  1.00  0.00    -0.265 C  
HETATM    7  H   UNL     1     -13.061  13.192  65.068  1.00  0.00     0.000 HD 
HETATM    8  O   UNL     1     -12.554  12.534  65.528  1.00  0.00    -0.642 OA 
BRANCH   6   9
HETATM    9  N   UNL     1     -12.377  14.123  67.238  1.00  0.00    -0.576 NA 
HETATM   10  H   UNL     1     -13.294  14.304  67.645  1.00  0.00     0.000 HD 
BRANCH   9  11
HETATM   11  C   UNL     1     -11.418  15.166  67.240  1.00  0.00    -0.279 A  
HETATM   12  C   UNL     1     -10.771  15.656  66.077  1.00  0.00    -0.322 A  
HETATM   13  C   UNL     1      -9.912  16.766  66.164  1.00  0.00    -0.345 A  
HETATM   14  C   UNL     1     -10.905  15.045  64.713  1.00  0.00    -0.375 C  
HETATM   15  C   UNL     1      -9.731  17.442  67.360  1.00  0.00    -0.269 A  
HETATM   16  C   UNL     1     -10.379  16.994  68.503  1.00  0.00    -0.359 A  
HETATM   17  C   UNL     1     -11.210  15.859  68.459  1.00  0.00    -0.362 A  
HETATM   18  C   UNL     1     -11.869  15.416  69.741  1.00  0.00    -0.367 C  
ENDBRANCH   9  11
ENDBRANCH   6   9
ENDBRANCH   5   6
BRANCH   5  19
HETATM   19  C   UNL     1     -11.657  12.050  69.000  1.00  0.00    -0.370 C  
HETATM   20  C   UNL     1     -12.083  10.768  69.719  1.00  0.00    -0.389 C  
ENDBRANCH   5  19
ENDBRANCH   4   5
BRANCH   4  21
HETATM   21  C   UNL     1      -9.424  10.941  66.208  1.00  0.00    -0.194 C  
HETATM   22  C   UNL     1      -9.220   9.545  66.799  1.00  0.00    -0.184 C  
ENDBRANCH   4  21
ENDBRANCH   3   4
ENDBRANCH   2   3
TORSDOF 8
ENDMDL
MODEL      113
REMARK 921   NORMALIZED FREE ENERGY PREDICTED BY IDOCK:   -4.30 KCAL/MOL
REMARK 922        TOTAL FREE ENERGY PREDICTED BY IDOCK:   -7.27 KCAL/MOL
REMARK 923 INTER-LIGAND FREE ENERGY PREDICTED BY IDOCK:   -6.45 KCAL/MOL
REMARK 924 INTRA-LIGAND FREE ENERGY PREDICTED BY IDOCK:   -0.82 KCAL/MOL
REMARK 927      BINDING AFFINITY PREDICTED BY RF-SCORE:    0.00 PKD
ROOT
HETATM    1  C   UNL     1      -6.111  20.445  64.524  1.00  0.00    -0.334 C  
HETATM    2  C   UNL     1      -6.297  19.086  65.184  1.00  0.00    -0.309 C  
ENDROOT
BRANCH   2   3
HETATM    3  C   UNL     1      -7.622  18.977  65.968  1.00  0.00    -0.248 C  
BRANCH   3   4
HETATM    4  N   UNL     1      -7.956  17.647  66.540  1.00  0.00    -0.248 NA 
BRANCH   4   5
HETATM    5  C   UNL     1      -9.313  17.651  67.213  1.00  0.00    -0.249 C  
BRANCH   5   6
HETATM    6  C   UNL     1     -10.217  16.592  66.570  1.00  0.00    -0.310 C  
HETATM    7  H   UNL     1     -10.351  15.570  64.941  1.00  0.00     0.000 HD 
HETATM    8  O   UNL     1      -9.791  16.226  65.339  1.00  0.00    -0.496 OA 
BRANCH   6   9
HETATM    9  N   UNL     1     -11.274  16.138  67.149  1.00  0.00    -0.046 NA 
HETATM   10  H   UNL     1     -12.010  16.795  67.405  1.00  0.00     0.000 HD 
BRANCH   9  11
HETATM   11  C   UNL     1     -11.459  14.764  67.444  1.00  0.00    -0.363 A  
HETATM   12  C   UNL     1     -11.852  13.790  66.492  1.00  0.00    -0.438 A  
HETATM   13  C   UNL     1     -11.908  12.433  66.856  1.00  0.00    -0.377 A  
HETATM   14  C   UNL     1     -12.263  14.101  65.083  1.00  0.00    -0.439 C  
HETATM   15  C   UNL     1     -11.520  12.010  68.117  1.00  0.00    -0.383 A  
HETATM   16  C   UNL     1     -11.104  12.947  69.054  1.00  0.00    -0.284 A  
HETATM   17  C   UNL     1     -11.080  14.318  68.736  1.00  0.00    -0.276 A  
HETATM   18  C   UNL     1     -10.636  15.284  69.806  1.00  0.00    -0.293 C  
ENDBRANCH   9  11
ENDBRANCH   6   9
ENDBRANCH   5   6
BRANCH   5  19
HETATM   19  C   UNL     1     -10.087  18.997  67.152  1.00  0.00    -0.435 C  
HETATM   20  C   UNL     1     -10.262  19.721  68.488  1.00  0.00    -0.547 C  
ENDBRANCH   5  19
ENDBRANCH   4   5
BRANCH   4  21
HETATM   21  C   UNL     1      -6.886  17.197  67.471  1.00  0.00    -0.141 C  
HETATM   22  C   UNL     1      -7.248  17.034  68.948  1.00  0.00    -0.239 C  
ENDBRANCH   4  21
ENDBRANCH   3   4
ENDBRANCH   2   3
TORSDOF 8
ENDMDL
MODEL      114
REMARK 921   NORMALIZED FREE ENERGY PREDICTED BY IDOCK:   -4.29 KCAL/MOL
REMARK 922        TOTAL FREE ENERGY PREDICTED BY IDOCK:   -7.26 KCAL/MOL
REMARK 923 INTER-LIGAND FREE ENERGY PREDICTED BY IDOCK:   -5.90 KCAL/MOL
REMARK 924 INTRA-LIGAND FREE ENERGY PREDICTED BY IDOCK:   -1.36 KCAL/MOL
REMARK 927      BINDING AFFINITY PREDICTED BY RF-SCORE:    0.00 PKD
ROOT
HETATM    1  C   UNL     1     -12.186  11.545  70.385  1.00  0.00    -0.442 C  
HETATM    2  C   UNL     1     -11.704  11.090  69.016  1.00  0.00    -0.402 C  
ENDROOT
BRANCH   2   3
HETATM    3  C   UNL     1     -11.706  12.225  67.970  1.00  0.00    -0.356 C  
BRANCH   3   4
HETATM    4  N   UNL     1     -10.387  12.799  67.598  1.00  0.00    -0.218 NA 
BRANCH   4   5
HETATM    5  C   UNL     1     -10.314  14.280  67.905  1.00  0.00    -0.233 C  
BRANCH   5   6
HETATM    6  C   UNL     1      -8.869  14.772  67.762  1.00  0.00    -0.175 C  
HETATM    7  H   UNL     1      -7.107  14.362  68.430  1.00  0.00     0.000 HD 
HETATM    8  O   UNL     1      -8.002  14.058  68.518  1.00  0.00    -0.135 OA 
BRANCH   6   9
HETATM    9  N   UNL     1      -8.545  15.771  67.018  1.00  0.00    -0.199 NA 
HETATM   10  H   UNL     1      -7.870  15.622  66.269  1.00  0.00     0.000 HD 
BRANCH   9  11
HETATM   11  C   UNL     1      -9.086  17.069  67.194  1.00  0.00    -0.223 A  
HETATM   12  C   UNL     1     -10.219  17.561  66.498  1.00  0.00    -0.342 A  
HETATM   13  C   UNL     1     -10.747  18.825  66.816  1.00  0.00    -0.381 A  
HETATM   14  C   UNL     1     -10.909  16.832  65.382  1.00  0.00    -0.149 C  
HETATM   15  C   UNL     1     -10.221  19.583  67.850  1.00  0.00    -0.550 A  
HETATM   16  C   UNL     1      -9.130  19.104  68.563  1.00  0.00    -0.416 A  
HETATM   17  C   UNL     1      -8.550  17.863  68.239  1.00  0.00    -0.277 A  
HETATM   18  C   UNL     1      -7.355  17.411  69.040  1.00  0.00    -0.204 C  
ENDBRANCH   9  11
ENDBRANCH   6   9
ENDBRANCH   5   6
BRANCH   5  19
HETATM   19  C   UNL     1     -10.789  14.695  69.325  1.00  0.00    -0.272 C  
HETATM   20  C   UNL     1     -11.858  15.789  69.373  1.00  0.00    -0.361 C  
ENDBRANCH   5  19
ENDBRANCH   4   5
BRANCH   4  21
HETATM   21  C   UNL     1     -10.084  12.521  66.168  1.00  0.00    -0.251 C  
HETATM   22  C   UNL     1     -11.049  13.068  65.115  1.00  0.00    -0.317 C  
ENDBRANCH   4  21
ENDBRANCH   3   4
ENDBRANCH   2   3
TORSDOF 8
ENDMDL
MODEL      115
REMARK 921   NORMALIZED FREE ENERGY PREDICTED BY IDOCK:   -4.29 KCAL/MOL
REMARK 922        TOTAL FREE ENERGY PREDICTED BY IDOCK:   -7.26 KCAL/MOL
REMARK 923 INTER-LIGAND FREE ENERGY PREDICTED BY IDOCK:   -6.13 KCAL/MOL
REMARK 924 INTRA-LIGAND FREE ENERGY PREDICTED BY IDOCK:   -1.13 KCAL/MOL
REMARK 927      BINDING AFFINITY PREDICTED BY RF-SCORE:    0.00 PKD
ROOT
HETATM    1  C   UNL     1     -10.845   6.483  67.503  1.00  0.00    -0.433 C  
HETATM    2  C   UNL     1     -11.229   6.402  68.973  1.00  0.00    -0.402 C  
ENDROOT
BRANCH   2   3
HETATM    3  C   UNL     1     -10.470   7.421  69.849  1.00  0.00    -0.231 C  
BRANCH   3   4
HETATM    4  N   UNL     1     -11.066   8.776  69.974  1.00  0.00    -0.208 NA 
BRANCH   4   5
HETATM    5  C   UNL     1     -10.114   9.854  69.495  1.00  0.00    -0.221 C  
BRANCH   5   6
HETATM    6  C   UNL     1     -10.675  10.523  68.235  1.00  0.00    -0.229 C  
HETATM    7  H   UNL     1     -12.361  10.778  67.335  1.00  0.00     0.000 HD 
HETATM    8  O   UNL     1     -12.014  10.364  68.116  1.00  0.00    -0.263 OA 
BRANCH   6   9
HETATM    9  N   UNL     1      -9.930  11.139  67.386  1.00  0.00    -0.177 NA 
HETATM   10  H   UNL     1      -8.995  11.425  67.676  1.00  0.00     0.000 HD 
BRANCH   9  11
HETATM   11  C   UNL     1     -10.350  11.439  66.066  1.00  0.00    -0.249 A  
HETATM   12  C   UNL     1     -11.103  12.586  65.711  1.00  0.00    -0.343 A  
HETATM   13  C   UNL     1     -11.383  12.854  64.358  1.00  0.00    -0.402 A  
HETATM   14  C   UNL     1     -11.679  13.560  66.696  1.00  0.00    -0.425 C  
HETATM   15  C   UNL     1     -10.880  12.050  63.348  1.00  0.00    -0.471 A  
HETATM   16  C   UNL     1     -10.115  10.938  63.676  1.00  0.00    -0.414 A  
HETATM   17  C   UNL     1      -9.855  10.618  65.022  1.00  0.00    -0.353 A  
HETATM   18  C   UNL     1      -9.034   9.385  65.308  1.00  0.00    -0.250 C  
ENDBRANCH   9  11
ENDBRANCH   6   9
ENDBRANCH   5   6
BRANCH   5  19
HETATM   19  C   UNL     1      -8.679   9.372  69.145  1.00  0.00    -0.142 C  
HETATM   20  C   UNL     1      -7.558   9.948  70.012  1.00  0.00    -0.179 C  
ENDBRANCH   5  19
ENDBRANCH   4   5
BRANCH   4  21
HETATM   21  C   UNL     1     -11.511   9.023  71.372  1.00  0.00    -0.330 C  
HETATM   22  C   UNL     1     -10.751   8.318  72.497  1.00  0.00    -0.411 C  
ENDBRANCH   4  21
ENDBRANCH   3   4
ENDBRANCH   2   3
TORSDOF 8
ENDMDL
MODEL      116
REMARK 921   NORMALIZED FREE ENERGY PREDICTED BY IDOCK:   -4.27 KCAL/MOL
REMARK 922        TOTAL FREE ENERGY PREDICTED BY IDOCK:   -7.25 KCAL/MOL
REMARK 923 INTER-LIGAND FREE ENERGY PREDICTED BY IDOCK:   -6.40 KCAL/MOL
REMARK 924 INTRA-LIGAND FREE ENERGY PREDICTED BY IDOCK:   -0.85 KCAL/MOL
REMARK 927      BINDING AFFINITY PREDICTED BY RF-SCORE:    0.00 PKD
ROOT
HETATM    1  C   UNL     1     -11.032   6.799  67.144  1.00  0.00    -0.458 C  
HETATM    2  C   UNL     1      -9.758   7.444  66.617  1.00  0.00    -0.262 C  
ENDROOT
BRANCH   2   3
HETATM    3  C   UNL     1      -9.917   8.954  66.342  1.00  0.00    -0.284 C  
BRANCH   3   4
HETATM    4  N   UNL     1      -9.085   9.877  67.155  1.00  0.00    -0.138 NA 
BRANCH   4   5
HETATM    5  C   UNL     1      -9.772  11.210  67.370  1.00  0.00    -0.173 C  
BRANCH   5   6
HETATM    6  C   UNL     1     -10.834  11.078  68.468  1.00  0.00    -0.213 C  
HETATM    7  H   UNL     1     -12.752  11.076  68.661  1.00  0.00     0.000 HD 
HETATM    8  O   UNL     1     -12.094  11.158  67.981  1.00  0.00    -0.635 OA 
BRANCH   6   9
HETATM    9  N   UNL     1     -10.534  10.934  69.711  1.00  0.00    -0.448 NA 
HETATM   10  H   UNL     1      -9.650  11.317  70.046  1.00  0.00     0.000 HD 
BRANCH   9  11
HETATM   11  C   UNL     1     -11.376  10.267  70.635  1.00  0.00    -0.347 A  
HETATM   12  C   UNL     1     -12.514  10.854  71.244  1.00  0.00    -0.493 A  
HETATM   13  C   UNL     1     -13.350  10.079  72.067  1.00  0.00    -0.513 A  
HETATM   14  C   UNL     1     -12.896  12.299  71.108  1.00  0.00    -0.302 C  
HETATM   15  C   UNL     1     -13.126   8.723  72.247  1.00  0.00    -0.458 A  
HETATM   16  C   UNL     1     -12.033   8.125  71.633  1.00  0.00    -0.340 A  
HETATM   17  C   UNL     1     -11.151   8.882  70.840  1.00  0.00    -0.328 A  
HETATM   18  C   UNL     1      -9.974   8.173  70.219  1.00  0.00    -0.189 C  
ENDBRANCH   9  11
ENDBRANCH   6   9
ENDBRANCH   5   6
BRANCH   5  19
HETATM   19  C   UNL     1     -10.487  11.804  66.124  1.00  0.00    -0.284 C  
HETATM   20  C   UNL     1     -10.097  13.237  65.758  1.00  0.00    -0.293 C  
ENDBRANCH   5  19
ENDBRANCH   4   5
BRANCH   4  21
HETATM   21  C   UNL     1      -7.742  10.048  66.537  1.00  0.00    -0.105 C  
HETATM   22  C   UNL     1      -7.631   9.900  65.019  1.00  0.00    -0.134 C  
ENDBRANCH   4  21
ENDBRANCH   3   4
ENDBRANCH   2   3
TORSDOF 8
ENDMDL
MODEL      117
REMARK 921   NORMALIZED FREE ENERGY PREDICTED BY IDOCK:   -4.27 KCAL/MOL
REMARK 922        TOTAL FREE ENERGY PREDICTED BY IDOCK:   -7.24 KCAL/MOL
REMARK 923 INTER-LIGAND FREE ENERGY PREDICTED BY IDOCK:   -6.29 KCAL/MOL
REMARK 924 INTRA-LIGAND FREE ENERGY PREDICTED BY IDOCK:   -0.95 KCAL/MOL
REMARK 927      BINDING AFFINITY PREDICTED BY RF-SCORE:    0.00 PKD
ROOT
HETATM    1  C   UNL     1     -11.030  14.663  64.766  1.00  0.00    -0.399 C  
HETATM    2  C   UNL     1     -10.904  15.031  66.238  1.00  0.00    -0.333 C  
ENDROOT
BRANCH   2   3
HETATM    3  C   UNL     1     -10.031  14.037  67.033  1.00  0.00    -0.257 C  
BRANCH   3   4
HETATM    4  N   UNL     1     -10.743  13.047  67.881  1.00  0.00    -0.230 NA 
BRANCH   4   5
HETATM    5  C   UNL     1     -10.878  11.707  67.186  1.00  0.00    -0.261 C  
BRANCH   5   6
HETATM    6  C   UNL     1     -10.782  10.574  68.215  1.00  0.00    -0.229 C  
HETATM    7  H   UNL     1     -10.965   8.657  68.308  1.00  0.00     0.000 HD 
HETATM    8  O   UNL     1     -11.024   9.359  67.671  1.00  0.00    -0.223 OA 
BRANCH   6   9
HETATM    9  N   UNL     1     -10.524  10.785  69.458  1.00  0.00    -0.354 NA 
HETATM   10  H   UNL     1     -10.253  11.725  69.747  1.00  0.00     0.000 HD 
BRANCH   9  11
HETATM   11  C   UNL     1     -10.598   9.769  70.443  1.00  0.00    -0.304 A  
HETATM   12  C   UNL     1      -9.516   8.927  70.803  1.00  0.00    -0.280 A  
HETATM   13  C   UNL     1      -9.655   8.018  71.868  1.00  0.00    -0.242 A  
HETATM   14  C   UNL     1      -8.194   8.898  70.095  1.00  0.00    -0.126 C  
HETATM   15  C   UNL     1     -10.814   7.971  72.626  1.00  0.00    -0.436 A  
HETATM   16  C   UNL     1     -11.874   8.810  72.306  1.00  0.00    -0.403 A  
HETATM   17  C   UNL     1     -11.783   9.698  71.218  1.00  0.00    -0.458 A  
HETATM   18  C   UNL     1     -12.978  10.567  70.915  1.00  0.00    -0.455 C  
ENDBRANCH   9  11
ENDBRANCH   6   9
ENDBRANCH   5   6
BRANCH   5  19
HETATM   19  C   UNL     1      -9.815  11.410  66.093  1.00  0.00    -0.255 C  
HETATM   20  C   UNL     1     -10.366  11.117  64.696  1.00  0.00    -0.393 C  
ENDBRANCH   5  19
ENDBRANCH   4   5
BRANCH   4  21
HETATM   21  C   UNL     1     -12.066  13.579  68.304  1.00  0.00    -0.260 C  
HETATM   22  C   UNL     1     -12.259  13.921  69.782  1.00  0.00    -0.388 C  
ENDBRANCH   4  21
ENDBRANCH   3   4
ENDBRANCH   2   3
TORSDOF 8
ENDMDL
MODEL      118
REMARK 921   NORMALIZED FREE ENERGY PREDICTED BY IDOCK:   -4.25 KCAL/MOL
REMARK 922        TOTAL FREE ENERGY PREDICTED BY IDOCK:   -7.21 KCAL/MOL
REMARK 923 INTER-LIGAND FREE ENERGY PREDICTED BY IDOCK:   -6.29 KCAL/MOL
REMARK 924 INTRA-LIGAND FREE ENERGY PREDICTED BY IDOCK:   -0.93 KCAL/MOL
REMARK 927      BINDING AFFINITY PREDICTED BY RF-SCORE:    0.00 PKD
ROOT
HETATM    1  C   UNL     1     -11.405   5.796  72.718  1.00  0.00    -0.328 C  
HETATM    2  C   UNL     1     -12.329   6.602  71.817  1.00  0.00    -0.385 C  
ENDROOT
BRANCH   2   3
HETATM    3  C   UNL     1     -11.569   7.395  70.733  1.00  0.00    -0.290 C  
BRANCH   3   4
HETATM    4  N   UNL     1     -11.659   8.877  70.798  1.00  0.00    -0.278 NA 
BRANCH   4   5
HETATM    5  C   UNL     1     -10.290   9.524  70.743  1.00  0.00    -0.306 C  
BRANCH   5   6
HETATM    6  C   UNL     1     -10.080  10.187  69.377  1.00  0.00    -0.231 C  
HETATM    7  H   UNL     1      -8.691  11.064  68.368  1.00  0.00     0.000 HD 
HETATM    8  O   UNL     1      -8.821  10.654  69.215  1.00  0.00    -0.153 OA 
BRANCH   6   9
HETATM    9  N   UNL     1     -11.023  10.297  68.507  1.00  0.00    -0.251 NA 
HETATM   10  H   UNL     1     -11.959   9.981  68.760  1.00  0.00     0.000 HD 
BRANCH   9  11
HETATM   11  C   UNL     1     -10.819  10.839  67.214  1.00  0.00    -0.288 A  
HETATM   12  C   UNL     1     -10.255  10.122  66.129  1.00  0.00    -0.285 A  
HETATM   13  C   UNL     1     -10.190  10.711  64.853  1.00  0.00    -0.395 A  
HETATM   14  C   UNL     1      -9.668   8.745  66.238  1.00  0.00    -0.342 C  
HETATM   15  C   UNL     1     -10.728  11.965  64.612  1.00  0.00    -0.356 A  
HETATM   16  C   UNL     1     -11.311  12.670  65.657  1.00  0.00    -0.357 A  
HETATM   17  C   UNL     1     -11.352  12.127  66.955  1.00  0.00    -0.398 A  
HETATM   18  C   UNL     1     -11.982  12.955  68.047  1.00  0.00    -0.323 C  
ENDBRANCH   9  11
ENDBRANCH   6   9
ENDBRANCH   5   6
BRANCH   5  19
HETATM   19  C   UNL     1      -9.086   8.566  70.965  1.00  0.00    -0.221 C  
HETATM   20  C   UNL     1      -8.644   8.384  72.418  1.00  0.00    -0.261 C  
ENDBRANCH   5  19
ENDBRANCH   4   5
BRANCH   4  21
HETATM   21  C   UNL     1     -12.415   9.301  72.008  1.00  0.00    -0.378 C  
HETATM   22  C   UNL     1     -13.302  10.541  71.896  1.00  0.00    -0.461 C  
ENDBRANCH   4  21
ENDBRANCH   3   4
ENDBRANCH   2   3
TORSDOF 8
ENDMDL
MODEL      119
REMARK 921   NORMALIZED FREE ENERGY PREDICTED BY IDOCK:   -4.24 KCAL/MOL
REMARK 922        TOTAL FREE ENERGY PREDICTED BY IDOCK:   -7.19 KCAL/MOL
REMARK 923 INTER-LIGAND FREE ENERGY PREDICTED BY IDOCK:   -6.92 KCAL/MOL
REMARK 924 INTRA-LIGAND FREE ENERGY PREDICTED BY IDOCK:   -0.27 KCAL/MOL
REMARK 927      BINDING AFFINITY PREDICTED BY RF-SCORE:    0.00 PKD
ROOT
HETATM    1  C   UNL     1     -13.878  15.066  71.263  1.00  0.00    -0.528 C  
HETATM    2  C   UNL     1     -12.444  15.537  71.070  1.00  0.00    -0.492 C  
ENDROOT
BRANCH   2   3
HETATM    3  C   UNL     1     -11.724  14.812  69.914  1.00  0.00    -0.306 C  
BRANCH   3   4
HETATM    4  N   UNL     1     -11.967  15.328  68.542  1.00  0.00    -0.271 NA 
BRANCH   4   5
HETATM    5  C   UNL     1     -12.018  14.209  67.522  1.00  0.00    -0.384 C  
BRANCH   5   6
HETATM    6  C   UNL     1     -11.379  12.943  68.105  1.00  0.00    -0.289 C  
HETATM    7  H   UNL     1      -9.670  12.322  68.745  1.00  0.00     0.000 HD 
HETATM    8  O   UNL     1     -10.065  13.106  68.383  1.00  0.00    -0.235 OA 
BRANCH   6   9
HETATM    9  N   UNL     1     -12.037  11.850  68.277  1.00  0.00    -0.462 NA 
HETATM   10  H   UNL     1     -12.949  11.755  67.832  1.00  0.00     0.000 HD 
BRANCH   9  11
HETATM   11  C   UNL     1     -11.550  10.772  69.059  1.00  0.00    -0.299 A  
HETATM   12  C   UNL     1     -11.856  10.579  70.429  1.00  0.00    -0.431 A  
HETATM   13  C   UNL     1     -11.412   9.422  71.094  1.00  0.00    -0.422 A  
HETATM   14  C   UNL     1     -12.615  11.560  71.274  1.00  0.00    -0.452 C  
HETATM   15  C   UNL     1     -10.731   8.422  70.417  1.00  0.00    -0.244 A  
HETATM   16  C   UNL     1     -10.448   8.580  69.067  1.00  0.00    -0.216 A  
HETATM   17  C   UNL     1     -10.839   9.747  68.384  1.00  0.00    -0.244 A  
HETATM   18  C   UNL     1     -10.483   9.863  66.923  1.00  0.00    -0.284 C  
ENDBRANCH   9  11
ENDBRANCH   6   9
ENDBRANCH   5   6
BRANCH   5  19
HETATM   19  C   UNL     1     -11.295  14.495  66.176  1.00  0.00    -0.348 C  
HETATM   20  C   UNL     1     -11.936  13.871  64.935  1.00  0.00    -0.412 C  
ENDBRANCH   5  19
ENDBRANCH   4   5
BRANCH   4  21
HETATM   21  C   UNL     1     -10.945  16.349  68.182  1.00  0.00    -0.339 C  
HETATM   22  C   UNL     1      -9.689  16.438  69.049  1.00  0.00    -0.262 C  
ENDBRANCH   4  21
ENDBRANCH   3   4
ENDBRANCH   2   3
TORSDOF 8
ENDMDL
MODEL      120
REMARK 921   NORMALIZED FREE ENERGY PREDICTED BY IDOCK:   -4.22 KCAL/MOL
REMARK 922        TOTAL FREE ENERGY PREDICTED BY IDOCK:   -7.17 KCAL/MOL
REMARK 923 INTER-LIGAND FREE ENERGY PREDICTED BY IDOCK:   -6.64 KCAL/MOL
REMARK 924 INTRA-LIGAND FREE ENERGY PREDICTED BY IDOCK:   -0.53 KCAL/MOL
REMARK 927      BINDING AFFINITY PREDICTED BY RF-SCORE:    0.00 PKD
ROOT
HETATM    1  C   UNL     1      -7.075   9.729  66.158  1.00  0.00    -0.099 C  
HETATM    2  C   UNL     1      -7.843  10.876  66.800  1.00  0.00    -0.141 C  
ENDROOT
BRANCH   2   3
HETATM    3  C   UNL     1      -9.295  10.985  66.290  1.00  0.00    -0.183 C  
BRANCH   3   4
HETATM    4  N   UNL     1      -9.767  12.336  65.890  1.00  0.00    -0.248 NA 
BRANCH   4   5
HETATM    5  C   UNL     1     -10.310  13.114  67.071  1.00  0.00    -0.249 C  
BRANCH   5   6
HETATM    6  C   UNL     1     -11.054  12.167  68.020  1.00  0.00    -0.244 C  
HETATM    7  H   UNL     1     -12.679  11.132  68.085  1.00  0.00     0.000 HD 
HETATM    8  O   UNL     1     -12.218  11.718  67.496  1.00  0.00    -0.526 OA 
BRANCH   6   9
HETATM    9  N   UNL     1     -10.612  11.870  69.192  1.00  0.00    -0.406 NA 
HETATM   10  H   UNL     1      -9.632  12.057  69.405  1.00  0.00     0.000 HD 
BRANCH   9  11
HETATM   11  C   UNL     1     -11.425  11.293  70.199  1.00  0.00    -0.247 A  
HETATM   12  C   UNL     1     -12.393  12.008  70.948  1.00  0.00    -0.384 A  
HETATM   13  C   UNL     1     -13.227  11.327  71.853  1.00  0.00    -0.491 A  
HETATM   14  C   UNL     1     -12.588  13.494  70.880  1.00  0.00    -0.414 C  
HETATM   15  C   UNL     1     -13.170   9.948  71.984  1.00  0.00    -0.555 A  
HETATM   16  C   UNL     1     -12.248   9.228  71.236  1.00  0.00    -0.410 A  
HETATM   17  C   UNL     1     -11.369   9.885  70.356  1.00  0.00    -0.376 A  
HETATM   18  C   UNL     1     -10.379   9.044  69.588  1.00  0.00    -0.217 C  
ENDBRANCH   9  11
ENDBRANCH   6   9
ENDBRANCH   5   6
BRANCH   5  19
HETATM   19  C   UNL     1     -11.296  14.263  66.721  1.00  0.00    -0.357 C  
HETATM   20  C   UNL     1     -11.466  15.339  67.794  1.00  0.00    -0.312 C  
ENDBRANCH   5  19
ENDBRANCH   4   5
BRANCH   4  21
HETATM   21  C   UNL     1     -10.770  12.234  64.795  1.00  0.00    -0.300 C  
HETATM   22  C   UNL     1     -10.278  11.795  63.416  1.00  0.00    -0.482 C  
ENDBRANCH   4  21
ENDBRANCH   3   4
ENDBRANCH   2   3
TORSDOF 8
ENDMDL
MODEL      121
REMARK 921   NORMALIZED FREE ENERGY PREDICTED BY IDOCK:   -4.22 KCAL/MOL
REMARK 922        TOTAL FREE ENERGY PREDICTED BY IDOCK:   -7.17 KCAL/MOL
REMARK 923 INTER-LIGAND FREE ENERGY PREDICTED BY IDOCK:   -6.58 KCAL/MOL
REMARK 924 INTRA-LIGAND FREE ENERGY PREDICTED BY IDOCK:   -0.60 KCAL/MOL
REMARK 927      BINDING AFFINITY PREDICTED BY RF-SCORE:    0.00 PKD
ROOT
HETATM    1  C   UNL     1     -12.286  12.010  63.679  1.00  0.00    -0.648 C  
HETATM    2  C   UNL     1     -12.137  13.490  64.003  1.00  0.00    -0.494 C  
ENDROOT
BRANCH   2   3
HETATM    3  C   UNL     1     -12.623  13.847  65.423  1.00  0.00    -0.507 C  
BRANCH   3   4
HETATM    4  N   UNL     1     -11.613  14.404  66.359  1.00  0.00    -0.365 NA 
BRANCH   4   5
HETATM    5  C   UNL     1     -10.271  13.716  66.211  1.00  0.00    -0.296 C  
BRANCH   5   6
HETATM    6  C   UNL     1     -10.158  12.570  67.224  1.00  0.00    -0.213 C  
HETATM    7  H   UNL     1      -9.089  12.053  68.742  1.00  0.00     0.000 HD 
HETATM    8  O   UNL     1      -9.158  12.763  68.115  1.00  0.00    -0.196 OA 
BRANCH   6   9
HETATM    9  N   UNL     1     -10.926  11.537  67.192  1.00  0.00    -0.270 NA 
HETATM   10  H   UNL     1     -11.687  11.517  66.514  1.00  0.00     0.000 HD 
BRANCH   9  11
HETATM   11  C   UNL     1     -10.760  10.427  68.057  1.00  0.00    -0.249 A  
HETATM   12  C   UNL     1     -11.225  10.384  69.396  1.00  0.00    -0.314 A  
HETATM   13  C   UNL     1     -11.109   9.199  70.144  1.00  0.00    -0.248 A  
HETATM   14  C   UNL     1     -11.824  11.553  70.122  1.00  0.00    -0.440 C  
HETATM   15  C   UNL     1     -10.604   8.039  69.578  1.00  0.00    -0.216 A  
HETATM   16  C   UNL     1     -10.171   8.054  68.259  1.00  0.00    -0.243 A  
HETATM   17  C   UNL     1     -10.233   9.237  67.497  1.00  0.00    -0.300 A  
HETATM   18  C   UNL     1      -9.728   9.188  66.077  1.00  0.00    -0.358 C  
ENDBRANCH   9  11
ENDBRANCH   6   9
ENDBRANCH   5   6
BRANCH   5  19
HETATM   19  C   UNL     1      -9.027  14.622  66.421  1.00  0.00    -0.191 C  
HETATM   20  C   UNL     1      -9.192  16.083  65.995  1.00  0.00    -0.375 C  
ENDBRANCH   5  19
ENDBRANCH   4   5
BRANCH   4  21
HETATM   21  C   UNL     1     -12.109  14.337  67.761  1.00  0.00    -0.281 C  
HETATM   22  C   UNL     1     -11.731  15.478  68.706  1.00  0.00    -0.372 C  
ENDBRANCH   4  21
ENDBRANCH   3   4
ENDBRANCH   2   3
TORSDOF 8
ENDMDL
MODEL      122
REMARK 921   NORMALIZED FREE ENERGY PREDICTED BY IDOCK:   -4.22 KCAL/MOL
REMARK 922        TOTAL FREE ENERGY PREDICTED BY IDOCK:   -7.17 KCAL/MOL
REMARK 923 INTER-LIGAND FREE ENERGY PREDICTED BY IDOCK:   -6.19 KCAL/MOL
REMARK 924 INTRA-LIGAND FREE ENERGY PREDICTED BY IDOCK:   -0.98 KCAL/MOL
REMARK 927      BINDING AFFINITY PREDICTED BY RF-SCORE:    0.00 PKD
ROOT
HETATM    1  C   UNL     1      -8.045  10.812  66.203  1.00  0.00    -0.160 C  
HETATM    2  C   UNL     1      -9.151  11.087  65.195  1.00  0.00    -0.199 C  
ENDROOT
BRANCH   2   3
HETATM    3  C   UNL     1     -10.488  11.474  65.861  1.00  0.00    -0.255 C  
BRANCH   3   4
HETATM    4  N   UNL     1     -11.023  12.826  65.558  1.00  0.00    -0.275 NA 
BRANCH   4   5
HETATM    5  C   UNL     1     -11.005  13.723  66.779  1.00  0.00    -0.304 C  
BRANCH   5   6
HETATM    6  C   UNL     1     -10.044  14.896  66.551  1.00  0.00    -0.271 C  
HETATM    7  H   UNL     1      -9.515  16.108  65.149  1.00  0.00     0.000 HD 
HETATM    8  O   UNL     1     -10.110  15.381  65.290  1.00  0.00    -0.349 OA 
BRANCH   6   9
HETATM    9  N   UNL     1      -9.254  15.334  67.468  1.00  0.00    -0.197 NA 
HETATM   10  H   UNL     1      -8.715  14.659  68.010  1.00  0.00     0.000 HD 
BRANCH   9  11
HETATM   11  C   UNL     1      -9.099  16.712  67.757  1.00  0.00    -0.212 A  
HETATM   12  C   UNL     1      -8.185  17.568  67.092  1.00  0.00    -0.229 A  
HETATM   13  C   UNL     1      -8.177  18.946  67.374  1.00  0.00    -0.289 A  
HETATM   14  C   UNL     1      -7.161  17.105  66.097  1.00  0.00    -0.253 C  
HETATM   15  C   UNL     1      -9.096  19.505  68.249  1.00  0.00    -0.398 A  
HETATM   16  C   UNL     1     -10.018  18.686  68.887  1.00  0.00    -0.399 A  
HETATM   17  C   UNL     1     -10.022  17.297  68.660  1.00  0.00    -0.327 A  
HETATM   18  C   UNL     1     -11.037  16.464  69.401  1.00  0.00    -0.300 C  
ENDBRANCH   9  11
ENDBRANCH   6   9
ENDBRANCH   5   6
BRANCH   5  19
HETATM   19  C   UNL     1     -10.571  13.040  68.106  1.00  0.00    -0.257 C  
HETATM   20  C   UNL     1     -11.697  12.741  69.096  1.00  0.00    -0.375 C  
ENDBRANCH   5  19
ENDBRANCH   4   5
BRANCH   4  21
HETATM   21  C   UNL     1     -12.388  12.727  64.974  1.00  0.00    -0.499 C  
HETATM   22  C   UNL     1     -12.509  12.284  63.515  1.00  0.00    -0.642 C  
ENDBRANCH   4  21
ENDBRANCH   3   4
ENDBRANCH   2   3
TORSDOF 8
ENDMDL
MODEL      123
REMARK 921   NORMALIZED FREE ENERGY PREDICTED BY IDOCK:   -4.20 KCAL/MOL
REMARK 922        TOTAL FREE ENERGY PREDICTED BY IDOCK:   -7.13 KCAL/MOL
REMARK 923 INTER-LIGAND FREE ENERGY PREDICTED BY IDOCK:   -6.32 KCAL/MOL
REMARK 924 INTRA-LIGAND FREE ENERGY PREDICTED BY IDOCK:   -0.81 KCAL/MOL
REMARK 927      BINDING AFFINITY PREDICTED BY RF-SCORE:    0.00 PKD
ROOT
HETATM    1  C   UNL     1     -12.239  12.605  63.353  1.00  0.00    -0.610 C  
HETATM    2  C   UNL     1     -12.539  12.714  64.841  1.00  0.00    -0.525 C  
ENDROOT
BRANCH   2   3
HETATM    3  C   UNL     1     -11.442  13.469  65.622  1.00  0.00    -0.315 C  
BRANCH   3   4
HETATM    4  N   UNL     1     -11.011  12.878  66.915  1.00  0.00    -0.261 NA 
BRANCH   4   5
HETATM    5  C   UNL     1     -10.801  11.382  66.806  1.00  0.00    -0.286 C  
BRANCH   5   6
HETATM    6  C   UNL     1     -10.733  10.761  68.207  1.00  0.00    -0.213 C  
HETATM    7  H   UNL     1      -9.561  10.718  69.737  1.00  0.00     0.000 HD 
HETATM    8  O   UNL     1      -9.603  11.102  68.869  1.00  0.00    -0.198 OA 
BRANCH   6   9
HETATM    9  N   UNL     1     -11.650   9.985  68.668  1.00  0.00    -0.510 NA 
HETATM   10  H   UNL     1     -12.581  10.033  68.255  1.00  0.00     0.000 HD 
BRANCH   9  11
HETATM   11  C   UNL     1     -11.424   9.067  69.723  1.00  0.00     0.159 A  
HETATM   12  C   UNL     1     -10.681   7.866  69.589  1.00  0.00    -0.218 A  
HETATM   13  C   UNL     1     -10.420   7.070  70.719  1.00  0.00    -0.231 A  
HETATM   14  C   UNL     1     -10.159   7.335  68.287  1.00  0.00    -0.193 C  
HETATM   15  C   UNL     1     -10.818   7.468  71.985  1.00  0.00    -0.273 A  
HETATM   16  C   UNL     1     -11.521   8.655  72.139  1.00  0.00    -0.443 A  
HETATM   17  C   UNL     1     -11.838   9.452  71.023  1.00  0.00    -0.396 A  
HETATM   18  C   UNL     1     -12.620  10.720  71.259  1.00  0.00    -0.532 C  
ENDBRANCH   9  11
ENDBRANCH   6   9
ENDBRANCH   5   6
BRANCH   5  19
HETATM   19  C   UNL     1      -9.513  10.939  66.057  1.00  0.00    -0.235 C  
HETATM   20  C   UNL     1      -9.733  10.280  64.695  1.00  0.00    -0.398 C  
ENDBRANCH   5  19
ENDBRANCH   4   5
BRANCH   4  21
HETATM   21  C   UNL     1     -11.982  13.216  67.991  1.00  0.00    -0.304 C  
HETATM   22  C   UNL     1     -11.598  14.321  68.976  1.00  0.00    -0.342 C  
ENDBRANCH   4  21
ENDBRANCH   3   4
ENDBRANCH   2   3
TORSDOF 8
ENDMDL
MODEL      124
REMARK 921   NORMALIZED FREE ENERGY PREDICTED BY IDOCK:   -4.19 KCAL/MOL
REMARK 922        TOTAL FREE ENERGY PREDICTED BY IDOCK:   -7.13 KCAL/MOL
REMARK 923 INTER-LIGAND FREE ENERGY PREDICTED BY IDOCK:   -6.42 KCAL/MOL
REMARK 924 INTRA-LIGAND FREE ENERGY PREDICTED BY IDOCK:   -0.71 KCAL/MOL
REMARK 927      BINDING AFFINITY PREDICTED BY RF-SCORE:    0.00 PKD
ROOT
HETATM    1  C   UNL     1      -9.946   4.942  65.937  1.00  0.00    -0.222 C  
HETATM    2  C   UNL     1     -10.740   5.487  67.116  1.00  0.00    -0.265 C  
ENDROOT
BRANCH   2   3
HETATM    3  C   UNL     1     -10.139   6.784  67.697  1.00  0.00    -0.161 C  
BRANCH   3   4
HETATM    4  N   UNL     1     -10.901   7.447  68.787  1.00  0.00    -0.106 NA 
BRANCH   4   5
HETATM    5  C   UNL     1     -10.291   8.782  69.164  1.00  0.00    -0.217 C  
BRANCH   5   6
HETATM    6  C   UNL     1     -10.570   9.813  68.064  1.00  0.00    -0.243 C  
HETATM    7  H   UNL     1      -9.693  10.611  66.544  1.00  0.00     0.000 HD 
HETATM    8  O   UNL     1      -9.520   9.973  67.226  1.00  0.00    -0.150 OA 
BRANCH   6   9
HETATM    9  N   UNL     1     -11.680  10.459  67.983  1.00  0.00    -0.729 NA 
HETATM   10  H   UNL     1     -12.484   9.996  67.559  1.00  0.00     0.000 HD 
BRANCH   9  11
HETATM   11  C   UNL     1     -11.836  11.785  68.458  1.00  0.00    -0.303 A  
HETATM   12  C   UNL     1     -12.000  12.128  69.824  1.00  0.00    -0.372 A  
HETATM   13  C   UNL     1     -12.040  13.480  70.210  1.00  0.00    -0.425 A  
HETATM   14  C   UNL     1     -12.174  11.132  70.932  1.00  0.00    -0.468 C  
HETATM   15  C   UNL     1     -11.856  14.497  69.287  1.00  0.00    -0.361 A  
HETATM   16  C   UNL     1     -11.664  14.179  67.949  1.00  0.00    -0.402 A  
HETATM   17  C   UNL     1     -11.664  12.837  67.524  1.00  0.00    -0.422 A  
HETATM   18  C   UNL     1     -11.470  12.563  66.053  1.00  0.00    -0.423 C  
ENDBRANCH   9  11
ENDBRANCH   6   9
ENDBRANCH   5   6
BRANCH   5  19
HETATM   19  C   UNL     1      -8.754   8.776  69.392  1.00  0.00    -0.142 C  
HETATM   20  C   UNL     1      -8.295   9.099  70.815  1.00  0.00    -0.248 C  
ENDBRANCH   5  19
ENDBRANCH   4   5
BRANCH   4  21
HETATM   21  C   UNL     1     -11.015   6.547  69.966  1.00  0.00    -0.332 C  
HETATM   22  C   UNL     1     -12.076   6.878  71.016  1.00  0.00    -0.429 C  
ENDBRANCH   4  21
ENDBRANCH   3   4
ENDBRANCH   2   3
TORSDOF 8
ENDMDL
MODEL      125
REMARK 921   NORMALIZED FREE ENERGY PREDICTED BY IDOCK:   -4.18 KCAL/MOL
REMARK 922        TOTAL FREE ENERGY PREDICTED BY IDOCK:   -7.11 KCAL/MOL
REMARK 923 INTER-LIGAND FREE ENERGY PREDICTED BY IDOCK:   -6.72 KCAL/MOL
REMARK 924 INTRA-LIGAND FREE ENERGY PREDICTED BY IDOCK:   -0.39 KCAL/MOL
REMARK 927      BINDING AFFINITY PREDICTED BY RF-SCORE:    0.00 PKD
ROOT
HETATM    1  C   UNL     1     -10.193  19.395  67.827  1.00  0.00    -0.530 C  
HETATM    2  C   UNL     1     -10.884  18.090  67.455  1.00  0.00    -0.252 C  
ENDROOT
BRANCH   2   3
HETATM    3  C   UNL     1     -10.130  17.302  66.364  1.00  0.00    -0.316 C  
BRANCH   3   4
HETATM    4  N   UNL     1     -10.532  15.886  66.159  1.00  0.00    -0.315 NA 
BRANCH   4   5
HETATM    5  C   UNL     1      -9.423  14.927  66.542  1.00  0.00    -0.283 C  
BRANCH   5   6
HETATM    6  C   UNL     1      -9.976  13.830  67.459  1.00  0.00    -0.233 C  
HETATM    7  H   UNL     1      -9.360  12.289  68.441  1.00  0.00     0.000 HD 
HETATM    8  O   UNL     1      -9.018  12.969  67.872  1.00  0.00    -0.182 OA 
BRANCH   6   9
HETATM    9  N   UNL     1     -11.223  13.745  67.767  1.00  0.00    -0.278 NA 
HETATM   10  H   UNL     1     -11.917  13.975  67.056  1.00  0.00     0.000 HD 
BRANCH   9  11
HETATM   11  C   UNL     1     -11.675  13.347  69.050  1.00  0.00    -0.323 A  
HETATM   12  C   UNL     1     -12.064  14.248  70.073  1.00  0.00    -0.400 A  
HETATM   13  C   UNL     1     -12.600  13.757  71.277  1.00  0.00    -0.444 A  
HETATM   14  C   UNL     1     -11.916  15.738  69.990  1.00  0.00    -0.352 C  
HETATM   15  C   UNL     1     -12.821  12.401  71.465  1.00  0.00    -0.377 A  
HETATM   16  C   UNL     1     -12.473  11.506  70.462  1.00  0.00    -0.367 A  
HETATM   17  C   UNL     1     -11.893  11.962  69.263  1.00  0.00    -0.379 A  
HETATM   18  C   UNL     1     -11.521  10.935  68.224  1.00  0.00    -0.376 C  
ENDBRANCH   9  11
ENDBRANCH   6   9
ENDBRANCH   5   6
BRANCH   5  19
HETATM   19  C   UNL     1      -8.214  15.563  67.283  1.00  0.00    -0.224 C  
HETATM   20  C   UNL     1      -8.394  15.768  68.788  1.00  0.00    -0.195 C  
ENDBRANCH   5  19
ENDBRANCH   4   5
BRANCH   4  21
HETATM   21  C   UNL     1     -10.981  15.670  64.757  1.00  0.00    -0.400 C  
HETATM   22  C   UNL     1     -12.089  14.643  64.513  1.00  0.00    -0.490 C  
ENDBRANCH   4  21
ENDBRANCH   3   4
ENDBRANCH   2   3
TORSDOF 8
ENDMDL
MODEL      126
REMARK 921   NORMALIZED FREE ENERGY PREDICTED BY IDOCK:   -4.18 KCAL/MOL
REMARK 922        TOTAL FREE ENERGY PREDICTED BY IDOCK:   -7.11 KCAL/MOL
REMARK 923 INTER-LIGAND FREE ENERGY PREDICTED BY IDOCK:   -6.13 KCAL/MOL
REMARK 924 INTRA-LIGAND FREE ENERGY PREDICTED BY IDOCK:   -0.99 KCAL/MOL
REMARK 927      BINDING AFFINITY PREDICTED BY RF-SCORE:    0.00 PKD
ROOT
HETATM    1  C   UNL     1     -12.348  12.204  64.166  1.00  0.00    -0.508 C  
HETATM    2  C   UNL     1     -12.482  13.445  65.037  1.00  0.00    -0.479 C  
ENDROOT
BRANCH   2   3
HETATM    3  C   UNL     1     -11.557  13.414  66.272  1.00  0.00    -0.344 C  
BRANCH   3   4
HETATM    4  N   UNL     1     -10.459  14.414  66.314  1.00  0.00    -0.284 NA 
BRANCH   4   5
HETATM    5  C   UNL     1     -10.639  15.397  67.453  1.00  0.00    -0.289 C  
BRANCH   5   6
HETATM    6  C   UNL     1      -9.325  15.541  68.231  1.00  0.00    -0.192 C  
HETATM    7  H   UNL     1      -7.981  14.434  69.059  1.00  0.00     0.000 HD 
HETATM    8  O   UNL     1      -8.795  14.345  68.578  1.00  0.00    -0.177 OA 
BRANCH   6   9
HETATM    9  N   UNL     1      -8.817  16.685  68.530  1.00  0.00    -0.226 NA 
HETATM   10  H   UNL     1      -8.650  16.902  69.512  1.00  0.00     0.000 HD 
BRANCH   9  11
HETATM   11  C   UNL     1      -8.480  17.657  67.555  1.00  0.00    -0.219 A  
HETATM   12  C   UNL     1      -9.273  18.792  67.254  1.00  0.00    -0.304 A  
HETATM   13  C   UNL     1      -8.804  19.758  66.346  1.00  0.00    -0.428 A  
HETATM   14  C   UNL     1     -10.641  19.044  67.818  1.00  0.00    -0.488 C  
HETATM   15  C   UNL     1      -7.542  19.661  65.781  1.00  0.00    -0.275 A  
HETATM   16  C   UNL     1      -6.738  18.570  66.088  1.00  0.00    -0.275 A  
HETATM   17  C   UNL     1      -7.197  17.563  66.958  1.00  0.00    -0.212 A  
HETATM   18  C   UNL     1      -6.281  16.397  67.233  1.00  0.00    -0.212 C  
ENDBRANCH   9  11
ENDBRANCH   6   9
ENDBRANCH   5   6
BRANCH   5  19
HETATM   19  C   UNL     1     -11.735  15.027  68.491  1.00  0.00    -0.345 C  
HETATM   20  C   UNL     1     -11.835  15.951  69.706  1.00  0.00    -0.303 C  
ENDBRANCH   5  19
ENDBRANCH   4   5
BRANCH   4  21
HETATM   21  C   UNL     1     -10.338  15.111  65.005  1.00  0.00    -0.344 C  
HETATM   22  C   UNL     1     -11.004  16.481  64.863  1.00  0.00    -0.223 C  
ENDBRANCH   4  21
ENDBRANCH   3   4
ENDBRANCH   2   3
TORSDOF 8
ENDMDL
MODEL      127
REMARK 921   NORMALIZED FREE ENERGY PREDICTED BY IDOCK:   -4.17 KCAL/MOL
REMARK 922        TOTAL FREE ENERGY PREDICTED BY IDOCK:   -7.08 KCAL/MOL
REMARK 923 INTER-LIGAND FREE ENERGY PREDICTED BY IDOCK:   -6.30 KCAL/MOL
REMARK 924 INTRA-LIGAND FREE ENERGY PREDICTED BY IDOCK:   -0.78 KCAL/MOL
REMARK 927      BINDING AFFINITY PREDICTED BY RF-SCORE:    0.00 PKD
ROOT
HETATM    1  C   UNL     1     -11.560  15.545  69.987  1.00  0.00    -0.356 C  
HETATM    2  C   UNL     1     -11.393  16.305  68.679  1.00  0.00    -0.333 C  
ENDROOT
BRANCH   2   3
HETATM    3  C   UNL     1     -10.184  17.263  68.691  1.00  0.00    -0.351 C  
BRANCH   3   4
HETATM    4  N   UNL     1      -9.508  17.509  67.391  1.00  0.00    -0.252 NA 
BRANCH   4   5
HETATM    5  C   UNL     1      -8.181  16.784  67.303  1.00  0.00    -0.176 C  
BRANCH   5   6
HETATM    6  C   UNL     1      -8.419  15.282  67.102  1.00  0.00    -0.209 C  
HETATM    7  H   UNL     1      -8.293  13.632  68.090  1.00  0.00     0.000 HD 
HETATM    8  O   UNL     1      -8.145  14.562  68.214  1.00  0.00    -0.125 OA 
BRANCH   6   9
HETATM    9  N   UNL     1      -8.812  14.785  65.982  1.00  0.00    -0.413 NA 
HETATM   10  H   UNL     1      -8.149  14.745  65.208  1.00  0.00     0.000 HD 
BRANCH   9  11
HETATM   11  C   UNL     1     -10.124  14.292  65.776  1.00  0.00    -0.335 A  
HETATM   12  C   UNL     1     -11.153  15.013  65.120  1.00  0.00    -0.408 A  
HETATM   13  C   UNL     1     -12.393  14.399  64.868  1.00  0.00    -0.414 A  
HETATM   14  C   UNL     1     -11.039  16.444  64.685  1.00  0.00    -0.202 C  
HETATM   15  C   UNL     1     -12.615  13.069  65.190  1.00  0.00    -0.530 A  
HETATM   16  C   UNL     1     -11.608  12.338  65.806  1.00  0.00    -0.443 A  
HETATM   17  C   UNL     1     -10.371  12.937  66.112  1.00  0.00    -0.286 A  
HETATM   18  C   UNL     1      -9.329  12.091  66.799  1.00  0.00    -0.206 C  
ENDBRANCH   9  11
ENDBRANCH   6   9
ENDBRANCH   5   6
BRANCH   5  19
HETATM   19  C   UNL     1      -7.255  16.928  68.542  1.00  0.00    -0.199 C  
HETATM   20  C   UNL     1      -5.997  17.774  68.334  1.00  0.00    -0.172 C  
ENDBRANCH   5  19
ENDBRANCH   4   5
BRANCH   4  21
HETATM   21  C   UNL     1      -9.349  18.969  67.155  1.00  0.00    -0.307 C  
HETATM   22  C   UNL     1     -10.597  19.772  66.784  1.00  0.00    -0.586 C  
ENDBRANCH   4  21
ENDBRANCH   3   4
ENDBRANCH   2   3
TORSDOF 8
ENDMDL
MODEL      128
REMARK 921   NORMALIZED FREE ENERGY PREDICTED BY IDOCK:   -4.15 KCAL/MOL
REMARK 922        TOTAL FREE ENERGY PREDICTED BY IDOCK:   -7.07 KCAL/MOL
REMARK 923 INTER-LIGAND FREE ENERGY PREDICTED BY IDOCK:   -6.40 KCAL/MOL
REMARK 924 INTRA-LIGAND FREE ENERGY PREDICTED BY IDOCK:   -0.67 KCAL/MOL
REMARK 927      BINDING AFFINITY PREDICTED BY RF-SCORE:    0.00 PKD
ROOT
HETATM    1  C   UNL     1      -6.720  15.186  67.544  1.00  0.00    -0.189 C  
HETATM    2  C   UNL     1      -7.697  14.256  68.249  1.00  0.00    -0.136 C  
ENDROOT
BRANCH   2   3
HETATM    3  C   UNL     1      -7.869  12.905  67.523  1.00  0.00    -0.177 C  
BRANCH   3   4
HETATM    4  N   UNL     1      -9.101  12.729  66.713  1.00  0.00    -0.221 NA 
BRANCH   4   5
HETATM    5  C   UNL     1     -10.270  13.497  67.296  1.00  0.00    -0.242 C  
BRANCH   5   6
HETATM    6  C   UNL     1     -11.138  12.560  68.145  1.00  0.00    -0.243 C  
HETATM    7  H   UNL     1     -12.751  11.515  67.996  1.00  0.00     0.000 HD 
HETATM    8  O   UNL     1     -12.214  12.096  67.469  1.00  0.00    -0.474 OA 
BRANCH   6   9
HETATM    9  N   UNL     1     -10.864  12.283  69.372  1.00  0.00    -0.457 NA 
HETATM   10  H   UNL     1     -10.017  12.675  69.783  1.00  0.00     0.000 HD 
BRANCH   9  11
HETATM   11  C   UNL     1     -11.687  11.458  70.178  1.00  0.00    -0.328 A  
HETATM   12  C   UNL     1     -11.568  10.047  70.256  1.00  0.00    -0.354 A  
HETATM   13  C   UNL     1     -12.361   9.323  71.165  1.00  0.00    -0.363 A  
HETATM   14  C   UNL     1     -10.656   9.225  69.394  1.00  0.00    -0.234 C  
HETATM   15  C   UNL     1     -13.218   9.967  72.042  1.00  0.00    -0.545 A  
HETATM   16  C   UNL     1     -13.326  11.351  72.000  1.00  0.00    -0.388 A  
HETATM   17  C   UNL     1     -12.580  12.101  71.071  1.00  0.00    -0.359 A  
HETATM   18  C   UNL     1     -12.760  13.599  71.066  1.00  0.00    -0.408 C  
ENDBRANCH   9  11
ENDBRANCH   6   9
ENDBRANCH   5   6
BRANCH   5  19
HETATM   19  C   UNL     1     -11.216  14.166  66.260  1.00  0.00    -0.329 C  
HETATM   20  C   UNL     1     -10.529  15.006  65.182  1.00  0.00    -0.438 C  
ENDBRANCH   5  19
ENDBRANCH   4   5
BRANCH   4  21
HETATM   21  C   UNL     1      -9.421  11.284  66.557  1.00  0.00    -0.193 C  
HETATM   22  C   UNL     1      -9.754  10.774  65.154  1.00  0.00    -0.319 C  
ENDBRANCH   4  21
ENDBRANCH   3   4
ENDBRANCH   2   3
TORSDOF 8
ENDMDL
MODEL      129
REMARK 921   NORMALIZED FREE ENERGY PREDICTED BY IDOCK:   -4.14 KCAL/MOL
REMARK 922        TOTAL FREE ENERGY PREDICTED BY IDOCK:   -7.05 KCAL/MOL
REMARK 923 INTER-LIGAND FREE ENERGY PREDICTED BY IDOCK:   -6.42 KCAL/MOL
REMARK 924 INTRA-LIGAND FREE ENERGY PREDICTED BY IDOCK:   -0.63 KCAL/MOL
REMARK 927      BINDING AFFINITY PREDICTED BY RF-SCORE:    0.00 PKD
ROOT
HETATM    1  C   UNL     1      -7.681  16.128  67.921  1.00  0.00    -0.148 C  
HETATM    2  C   UNL     1      -8.485  14.913  68.362  1.00  0.00    -0.153 C  
ENDROOT
BRANCH   2   3
HETATM    3  C   UNL     1      -8.255  13.682  67.461  1.00  0.00    -0.184 C  
BRANCH   3   4
HETATM    4  N   UNL     1      -9.388  13.261  66.597  1.00  0.00    -0.254 NA 
BRANCH   4   5
HETATM    5  C   UNL     1     -10.726  13.574  67.234  1.00  0.00    -0.267 C  
BRANCH   5   6
HETATM    6  C   UNL     1     -11.224  12.360  68.026  1.00  0.00    -0.268 C  
HETATM    7  H   UNL     1     -12.561  10.976  67.905  1.00  0.00     0.000 HD 
HETATM    8  O   UNL     1     -12.253  11.729  67.414  1.00  0.00    -0.501 OA 
BRANCH   6   9
HETATM    9  N   UNL     1     -10.719  12.016  69.159  1.00  0.00    -0.404 NA 
HETATM   10  H   UNL     1      -9.732  12.205  69.329  1.00  0.00     0.000 HD 
BRANCH   9  11
HETATM   11  C   UNL     1     -11.474  11.385  70.179  1.00  0.00    -0.214 A  
HETATM   12  C   UNL     1     -12.420  12.052  70.998  1.00  0.00    -0.376 A  
HETATM   13  C   UNL     1     -13.199  11.321  71.913  1.00  0.00    -0.491 A  
HETATM   14  C   UNL     1     -12.648  13.535  70.993  1.00  0.00    -0.438 C  
HETATM   15  C   UNL     1     -13.109   9.940  71.990  1.00  0.00    -0.545 A  
HETATM   16  C   UNL     1     -12.208   9.267  71.175  1.00  0.00    -0.373 A  
HETATM   17  C   UNL     1     -11.383   9.974  70.281  1.00  0.00    -0.376 A  
HETATM   18  C   UNL     1     -10.413   9.183  69.439  1.00  0.00    -0.226 C  
ENDBRANCH   9  11
ENDBRANCH   6   9
ENDBRANCH   5   6
BRANCH   5  19
HETATM   19  C   UNL     1     -11.863  13.962  66.247  1.00  0.00    -0.431 C  
HETATM   20  C   UNL     1     -11.408  14.573  64.921  1.00  0.00    -0.394 C  
ENDBRANCH   5  19
ENDBRANCH   4   5
BRANCH   4  21
HETATM   21  C   UNL     1      -9.272  11.817  66.253  1.00  0.00    -0.221 C  
HETATM   22  C   UNL     1      -7.979  11.095  66.636  1.00  0.00    -0.159 C  
ENDBRANCH   4  21
ENDBRANCH   3   4
ENDBRANCH   2   3
TORSDOF 8
ENDMDL
MODEL      130
REMARK 921   NORMALIZED FREE ENERGY PREDICTED BY IDOCK:   -4.13 KCAL/MOL
REMARK 922        TOTAL FREE ENERGY PREDICTED BY IDOCK:   -7.04 KCAL/MOL
REMARK 923 INTER-LIGAND FREE ENERGY PREDICTED BY IDOCK:   -6.00 KCAL/MOL
REMARK 924 INTRA-LIGAND FREE ENERGY PREDICTED BY IDOCK:   -1.04 KCAL/MOL
REMARK 927      BINDING AFFINITY PREDICTED BY RF-SCORE:    0.00 PKD
ROOT
HETATM    1  C   UNL     1     -12.046  13.336  63.579  1.00  0.00    -0.550 C  
HETATM    2  C   UNL     1     -10.768  13.588  64.366  1.00  0.00    -0.402 C  
ENDROOT
BRANCH   2   3
HETATM    3  C   UNL     1     -10.950  14.632  65.488  1.00  0.00    -0.340 C  
BRANCH   3   4
HETATM    4  N   UNL     1      -9.891  14.691  66.529  1.00  0.00    -0.263 NA 
BRANCH   4   5
HETATM    5  C   UNL     1     -10.303  13.961  67.791  1.00  0.00    -0.240 C  
BRANCH   5   6
HETATM    6  C   UNL     1      -9.868  12.493  67.709  1.00  0.00    -0.204 C  
HETATM    7  H   UNL     1      -8.272  11.424  67.866  1.00  0.00     0.000 HD 
HETATM    8  O   UNL     1      -8.541  12.333  67.917  1.00  0.00    -0.152 OA 
BRANCH   6   9
HETATM    9  N   UNL     1     -10.691  11.539  67.445  1.00  0.00    -0.220 NA 
HETATM   10  H   UNL     1     -11.575  11.769  66.991  1.00  0.00     0.000 HD 
BRANCH   9  11
HETATM   11  C   UNL     1     -10.424  10.182  67.757  1.00  0.00    -0.232 A  
HETATM   12  C   UNL     1     -10.645   9.598  69.029  1.00  0.00    -0.237 A  
HETATM   13  C   UNL     1     -10.450   8.218  69.214  1.00  0.00    -0.218 A  
HETATM   14  C   UNL     1     -11.054  10.364  70.253  1.00  0.00    -0.379 C  
HETATM   15  C   UNL     1     -10.106   7.393  68.155  1.00  0.00    -0.210 A  
HETATM   16  C   UNL     1      -9.913   7.943  66.895  1.00  0.00    -0.332 A  
HETATM   17  C   UNL     1     -10.057   9.328  66.687  1.00  0.00    -0.341 A  
HETATM   18  C   UNL     1      -9.814   9.861  65.297  1.00  0.00    -0.373 C  
ENDBRANCH   9  11
ENDBRANCH   6   9
ENDBRANCH   5   6
BRANCH   5  19
HETATM   19  C   UNL     1     -11.826  13.960  68.097  1.00  0.00    -0.407 C  
HETATM   20  C   UNL     1     -12.204  14.017  69.578  1.00  0.00    -0.355 C  
ENDBRANCH   5  19
ENDBRANCH   4   5
BRANCH   4  21
HETATM   21  C   UNL     1      -9.519  16.104  66.812  1.00  0.00    -0.238 C  
HETATM   22  C   UNL     1      -8.287  16.672  66.107  1.00  0.00    -0.305 C  
ENDBRANCH   4  21
ENDBRANCH   3   4
ENDBRANCH   2   3
TORSDOF 8
ENDMDL
MODEL      131
REMARK 921   NORMALIZED FREE ENERGY PREDICTED BY IDOCK:   -4.13 KCAL/MOL
REMARK 922        TOTAL FREE ENERGY PREDICTED BY IDOCK:   -7.03 KCAL/MOL
REMARK 923 INTER-LIGAND FREE ENERGY PREDICTED BY IDOCK:   -5.81 KCAL/MOL
REMARK 924 INTRA-LIGAND FREE ENERGY PREDICTED BY IDOCK:   -1.22 KCAL/MOL
REMARK 927      BINDING AFFINITY PREDICTED BY RF-SCORE:    0.00 PKD
ROOT
HETATM    1  C   UNL     1     -13.294  12.501  72.018  1.00  0.00    -0.528 C  
HETATM    2  C   UNL     1     -12.539  11.681  70.983  1.00  0.00    -0.431 C  
ENDROOT
BRANCH   2   3
HETATM    3  C   UNL     1     -12.117  10.292  71.508  1.00  0.00    -0.314 C  
BRANCH   3   4
HETATM    4  N   UNL     1     -11.445   9.384  70.543  1.00  0.00    -0.269 NA 
BRANCH   4   5
HETATM    5  C   UNL     1     -11.076   8.060  71.182  1.00  0.00    -0.252 C  
BRANCH   5   6
HETATM    6  C   UNL     1     -11.972   6.947  70.628  1.00  0.00    -0.348 C  
HETATM    7  H   UNL     1     -13.636   6.061  71.036  1.00  0.00     0.000 HD 
HETATM    8  O   UNL     1     -13.080   6.752  71.380  1.00  0.00    -0.289 OA 
BRANCH   6   9
HETATM    9  N   UNL     1     -11.668   6.270  69.576  1.00  0.00    -0.473 NA 
HETATM   10  H   UNL     1     -12.416   5.798  69.068  1.00  0.00     0.000 HD 
BRANCH   9  11
HETATM   11  C   UNL     1     -10.341   6.150  69.093  1.00  0.00    -0.218 A  
HETATM   12  C   UNL     1      -9.825   6.880  67.993  1.00  0.00    -0.153 A  
HETATM   13  C   UNL     1      -8.464   6.773  67.654  1.00  0.00    -0.122 A  
HETATM   14  C   UNL     1     -10.647   7.766  67.104  1.00  0.00    -0.401 C  
HETATM   15  C   UNL     1      -7.591   6.014  68.417  1.00  0.00    -0.091 A  
HETATM   16  C   UNL     1      -8.073   5.316  69.516  1.00  0.00    -0.094 A  
HETATM   17  C   UNL     1      -9.439   5.366  69.855  1.00  0.00    -0.210 A  
HETATM   18  C   UNL     1      -9.899   4.568  71.050  1.00  0.00    -0.266 C  
ENDBRANCH   9  11
ENDBRANCH   6   9
ENDBRANCH   5   6
BRANCH   5  19
HETATM   19  C   UNL     1     -11.200   8.006  72.730  1.00  0.00    -0.448 C  
HETATM   20  C   UNL     1      -9.962   7.504  73.476  1.00  0.00    -0.371 C  
ENDBRANCH   5  19
ENDBRANCH   4   5
BRANCH   4  21
HETATM   21  C   UNL     1     -10.258  10.050  69.941  1.00  0.00    -0.260 C  
HETATM   22  C   UNL     1      -8.880   9.460  70.244  1.00  0.00    -0.269 C  
ENDBRANCH   4  21
ENDBRANCH   3   4
ENDBRANCH   2   3
TORSDOF 8
ENDMDL
MODEL      132
REMARK 921   NORMALIZED FREE ENERGY PREDICTED BY IDOCK:   -4.13 KCAL/MOL
REMARK 922        TOTAL FREE ENERGY PREDICTED BY IDOCK:   -7.03 KCAL/MOL
REMARK 923 INTER-LIGAND FREE ENERGY PREDICTED BY IDOCK:   -6.29 KCAL/MOL
REMARK 924 INTRA-LIGAND FREE ENERGY PREDICTED BY IDOCK:   -0.74 KCAL/MOL
REMARK 927      BINDING AFFINITY PREDICTED BY RF-SCORE:    0.00 PKD
ROOT
HETATM    1  C   UNL     1      -6.233   8.847  65.506  1.00  0.00    -0.056 C  
HETATM    2  C   UNL     1      -7.165   9.930  64.984  1.00  0.00    -0.135 C  
ENDROOT
BRANCH   2   3
HETATM    3  C   UNL     1      -8.057  10.538  66.088  1.00  0.00    -0.145 C  
BRANCH   3   4
HETATM    4  N   UNL     1      -9.510  10.642  65.797  1.00  0.00    -0.190 NA 
BRANCH   4   5
HETATM    5  C   UNL     1     -10.326   9.723  66.683  1.00  0.00    -0.206 C  
BRANCH   5   6
HETATM    6  C   UNL     1     -10.724  10.457  67.969  1.00  0.00    -0.249 C  
HETATM    7  H   UNL     1     -10.009  10.851  69.715  1.00  0.00     0.000 HD 
HETATM    8  O   UNL     1      -9.762  10.396  68.919  1.00  0.00    -0.179 OA 
BRANCH   6   9
HETATM    9  N   UNL     1     -11.864  11.037  68.113  1.00  0.00    -0.703 NA 
HETATM   10  H   UNL     1     -12.688  10.600  67.700  1.00  0.00     0.000 HD 
BRANCH   9  11
HETATM   11  C   UNL     1     -12.025  12.255  68.819  1.00  0.00    -0.231 A  
HETATM   12  C   UNL     1     -12.257  12.342  70.215  1.00  0.00    -0.345 A  
HETATM   13  C   UNL     1     -12.298  13.599  70.845  1.00  0.00    -0.450 A  
HETATM   14  C   UNL     1     -12.506  11.162  71.107  1.00  0.00    -0.498 C  
HETATM   15  C   UNL     1     -12.049  14.765  70.138  1.00  0.00    -0.382 A  
HETATM   16  C   UNL     1     -11.790  14.696  68.776  1.00  0.00    -0.348 A  
HETATM   17  C   UNL     1     -11.787  13.457  68.107  1.00  0.00    -0.396 A  
HETATM   18  C   UNL     1     -11.518  13.457  66.623  1.00  0.00    -0.376 C  
ENDBRANCH   9  11
ENDBRANCH   6   9
ENDBRANCH   5   6
BRANCH   5  19
HETATM   19  C   UNL     1      -9.618   8.409  67.118  1.00  0.00    -0.233 C  
HETATM   20  C   UNL     1     -10.513   7.171  67.198  1.00  0.00    -0.389 C  
ENDBRANCH   5  19
ENDBRANCH   4   5
BRANCH   4  21
HETATM   21  C   UNL     1      -9.772  10.384  64.355  1.00  0.00    -0.333 C  
HETATM   22  C   UNL     1     -10.071  11.587  63.458  1.00  0.00    -0.446 C  
ENDBRANCH   4  21
ENDBRANCH   3   4
ENDBRANCH   2   3
TORSDOF 8
ENDMDL
MODEL      133
REMARK 921   NORMALIZED FREE ENERGY PREDICTED BY IDOCK:   -4.13 KCAL/MOL
REMARK 922        TOTAL FREE ENERGY PREDICTED BY IDOCK:   -7.03 KCAL/MOL
REMARK 923 INTER-LIGAND FREE ENERGY PREDICTED BY IDOCK:   -6.17 KCAL/MOL
REMARK 924 INTRA-LIGAND FREE ENERGY PREDICTED BY IDOCK:   -0.86 KCAL/MOL
REMARK 927      BINDING AFFINITY PREDICTED BY RF-SCORE:    0.00 PKD
ROOT
HETATM    1  C   UNL     1      -8.054  15.178  68.397  1.00  0.00    -0.139 C  
HETATM    2  C   UNL     1      -8.571  14.474  67.151  1.00  0.00    -0.242 C  
ENDROOT
BRANCH   2   3
HETATM    3  C   UNL     1      -9.330  13.169  67.469  1.00  0.00    -0.207 C  
BRANCH   3   4
HETATM    4  N   UNL     1     -10.813  13.248  67.513  1.00  0.00    -0.259 NA 
BRANCH   4   5
HETATM    5  C   UNL     1     -11.452  11.882  67.365  1.00  0.00    -0.323 C  
BRANCH   5   6
HETATM    6  C   UNL     1     -11.682  11.262  68.748  1.00  0.00    -0.338 C  
HETATM    7  H   UNL     1     -12.171  11.798  70.534  1.00  0.00     0.000 HD 
HETATM    8  O   UNL     1     -12.028  12.182  69.677  1.00  0.00    -0.305 OA 
BRANCH   6   9
HETATM    9  N   UNL     1     -11.532  10.004  68.979  1.00  0.00    -0.475 NA 
HETATM   10  H   UNL     1     -11.768   9.342  68.240  1.00  0.00     0.000 HD 
BRANCH   9  11
HETATM   11  C   UNL     1     -11.054   9.499  70.213  1.00  0.00    -0.271 A  
HETATM   12  C   UNL     1     -11.887   8.992  71.243  1.00  0.00    -0.379 A  
HETATM   13  C   UNL     1     -11.315   8.414  72.390  1.00  0.00    -0.448 A  
HETATM   14  C   UNL     1     -13.386   9.053  71.227  1.00  0.00    -0.259 C  
HETATM   15  C   UNL     1      -9.942   8.266  72.512  1.00  0.00    -0.373 A  
HETATM   16  C   UNL     1      -9.112   8.730  71.500  1.00  0.00    -0.322 A  
HETATM   17  C   UNL     1      -9.652   9.354  70.359  1.00  0.00    -0.319 A  
HETATM   18  C   UNL     1      -8.693   9.852  69.307  1.00  0.00    -0.172 C  
ENDBRANCH   9  11
ENDBRANCH   6   9
ENDBRANCH   5   6
BRANCH   5  19
HETATM   19  C   UNL     1     -10.637  10.847  66.541  1.00  0.00    -0.295 C  
HETATM   20  C   UNL     1     -10.699  11.014  65.021  1.00  0.00    -0.264 C  
ENDBRANCH   5  19
ENDBRANCH   4   5
BRANCH   4  21
HETATM   21  C   UNL     1     -11.314  14.199  66.484  1.00  0.00    -0.341 C  
HETATM   22  C   UNL     1     -12.730  13.987  65.947  1.00  0.00    -0.436 C  
ENDBRANCH   4  21
ENDBRANCH   3   4
ENDBRANCH   2   3
TORSDOF 8
ENDMDL
MODEL      134
REMARK 921   NORMALIZED FREE ENERGY PREDICTED BY IDOCK:   -4.08 KCAL/MOL
REMARK 922        TOTAL FREE ENERGY PREDICTED BY IDOCK:   -6.96 KCAL/MOL
REMARK 923 INTER-LIGAND FREE ENERGY PREDICTED BY IDOCK:   -6.37 KCAL/MOL
REMARK 924 INTRA-LIGAND FREE ENERGY PREDICTED BY IDOCK:   -0.60 KCAL/MOL
REMARK 927      BINDING AFFINITY PREDICTED BY RF-SCORE:    0.00 PKD
ROOT
HETATM    1  C   UNL     1      -7.032  10.522  66.811  1.00  0.00    -0.104 C  
HETATM    2  C   UNL     1      -7.555  11.893  67.214  1.00  0.00    -0.154 C  
ENDROOT
BRANCH   2   3
HETATM    3  C   UNL     1      -8.881  12.259  66.515  1.00  0.00    -0.128 C  
BRANCH   3   4
HETATM    4  N   UNL     1      -9.736  13.273  67.185  1.00  0.00    -0.230 NA 
BRANCH   4   5
HETATM    5  C   UNL     1     -11.207  13.035  66.912  1.00  0.00    -0.295 C  
BRANCH   5   6
HETATM    6  C   UNL     1     -11.877  12.431  68.152  1.00  0.00    -0.315 C  
HETATM    7  H   UNL     1     -12.552  12.982  69.871  1.00  0.00     0.000 HD 
HETATM    8  O   UNL     1     -12.137  13.357  69.103  1.00  0.00    -0.317 OA 
BRANCH   6   9
HETATM    9  N   UNL     1     -12.129  11.173  68.261  1.00  0.00    -0.735 NA 
HETATM   10  H   UNL     1     -12.827  10.761  67.642  1.00  0.00     0.000 HD 
BRANCH   9  11
HETATM   11  C   UNL     1     -11.481  10.336  69.203  1.00  0.00    -0.147 A  
HETATM   12  C   UNL     1     -11.747  10.347  70.595  1.00  0.00    -0.444 A  
HETATM   13  C   UNL     1     -11.130   9.405  71.438  1.00  0.00    -0.450 A  
HETATM   14  C   UNL     1     -12.639  11.341  71.279  1.00  0.00    -0.487 C  
HETATM   15  C   UNL     1     -10.310   8.412  70.926  1.00  0.00    -0.234 A  
HETATM   16  C   UNL     1     -10.062   8.367  69.560  1.00  0.00    -0.200 A  
HETATM   17  C   UNL     1     -10.628   9.323  68.696  1.00  0.00    -0.219 A  
HETATM   18  C   UNL     1     -10.302   9.227  67.227  1.00  0.00    -0.332 C  
ENDBRANCH   9  11
ENDBRANCH   6   9
ENDBRANCH   5   6
BRANCH   5  19
HETATM   19  C   UNL     1     -11.522  12.083  65.724  1.00  0.00    -0.377 C  
HETATM   20  C   UNL     1     -12.518  12.618  64.694  1.00  0.00    -0.538 C  
ENDBRANCH   5  19
ENDBRANCH   4   5
BRANCH   4  21
HETATM   21  C   UNL     1      -9.322  14.646  66.789  1.00  0.00    -0.257 C  
HETATM   22  C   UNL     1     -10.081  15.316  65.642  1.00  0.00    -0.401 C  
ENDBRANCH   4  21
ENDBRANCH   3   4
ENDBRANCH   2   3
TORSDOF 8
ENDMDL
MODEL      135
REMARK 921   NORMALIZED FREE ENERGY PREDICTED BY IDOCK:   -4.08 KCAL/MOL
REMARK 922        TOTAL FREE ENERGY PREDICTED BY IDOCK:   -6.96 KCAL/MOL
REMARK 923 INTER-LIGAND FREE ENERGY PREDICTED BY IDOCK:   -6.63 KCAL/MOL
REMARK 924 INTRA-LIGAND FREE ENERGY PREDICTED BY IDOCK:   -0.33 KCAL/MOL
REMARK 927      BINDING AFFINITY PREDICTED BY RF-SCORE:    0.00 PKD
ROOT
HETATM    1  C   UNL     1     -10.492  19.493  66.586  1.00  0.00    -0.593 C  
HETATM    2  C   UNL     1     -10.261  19.006  68.010  1.00  0.00    -0.476 C  
ENDROOT
BRANCH   2   3
HETATM    3  C   UNL     1     -10.869  17.612  68.274  1.00  0.00    -0.189 C  
BRANCH   3   4
HETATM    4  N   UNL     1      -9.919  16.475  68.383  1.00  0.00    -0.240 NA 
BRANCH   4   5
HETATM    5  C   UNL     1     -10.000  15.560  67.177  1.00  0.00    -0.242 C  
BRANCH   5   6
HETATM    6  C   UNL     1      -9.819  14.102  67.616  1.00  0.00    -0.229 C  
HETATM    7  H   UNL     1      -8.568  13.007  68.591  1.00  0.00     0.000 HD 
HETATM    8  O   UNL     1      -8.679  13.910  68.319  1.00  0.00    -0.174 OA 
BRANCH   6   9
HETATM    9  N   UNL     1     -10.662  13.177  67.315  1.00  0.00    -0.253 NA 
HETATM   10  H   UNL     1     -11.296  12.841  68.039  1.00  0.00     0.000 HD 
BRANCH   9  11
HETATM   11  C   UNL     1     -10.748  12.605  66.021  1.00  0.00    -0.269 A  
HETATM   12  C   UNL     1      -9.884  11.590  65.539  1.00  0.00    -0.269 A  
HETATM   13  C   UNL     1     -10.113  11.009  64.279  1.00  0.00    -0.398 A  
HETATM   14  C   UNL     1      -8.677  11.086  66.275  1.00  0.00    -0.178 C  
HETATM   15  C   UNL     1     -11.214  11.362  63.515  1.00  0.00    -0.322 A  
HETATM   16  C   UNL     1     -12.088  12.334  63.984  1.00  0.00    -0.563 A  
HETATM   17  C   UNL     1     -11.861  12.967  65.221  1.00  0.00    -0.429 A  
HETATM   18  C   UNL     1     -12.839  14.027  65.661  1.00  0.00    -0.442 C  
ENDBRANCH   9  11
ENDBRANCH   6   9
ENDBRANCH   5   6
BRANCH   5  19
HETATM   19  C   UNL     1      -8.949  15.826  66.064  1.00  0.00    -0.322 C  
HETATM   20  C   UNL     1      -7.774  16.720  66.463  1.00  0.00    -0.334 C  
ENDBRANCH   5  19
ENDBRANCH   4   5
BRANCH   4  21
HETATM   21  C   UNL     1     -10.144  15.729  69.650  1.00  0.00    -0.289 C  
HETATM   22  C   UNL     1     -11.383  16.081  70.475  1.00  0.00    -0.420 C  
ENDBRANCH   4  21
ENDBRANCH   3   4
ENDBRANCH   2   3
TORSDOF 8
ENDMDL
MODEL      136
REMARK 921   NORMALIZED FREE ENERGY PREDICTED BY IDOCK:   -4.08 KCAL/MOL
REMARK 922        TOTAL FREE ENERGY PREDICTED BY IDOCK:   -6.95 KCAL/MOL
REMARK 923 INTER-LIGAND FREE ENERGY PREDICTED BY IDOCK:   -6.56 KCAL/MOL
REMARK 924 INTRA-LIGAND FREE ENERGY PREDICTED BY IDOCK:   -0.40 KCAL/MOL
REMARK 927      BINDING AFFINITY PREDICTED BY RF-SCORE:    0.00 PKD
ROOT
HETATM    1  C   UNL     1     -12.936  14.599  71.347  1.00  0.00    -0.404 C  
HETATM    2  C   UNL     1     -12.086  15.656  70.656  1.00  0.00    -0.443 C  
ENDROOT
BRANCH   2   3
HETATM    3  C   UNL     1     -11.357  15.117  69.407  1.00  0.00    -0.294 C  
BRANCH   3   4
HETATM    4  N   UNL     1     -11.249  16.035  68.244  1.00  0.00    -0.356 NA 
BRANCH   4   5
HETATM    5  C   UNL     1     -11.370  15.292  66.929  1.00  0.00    -0.209 C  
BRANCH   5   6
HETATM    6  C   UNL     1     -10.848  13.859  67.091  1.00  0.00    -0.284 C  
HETATM    7  H   UNL     1      -9.190  12.927  67.403  1.00  0.00     0.000 HD 
HETATM    8  O   UNL     1      -9.513  13.815  67.303  1.00  0.00    -0.221 OA 
BRANCH   6   9
HETATM    9  N   UNL     1     -11.614  12.828  67.004  1.00  0.00    -0.340 NA 
HETATM   10  H   UNL     1     -12.621  12.959  67.101  1.00  0.00     0.000 HD 
BRANCH   9  11
HETATM   11  C   UNL     1     -11.121  11.519  66.779  1.00  0.00    -0.302 A  
HETATM   12  C   UNL     1     -10.559  11.078  65.554  1.00  0.00    -0.267 A  
HETATM   13  C   UNL     1      -9.999   9.791  65.459  1.00  0.00    -0.329 A  
HETATM   14  C   UNL     1     -10.542  11.887  64.291  1.00  0.00    -0.381 C  
HETATM   15  C   UNL     1      -9.921   8.958  66.564  1.00  0.00    -0.358 A  
HETATM   16  C   UNL     1     -10.439   9.385  67.780  1.00  0.00    -0.310 A  
HETATM   17  C   UNL     1     -11.047  10.649  67.896  1.00  0.00    -0.371 A  
HETATM   18  C   UNL     1     -11.607  11.042  69.241  1.00  0.00    -0.384 C  
ENDBRANCH   9  11
ENDBRANCH   6   9
ENDBRANCH   5   6
BRANCH   5  19
HETATM   19  C   UNL     1     -10.599  15.917  65.733  1.00  0.00    -0.368 C  
HETATM   20  C   UNL     1     -11.248  15.735  64.360  1.00  0.00    -0.249 C  
ENDBRANCH   5  19
ENDBRANCH   4   5
BRANCH   4  21
HETATM   21  C   UNL     1      -9.985  16.818  68.314  1.00  0.00    -0.273 C  
HETATM   22  C   UNL     1     -10.094  18.340  68.418  1.00  0.00    -0.412 C  
ENDBRANCH   4  21
ENDBRANCH   3   4
ENDBRANCH   2   3
TORSDOF 8
ENDMDL
MODEL      137
REMARK 921   NORMALIZED FREE ENERGY PREDICTED BY IDOCK:   -4.08 KCAL/MOL
REMARK 922        TOTAL FREE ENERGY PREDICTED BY IDOCK:   -6.95 KCAL/MOL
REMARK 923 INTER-LIGAND FREE ENERGY PREDICTED BY IDOCK:   -5.97 KCAL/MOL
REMARK 924 INTRA-LIGAND FREE ENERGY PREDICTED BY IDOCK:   -0.99 KCAL/MOL
REMARK 927      BINDING AFFINITY PREDICTED BY RF-SCORE:    0.00 PKD
ROOT
HETATM    1  C   UNL     1     -10.188  11.066  65.220  1.00  0.00    -0.344 C  
HETATM    2  C   UNL     1     -10.134  10.368  66.571  1.00  0.00    -0.285 C  
ENDROOT
BRANCH   2   3
HETATM    3  C   UNL     1     -11.176  10.913  67.570  1.00  0.00    -0.293 C  
BRANCH   3   4
HETATM    4  N   UNL     1     -10.652  11.557  68.803  1.00  0.00    -0.206 NA 
BRANCH   4   5
HETATM    5  C   UNL     1     -11.083  10.813  70.051  1.00  0.00    -0.255 C  
BRANCH   5   6
HETATM    6  C   UNL     1     -10.471   9.407  70.057  1.00  0.00    -0.234 C  
HETATM    7  H   UNL     1      -8.747   8.557  70.205  1.00  0.00     0.000 HD 
HETATM    8  O   UNL     1      -9.126   9.428  70.201  1.00  0.00    -0.194 OA 
BRANCH   6   9
HETATM    9  N   UNL     1     -11.179   8.342  69.913  1.00  0.00    -0.448 NA 
HETATM   10  H   UNL     1     -12.117   8.429  69.524  1.00  0.00     0.000 HD 
BRANCH   9  11
HETATM   11  C   UNL     1     -10.712   7.052  70.271  1.00  0.00    -0.241 A  
HETATM   12  C   UNL     1     -10.715   6.542  71.594  1.00  0.00    -0.267 A  
HETATM   13  C   UNL     1     -10.331   5.212  71.837  1.00  0.00    -0.275 A  
HETATM   14  C   UNL     1     -11.077   7.344  72.809  1.00  0.00    -0.394 C  
HETATM   15  C   UNL     1     -10.007   4.356  70.795  1.00  0.00    -0.247 A  
HETATM   16  C   UNL     1     -10.027   4.830  69.490  1.00  0.00    -0.287 A  
HETATM   17  C   UNL     1     -10.364   6.169  69.218  1.00  0.00    -0.276 A  
HETATM   18  C   UNL     1     -10.346   6.623  67.780  1.00  0.00    -0.239 C  
ENDBRANCH   9  11
ENDBRANCH   6   9
ENDBRANCH   5   6
BRANCH   5  19
HETATM   19  C   UNL     1     -12.616  10.634  70.228  1.00  0.00    -0.333 C  
HETATM   20  C   UNL     1     -13.131  10.729  71.666  1.00  0.00    -0.551 C  
ENDBRANCH   5  19
ENDBRANCH   4   5
BRANCH   4  21
HETATM   21  C   UNL     1     -11.056  12.988  68.854  1.00  0.00    -0.262 C  
HETATM   22  C   UNL     1     -11.344  13.696  67.529  1.00  0.00    -0.335 C  
ENDBRANCH   4  21
ENDBRANCH   3   4
ENDBRANCH   2   3
TORSDOF 8
ENDMDL
MODEL      138
REMARK 921   NORMALIZED FREE ENERGY PREDICTED BY IDOCK:   -4.05 KCAL/MOL
REMARK 922        TOTAL FREE ENERGY PREDICTED BY IDOCK:   -6.91 KCAL/MOL
REMARK 923 INTER-LIGAND FREE ENERGY PREDICTED BY IDOCK:   -5.77 KCAL/MOL
REMARK 924 INTRA-LIGAND FREE ENERGY PREDICTED BY IDOCK:   -1.14 KCAL/MOL
REMARK 927      BINDING AFFINITY PREDICTED BY RF-SCORE:    0.00 PKD
ROOT
HETATM    1  C   UNL     1      -7.450  10.186  65.673  1.00  0.00    -0.144 C  
HETATM    2  C   UNL     1      -7.020   9.604  67.012  1.00  0.00    -0.085 C  
ENDROOT
BRANCH   2   3
HETATM    3  C   UNL     1      -8.212   9.299  67.944  1.00  0.00    -0.115 C  
BRANCH   3   4
HETATM    4  N   UNL     1      -9.537   9.108  67.300  1.00  0.00    -0.147 NA 
BRANCH   4   5
HETATM    5  C   UNL     1     -10.641   9.802  68.072  1.00  0.00    -0.243 C  
BRANCH   5   6
HETATM    6  C   UNL     1     -11.162  11.001  67.271  1.00  0.00    -0.258 C  
HETATM    7  H   UNL     1     -12.576  12.311  67.342  1.00  0.00     0.000 HD 
HETATM    8  O   UNL     1     -12.253  11.567  67.838  1.00  0.00    -0.586 OA 
BRANCH   6   9
HETATM    9  N   UNL     1     -10.619  11.391  66.171  1.00  0.00    -0.259 NA 
HETATM   10  H   UNL     1     -10.122  10.705  65.604  1.00  0.00     0.000 HD 
BRANCH   9  11
HETATM   11  C   UNL     1     -10.682  12.730  65.712  1.00  0.00    -0.272 A  
HETATM   12  C   UNL     1     -11.664  13.220  64.814  1.00  0.00    -0.390 A  
HETATM   13  C   UNL     1     -11.709  14.589  64.499  1.00  0.00    -0.421 A  
HETATM   14  C   UNL     1     -12.678  12.360  64.118  1.00  0.00    -0.446 C  
HETATM   15  C   UNL     1     -10.850  15.494  65.102  1.00  0.00    -0.452 A  
HETATM   16  C   UNL     1      -9.901  15.037  66.007  1.00  0.00    -0.347 A  
HETATM   17  C   UNL     1      -9.800  13.666  66.309  1.00  0.00    -0.310 A  
HETATM   18  C   UNL     1      -8.735  13.235  67.286  1.00  0.00    -0.214 C  
ENDBRANCH   9  11
ENDBRANCH   6   9
ENDBRANCH   5   6
BRANCH   5  19
HETATM   19  C   UNL     1     -10.242  10.339  69.474  1.00  0.00    -0.261 C  
HETATM   20  C   UNL     1     -11.005   9.737  70.655  1.00  0.00    -0.398 C  
ENDBRANCH   5  19
ENDBRANCH   4   5
BRANCH   4  21
HETATM   21  C   UNL     1      -9.824   7.659  67.120  1.00  0.00    -0.202 C  
HETATM   22  C   UNL     1     -10.364   6.884  68.323  1.00  0.00    -0.220 C  
ENDBRANCH   4  21
ENDBRANCH   3   4
ENDBRANCH   2   3
TORSDOF 8
ENDMDL
MODEL      139
REMARK 921   NORMALIZED FREE ENERGY PREDICTED BY IDOCK:   -4.04 KCAL/MOL
REMARK 922        TOTAL FREE ENERGY PREDICTED BY IDOCK:   -6.90 KCAL/MOL
REMARK 923 INTER-LIGAND FREE ENERGY PREDICTED BY IDOCK:   -6.45 KCAL/MOL
REMARK 924 INTRA-LIGAND FREE ENERGY PREDICTED BY IDOCK:   -0.46 KCAL/MOL
REMARK 927      BINDING AFFINITY PREDICTED BY RF-SCORE:    0.00 PKD
ROOT
HETATM    1  C   UNL     1     -10.908   6.956  67.153  1.00  0.00    -0.447 C  
HETATM    2  C   UNL     1      -9.839   7.993  66.840  1.00  0.00    -0.318 C  
ENDROOT
BRANCH   2   3
HETATM    3  C   UNL     1     -10.408   9.420  66.702  1.00  0.00    -0.214 C  
BRANCH   3   4
HETATM    4  N   UNL     1      -9.460  10.545  66.912  1.00  0.00    -0.163 NA 
BRANCH   4   5
HETATM    5  C   UNL     1     -10.131  11.727  67.582  1.00  0.00    -0.193 C  
BRANCH   5   6
HETATM    6  C   UNL     1     -11.006  11.241  68.743  1.00  0.00    -0.220 C  
HETATM    7  H   UNL     1     -12.825  10.702  69.085  1.00  0.00     0.000 HD 
HETATM    8  O   UNL     1     -12.284  11.003  68.365  1.00  0.00    -0.586 OA 
BRANCH   6   9
HETATM    9  N   UNL     1     -10.557  11.106  69.942  1.00  0.00    -0.423 NA 
HETATM   10  H   UNL     1     -10.099  11.904  70.383  1.00  0.00     0.000 HD 
BRANCH   9  11
HETATM   11  C   UNL     1     -10.669   9.899  70.676  1.00  0.00    -0.303 A  
HETATM   12  C   UNL     1      -9.663   8.901  70.728  1.00  0.00    -0.281 A  
HETATM   13  C   UNL     1      -9.821   7.785  71.569  1.00  0.00    -0.200 A  
HETATM   14  C   UNL     1      -8.409   8.919  69.903  1.00  0.00    -0.128 C  
HETATM   15  C   UNL     1     -10.918   7.667  72.407  1.00  0.00    -0.353 A  
HETATM   16  C   UNL     1     -11.899   8.650  72.391  1.00  0.00    -0.402 A  
HETATM   17  C   UNL     1     -11.793   9.756  71.528  1.00  0.00    -0.476 A  
HETATM   18  C   UNL     1     -12.903  10.776  71.548  1.00  0.00    -0.567 C  
ENDBRANCH   9  11
ENDBRANCH   6   9
ENDBRANCH   5   6
BRANCH   5  19
HETATM   19  C   UNL     1     -11.044  12.587  66.664  1.00  0.00    -0.327 C  
HETATM   20  C   UNL     1     -11.073  14.084  66.975  1.00  0.00    -0.312 C  
ENDBRANCH   5  19
ENDBRANCH   4   5
BRANCH   4  21
HETATM   21  C   UNL     1      -8.822  10.936  65.626  1.00  0.00    -0.190 C  
HETATM   22  C   UNL     1      -9.452  10.419  64.332  1.00  0.00    -0.343 C  
ENDBRANCH   4  21
ENDBRANCH   3   4
ENDBRANCH   2   3
TORSDOF 8
ENDMDL
MODEL      140
REMARK 921   NORMALIZED FREE ENERGY PREDICTED BY IDOCK:   -4.04 KCAL/MOL
REMARK 922        TOTAL FREE ENERGY PREDICTED BY IDOCK:   -6.90 KCAL/MOL
REMARK 923 INTER-LIGAND FREE ENERGY PREDICTED BY IDOCK:   -6.31 KCAL/MOL
REMARK 924 INTRA-LIGAND FREE ENERGY PREDICTED BY IDOCK:   -0.59 KCAL/MOL
REMARK 927      BINDING AFFINITY PREDICTED BY RF-SCORE:    0.00 PKD
ROOT
HETATM    1  C   UNL     1     -12.307  14.435  64.396  1.00  0.00    -0.428 C  
HETATM    2  C   UNL     1     -11.343  15.584  64.140  1.00  0.00    -0.004 C  
ENDROOT
BRANCH   2   3
HETATM    3  C   UNL     1     -11.156  16.497  65.370  1.00  0.00    -0.019 C  
BRANCH   3   4
HETATM    4  N   UNL     1      -9.793  16.560  65.959  1.00  0.00    -0.377 NA 
BRANCH   4   5
HETATM    5  C   UNL     1      -9.686  15.721  67.216  1.00  0.00    -0.223 C  
BRANCH   5   6
HETATM    6  C   UNL     1     -10.968  15.858  68.045  1.00  0.00    -0.336 C  
HETATM    7  H   UNL     1     -11.766  17.056  69.327  1.00  0.00     0.000 HD 
HETATM    8  O   UNL     1     -10.971  16.971  68.814  1.00  0.00    -0.289 OA 
BRANCH   6   9
HETATM    9  N   UNL     1     -11.912  14.983  68.013  1.00  0.00    -0.521 NA 
HETATM   10  H   UNL     1     -12.635  15.073  67.300  1.00  0.00     0.000 HD 
BRANCH   9  11
HETATM   11  C   UNL     1     -11.990  13.901  68.925  1.00  0.00    -0.358 A  
HETATM   12  C   UNL     1     -12.557  13.990  70.221  1.00  0.00    -0.354 A  
HETATM   13  C   UNL     1     -12.687  12.836  71.014  1.00  0.00    -0.331 A  
HETATM   14  C   UNL     1     -13.019  15.268  70.857  1.00  0.00    -0.522 C  
HETATM   15  C   UNL     1     -12.330  11.587  70.529  1.00  0.00    -0.432 A  
HETATM   16  C   UNL     1     -11.800  11.477  69.250  1.00  0.00    -0.414 A  
HETATM   17  C   UNL     1     -11.616  12.619  68.448  1.00  0.00    -0.370 A  
HETATM   18  C   UNL     1     -11.018  12.430  67.077  1.00  0.00    -0.303 C  
ENDBRANCH   9  11
ENDBRANCH   6   9
ENDBRANCH   5   6
BRANCH   5  19
HETATM   19  C   UNL     1      -8.503  16.077  68.160  1.00  0.00    -0.169 C  
HETATM   20  C   UNL     1      -7.482  14.961  68.391  1.00  0.00    -0.115 C  
ENDBRANCH   5  19
ENDBRANCH   4   5
BRANCH   4  21
HETATM   21  C   UNL     1      -9.399  17.973  66.209  1.00  0.00    -0.206 C  
HETATM   22  C   UNL     1     -10.481  19.047  66.089  1.00  0.00    -0.541 C  
ENDBRANCH   4  21
ENDBRANCH   3   4
ENDBRANCH   2   3
TORSDOF 8
ENDMDL
MODEL      141
REMARK 921   NORMALIZED FREE ENERGY PREDICTED BY IDOCK:   -4.04 KCAL/MOL
REMARK 922        TOTAL FREE ENERGY PREDICTED BY IDOCK:   -6.90 KCAL/MOL
REMARK 923 INTER-LIGAND FREE ENERGY PREDICTED BY IDOCK:   -5.97 KCAL/MOL
REMARK 924 INTRA-LIGAND FREE ENERGY PREDICTED BY IDOCK:   -0.93 KCAL/MOL
REMARK 927      BINDING AFFINITY PREDICTED BY RF-SCORE:    0.00 PKD
ROOT
HETATM    1  C   UNL     1      -5.887  19.841  70.404  1.00  0.00    -0.327 C  
HETATM    2  C   UNL     1      -7.139  20.034  69.560  1.00  0.00    -0.148 C  
ENDROOT
BRANCH   2   3
HETATM    3  C   UNL     1      -6.961  19.554  68.104  1.00  0.00    -0.279 C  
BRANCH   3   4
HETATM    4  N   UNL     1      -8.054  18.727  67.530  1.00  0.00    -0.254 NA 
BRANCH   4   5
HETATM    5  C   UNL     1      -7.586  17.323  67.208  1.00  0.00    -0.180 C  
BRANCH   5   6
HETATM    6  C   UNL     1      -8.793  16.386  67.087  1.00  0.00    -0.195 C  
HETATM    7  H   UNL     1     -10.462  16.020  67.979  1.00  0.00     0.000 HD 
HETATM    8  O   UNL     1      -9.715  16.601  68.054  1.00  0.00    -0.234 OA 
BRANCH   6   9
HETATM    9  N   UNL     1      -8.883  15.484  66.172  1.00  0.00    -0.419 NA 
HETATM   10  H   UNL     1      -8.115  15.385  65.509  1.00  0.00     0.000 HD 
BRANCH   9  11
HETATM   11  C   UNL     1     -10.002  14.625  66.045  1.00  0.00    -0.316 A  
HETATM   12  C   UNL     1     -11.132  14.901  65.236  1.00  0.00    -0.382 A  
HETATM   13  C   UNL     1     -12.147  13.938  65.090  1.00  0.00    -0.415 A  
HETATM   14  C   UNL     1     -11.363  16.199  64.519  1.00  0.00    -0.273 C  
HETATM   15  C   UNL     1     -12.038  12.686  65.673  1.00  0.00    -0.502 A  
HETATM   16  C   UNL     1     -10.924  12.386  66.445  1.00  0.00    -0.315 A  
HETATM   17  C   UNL     1      -9.912  13.344  66.647  1.00  0.00    -0.277 A  
HETATM   18  C   UNL     1      -8.739  12.960  67.514  1.00  0.00    -0.190 C  
ENDBRANCH   9  11
ENDBRANCH   6   9
ENDBRANCH   5   6
BRANCH   5  19
HETATM   19  C   UNL     1      -6.624  16.683  68.247  1.00  0.00    -0.138 C  
HETATM   20  C   UNL     1      -5.364  16.033  67.670  1.00  0.00    -0.152 C  
ENDBRANCH   5  19
ENDBRANCH   4   5
BRANCH   4  21
HETATM   21  C   UNL     1      -8.640  19.395  66.337  1.00  0.00    -0.354 C  
HETATM   22  C   UNL     1     -10.097  19.853  66.420  1.00  0.00    -0.615 C  
ENDBRANCH   4  21
ENDBRANCH   3   4
ENDBRANCH   2   3
TORSDOF 8
ENDMDL
MODEL      142
REMARK 921   NORMALIZED FREE ENERGY PREDICTED BY IDOCK:   -4.04 KCAL/MOL
REMARK 922        TOTAL FREE ENERGY PREDICTED BY IDOCK:   -6.90 KCAL/MOL
REMARK 923 INTER-LIGAND FREE ENERGY PREDICTED BY IDOCK:   -6.53 KCAL/MOL
REMARK 924 INTRA-LIGAND FREE ENERGY PREDICTED BY IDOCK:   -0.36 KCAL/MOL
REMARK 927      BINDING AFFINITY PREDICTED BY RF-SCORE:    0.00 PKD
ROOT
HETATM    1  C   UNL     1      -9.774   4.770  65.645  1.00  0.00    -0.188 C  
HETATM    2  C   UNL     1     -10.408   4.994  67.011  1.00  0.00    -0.242 C  
ENDROOT
BRANCH   2   3
HETATM    3  C   UNL     1     -11.118   6.359  67.127  1.00  0.00    -0.341 C  
BRANCH   3   4
HETATM    4  N   UNL     1     -11.064   7.034  68.450  1.00  0.00    -0.064 NA 
BRANCH   4   5
HETATM    5  C   UNL     1      -9.864   7.951  68.563  1.00  0.00    -0.177 C  
BRANCH   5   6
HETATM    6  C   UNL     1     -10.299   9.313  69.117  1.00  0.00    -0.211 C  
HETATM    7  H   UNL     1      -9.557  10.814  70.073  1.00  0.00     0.000 HD 
HETATM    8  O   UNL     1      -9.287   9.970  69.730  1.00  0.00    -0.220 OA 
BRANCH   6   9
HETATM    9  N   UNL     1     -11.506   9.749  69.019  1.00  0.00    -0.467 NA 
HETATM   10  H   UNL     1     -12.177   9.207  68.474  1.00  0.00     0.000 HD 
BRANCH   9  11
HETATM   11  C   UNL     1     -11.945  10.947  69.635  1.00  0.00    -0.343 A  
HETATM   12  C   UNL     1     -12.497  11.018  70.939  1.00  0.00    -0.509 A  
HETATM   13  C   UNL     1     -12.806  12.267  71.506  1.00  0.00    -0.384 A  
HETATM   14  C   UNL     1     -12.825   9.823  71.785  1.00  0.00    -0.530 C  
HETATM   15  C   UNL     1     -12.520  13.449  70.841  1.00  0.00    -0.439 A  
HETATM   16  C   UNL     1     -11.951  13.400  69.575  1.00  0.00    -0.377 A  
HETATM   17  C   UNL     1     -11.672  12.164  68.961  1.00  0.00    -0.377 A  
HETATM   18  C   UNL     1     -11.073  12.184  67.577  1.00  0.00    -0.328 C  
ENDBRANCH   9  11
ENDBRANCH   6   9
ENDBRANCH   5   6
BRANCH   5  19
HETATM   19  C   UNL     1      -9.106   8.230  67.235  1.00  0.00    -0.157 C  
HETATM   20  C   UNL     1      -9.855   9.088  66.213  1.00  0.00    -0.361 C  
ENDBRANCH   5  19
ENDBRANCH   4   5
BRANCH   4  21
HETATM   21  C   UNL     1     -11.089   6.030  69.548  1.00  0.00    -0.398 C  
HETATM   22  C   UNL     1     -11.561   6.493  70.927  1.00  0.00    -0.417 C  
ENDBRANCH   4  21
ENDBRANCH   3   4
ENDBRANCH   2   3
TORSDOF 8
ENDMDL
MODEL      143
REMARK 921   NORMALIZED FREE ENERGY PREDICTED BY IDOCK:   -4.02 KCAL/MOL
REMARK 922        TOTAL FREE ENERGY PREDICTED BY IDOCK:   -6.87 KCAL/MOL
REMARK 923 INTER-LIGAND FREE ENERGY PREDICTED BY IDOCK:   -5.93 KCAL/MOL
REMARK 924 INTRA-LIGAND FREE ENERGY PREDICTED BY IDOCK:   -0.94 KCAL/MOL
REMARK 927      BINDING AFFINITY PREDICTED BY RF-SCORE:    0.00 PKD
ROOT
HETATM    1  C   UNL     1     -10.774   7.271  67.299  1.00  0.00    -0.391 C  
HETATM    2  C   UNL     1      -9.390   7.863  67.074  1.00  0.00    -0.200 C  
ENDROOT
BRANCH   2   3
HETATM    3  C   UNL     1      -9.355   8.887  65.920  1.00  0.00    -0.236 C  
BRANCH   3   4
HETATM    4  N   UNL     1      -8.591  10.139  66.157  1.00  0.00    -0.136 NA 
BRANCH   4   5
HETATM    5  C   UNL     1      -9.416  11.368  65.831  1.00  0.00    -0.228 C  
BRANCH   5   6
HETATM    6  C   UNL     1      -9.968  11.982  67.123  1.00  0.00    -0.195 C  
HETATM    7  H   UNL     1      -9.359  12.512  68.874  1.00  0.00     0.000 HD 
HETATM    8  O   UNL     1      -9.017  12.131  68.074  1.00  0.00    -0.175 OA 
BRANCH   6   9
HETATM    9  N   UNL     1     -11.209  12.290  67.270  1.00  0.00    -0.281 NA 
HETATM   10  H   UNL     1     -11.887  11.909  66.610  1.00  0.00     0.000 HD 
BRANCH   9  11
HETATM   11  C   UNL     1     -11.676  13.135  68.307  1.00  0.00    -0.349 A  
HETATM   12  C   UNL     1     -11.980  12.692  69.619  1.00  0.00    -0.352 A  
HETATM   13  C   UNL     1     -12.336  13.623  70.612  1.00  0.00    -0.440 A  
HETATM   14  C   UNL     1     -11.988  11.254  70.047  1.00  0.00    -0.447 C  
HETATM   15  C   UNL     1     -12.333  14.985  70.354  1.00  0.00    -0.401 A  
HETATM   16  C   UNL     1     -12.009  15.439  69.082  1.00  0.00    -0.324 A  
HETATM   17  C   UNL     1     -11.692  14.530  68.055  1.00  0.00    -0.373 A  
HETATM   18  C   UNL     1     -11.369  15.090  66.692  1.00  0.00    -0.289 C  
ENDBRANCH   9  11
ENDBRANCH   6   9
ENDBRANCH   5   6
BRANCH   5  19
HETATM   19  C   UNL     1     -10.631  11.130  64.893  1.00  0.00    -0.356 C  
HETATM   20  C   UNL     1     -10.580  11.853  63.546  1.00  0.00    -0.507 C  
ENDBRANCH   5  19
ENDBRANCH   4   5
BRANCH   4  21
HETATM   21  C   UNL     1      -7.313  10.122  65.395  1.00  0.00    -0.144 C  
HETATM   22  C   UNL     1      -7.298   9.404  64.044  1.00  0.00    -0.105 C  
ENDBRANCH   4  21
ENDBRANCH   3   4
ENDBRANCH   2   3
TORSDOF 8
ENDMDL
MODEL      144
REMARK 921   NORMALIZED FREE ENERGY PREDICTED BY IDOCK:   -4.02 KCAL/MOL
REMARK 922        TOTAL FREE ENERGY PREDICTED BY IDOCK:   -6.86 KCAL/MOL
REMARK 923 INTER-LIGAND FREE ENERGY PREDICTED BY IDOCK:   -6.17 KCAL/MOL
REMARK 924 INTRA-LIGAND FREE ENERGY PREDICTED BY IDOCK:   -0.70 KCAL/MOL
REMARK 927      BINDING AFFINITY PREDICTED BY RF-SCORE:    0.00 PKD
ROOT
HETATM    1  C   UNL     1     -13.314   9.569  72.174  1.00  0.00    -0.545 C  
HETATM    2  C   UNL     1     -13.149  10.087  70.753  1.00  0.00    -0.316 C  
ENDROOT
BRANCH   2   3
HETATM    3  C   UNL     1     -12.249  11.338  70.670  1.00  0.00    -0.393 C  
BRANCH   3   4
HETATM    4  N   UNL     1     -11.185  11.332  69.633  1.00  0.00    -0.262 NA 
BRANCH   4   5
HETATM    5  C   UNL     1     -11.669  11.935  68.329  1.00  0.00    -0.321 C  
BRANCH   5   6
HETATM    6  C   UNL     1     -10.707  11.564  67.195  1.00  0.00    -0.254 C  
HETATM    7  H   UNL     1      -8.913  11.953  66.605  1.00  0.00     0.000 HD 
HETATM    8  O   UNL     1      -9.509  12.183  67.308  1.00  0.00    -0.178 OA 
BRANCH   6   9
HETATM    9  N   UNL     1     -11.035  10.768  66.238  1.00  0.00    -0.079 NA 
HETATM   10  H   UNL     1     -11.966  10.351  66.249  1.00  0.00     0.000 HD 
BRANCH   9  11
HETATM   11  C   UNL     1     -10.162  10.445  65.170  1.00  0.00    -0.256 A  
HETATM   12  C   UNL     1      -9.197   9.408  65.215  1.00  0.00    -0.299 A  
HETATM   13  C   UNL     1      -8.448   9.093  64.067  1.00  0.00    -0.195 A  
HETATM   14  C   UNL     1      -8.869   8.609  66.442  1.00  0.00    -0.167 C  
HETATM   15  C   UNL     1      -8.678   9.734  62.860  1.00  0.00    -0.229 A  
HETATM   16  C   UNL     1      -9.641  10.732  62.790  1.00  0.00    -0.337 A  
HETATM   17  C   UNL     1     -10.376  11.102  63.932  1.00  0.00    -0.441 A  
HETATM   18  C   UNL     1     -11.392  12.208  63.790  1.00  0.00    -0.529 C  
ENDBRANCH   9  11
ENDBRANCH   6   9
ENDBRANCH   5   6
BRANCH   5  19
HETATM   19  C   UNL     1     -11.801  13.483  68.316  1.00  0.00    -0.401 C  
HETATM   20  C   UNL     1     -12.127  14.108  66.958  1.00  0.00    -0.449 C  
ENDBRANCH   5  19
ENDBRANCH   4   5
BRANCH   4  21
HETATM   21  C   UNL     1     -10.658   9.954  69.435  1.00  0.00    -0.229 C  
HETATM   22  C   UNL     1      -9.361   9.577  70.152  1.00  0.00    -0.286 C  
ENDBRANCH   4  21
ENDBRANCH   3   4
ENDBRANCH   2   3
TORSDOF 8
ENDMDL
MODEL      145
REMARK 921   NORMALIZED FREE ENERGY PREDICTED BY IDOCK:   -4.01 KCAL/MOL
REMARK 922        TOTAL FREE ENERGY PREDICTED BY IDOCK:   -6.86 KCAL/MOL
REMARK 923 INTER-LIGAND FREE ENERGY PREDICTED BY IDOCK:   -5.93 KCAL/MOL
REMARK 924 INTRA-LIGAND FREE ENERGY PREDICTED BY IDOCK:   -0.93 KCAL/MOL
REMARK 927      BINDING AFFINITY PREDICTED BY RF-SCORE:    0.00 PKD
ROOT
HETATM    1  C   UNL     1      -7.652   7.435  72.865  1.00  0.00    -0.094 C  
HETATM    2  C   UNL     1      -8.805   8.119  73.586  1.00  0.00    -0.296 C  
ENDROOT
BRANCH   2   3
HETATM    3  C   UNL     1     -10.175   7.488  73.263  1.00  0.00    -0.343 C  
BRANCH   3   4
HETATM    4  N   UNL     1     -10.386   7.015  71.870  1.00  0.00    -0.193 NA 
BRANCH   4   5
HETATM    5  C   UNL     1     -11.405   7.863  71.137  1.00  0.00    -0.266 C  
BRANCH   5   6
HETATM    6  C   UNL     1     -10.742   8.562  69.945  1.00  0.00    -0.224 C  
HETATM    7  H   UNL     1      -8.997   9.150  69.373  1.00  0.00     0.000 HD 
HETATM    8  O   UNL     1      -9.408   8.717  70.112  1.00  0.00    -0.156 OA 
BRANCH   6   9
HETATM    9  N   UNL     1     -11.407   8.971  68.922  1.00  0.00    -0.274 NA 
HETATM   10  H   UNL     1     -12.425   8.902  68.943  1.00  0.00     0.000 HD 
BRANCH   9  11
HETATM   11  C   UNL     1     -10.790   9.511  67.767  1.00  0.00    -0.195 A  
HETATM   12  C   UNL     1     -10.143   8.735  66.772  1.00  0.00    -0.359 A  
HETATM   13  C   UNL     1      -9.652   9.352  65.607  1.00  0.00    -0.345 A  
HETATM   14  C   UNL     1      -9.900   7.258  66.875  1.00  0.00    -0.279 C  
HETATM   15  C   UNL     1      -9.844  10.705  65.374  1.00  0.00    -0.325 A  
HETATM   16  C   UNL     1     -10.501  11.475  66.325  1.00  0.00    -0.294 A  
HETATM   17  C   UNL     1     -10.965  10.896  67.521  1.00  0.00    -0.352 A  
HETATM   18  C   UNL     1     -11.653  11.794  68.519  1.00  0.00    -0.380 C  
ENDBRANCH   9  11
ENDBRANCH   6   9
ENDBRANCH   5   6
BRANCH   5  19
HETATM   19  C   UNL     1     -12.087   8.972  71.985  1.00  0.00    -0.440 C  
HETATM   20  C   UNL     1     -13.616   8.942  72.009  1.00  0.00    -0.489 C  
ENDBRANCH   5  19
ENDBRANCH   4   5
BRANCH   4  21
HETATM   21  C   UNL     1     -10.764   5.576  71.861  1.00  0.00    -0.231 C  
HETATM   22  C   UNL     1     -11.149   4.931  73.193  1.00  0.00    -0.396 C  
ENDBRANCH   4  21
ENDBRANCH   3   4
ENDBRANCH   2   3
TORSDOF 8
ENDMDL
MODEL      146
REMARK 921   NORMALIZED FREE ENERGY PREDICTED BY IDOCK:   -4.01 KCAL/MOL
REMARK 922        TOTAL FREE ENERGY PREDICTED BY IDOCK:   -6.86 KCAL/MOL
REMARK 923 INTER-LIGAND FREE ENERGY PREDICTED BY IDOCK:   -5.99 KCAL/MOL
REMARK 924 INTRA-LIGAND FREE ENERGY PREDICTED BY IDOCK:   -0.86 KCAL/MOL
REMARK 927      BINDING AFFINITY PREDICTED BY RF-SCORE:    0.00 PKD
ROOT
HETATM    1  C   UNL     1     -10.904   6.249  67.128  1.00  0.00    -0.460 C  
HETATM    2  C   UNL     1     -11.144   6.624  68.583  1.00  0.00    -0.288 C  
ENDROOT
BRANCH   2   3
HETATM    3  C   UNL     1     -10.074   7.587  69.140  1.00  0.00    -0.192 C  
BRANCH   3   4
HETATM    4  N   UNL     1     -10.389   9.038  69.099  1.00  0.00    -0.215 NA 
BRANCH   4   5
HETATM    5  C   UNL     1      -9.175   9.865  68.726  1.00  0.00    -0.147 C  
BRANCH   5   6
HETATM    6  C   UNL     1      -9.529  10.824  67.583  1.00  0.00    -0.154 C  
HETATM    7  H   UNL     1      -8.739  12.270  66.583  1.00  0.00     0.000 HD 
HETATM    8  O   UNL     1      -8.520  11.677  67.291  1.00  0.00    -0.144 OA 
BRANCH   6   9
HETATM    9  N   UNL     1     -10.676  10.814  66.999  1.00  0.00    -0.264 NA 
HETATM   10  H   UNL     1     -11.364  10.119  67.288  1.00  0.00     0.000 HD 
BRANCH   9  11
HETATM   11  C   UNL     1     -11.026  11.727  65.973  1.00  0.00    -0.306 A  
HETATM   12  C   UNL     1     -10.765  11.517  64.596  1.00  0.00    -0.379 A  
HETATM   13  C   UNL     1     -11.245  12.431  63.641  1.00  0.00    -0.544 A  
HETATM   14  C   UNL     1      -9.959  10.374  64.052  1.00  0.00    -0.305 C  
HETATM   15  C   UNL     1     -12.032  13.510  64.011  1.00  0.00    -0.501 A  
HETATM   16  C   UNL     1     -12.323  13.715  65.353  1.00  0.00    -0.510 A  
HETATM   17  C   UNL     1     -11.820  12.844  66.337  1.00  0.00    -0.478 A  
HETATM   18  C   UNL     1     -12.158  13.136  67.778  1.00  0.00    -0.262 C  
ENDBRANCH   9  11
ENDBRANCH   6   9
ENDBRANCH   5   6
BRANCH   5  19
HETATM   19  C   UNL     1      -7.931   9.057  68.263  1.00  0.00    -0.104 C  
HETATM   20  C   UNL     1      -6.656   9.280  69.079  1.00  0.00    -0.047 C  
ENDBRANCH   5  19
ENDBRANCH   4   5
BRANCH   4  21
HETATM   21  C   UNL     1     -10.973   9.480  70.394  1.00  0.00    -0.278 C  
HETATM   22  C   UNL     1     -10.355   8.931  71.681  1.00  0.00    -0.416 C  
ENDBRANCH   4  21
ENDBRANCH   3   4
ENDBRANCH   2   3
TORSDOF 8
ENDMDL
MODEL      147
REMARK 921   NORMALIZED FREE ENERGY PREDICTED BY IDOCK:   -4.01 KCAL/MOL
REMARK 922        TOTAL FREE ENERGY PREDICTED BY IDOCK:   -6.86 KCAL/MOL
REMARK 923 INTER-LIGAND FREE ENERGY PREDICTED BY IDOCK:   -6.06 KCAL/MOL
REMARK 924 INTRA-LIGAND FREE ENERGY PREDICTED BY IDOCK:   -0.80 KCAL/MOL
REMARK 927      BINDING AFFINITY PREDICTED BY RF-SCORE:    0.00 PKD
ROOT
HETATM    1  C   UNL     1      -6.462  20.695  65.098  1.00  0.00    -0.290 C  
HETATM    2  C   UNL     1      -6.355  20.962  66.593  1.00  0.00    -0.344 C  
ENDROOT
BRANCH   2   3
HETATM    3  C   UNL     1      -7.670  20.682  67.349  1.00  0.00    -0.311 C  
BRANCH   3   4
HETATM    4  N   UNL     1      -7.863  19.306  67.875  1.00  0.00    -0.281 NA 
BRANCH   4   5
HETATM    5  C   UNL     1      -9.308  19.046  68.249  1.00  0.00    -0.343 C  
BRANCH   5   6
HETATM    6  C   UNL     1      -9.669  17.586  67.951  1.00  0.00    -0.278 C  
HETATM    7  H   UNL     1     -10.997  16.274  68.433  1.00  0.00     0.000 HD 
HETATM    8  O   UNL     1     -10.773  17.179  68.618  1.00  0.00    -0.343 OA 
BRANCH   6   9
HETATM    9  N   UNL     1      -8.966  16.843  67.169  1.00  0.00    -0.203 NA 
HETATM   10  H   UNL     1      -8.296  17.290  66.544  1.00  0.00     0.000 HD 
BRANCH   9  11
HETATM   11  C   UNL     1      -9.084  15.431  67.136  1.00  0.00    -0.220 A  
HETATM   12  C   UNL     1      -8.515  14.562  68.101  1.00  0.00    -0.157 A  
HETATM   13  C   UNL     1      -8.774  13.180  68.044  1.00  0.00    -0.190 A  
HETATM   14  C   UNL     1      -7.595  15.003  69.201  1.00  0.00    -0.176 C  
HETATM   15  C   UNL     1      -9.636  12.650  67.097  1.00  0.00    -0.207 A  
HETATM   16  C   UNL     1     -10.225  13.490  66.162  1.00  0.00    -0.303 A  
HETATM   17  C   UNL     1      -9.950  14.871  66.164  1.00  0.00    -0.323 A  
HETATM   18  C   UNL     1     -10.610  15.723  65.109  1.00  0.00    -0.436 C  
ENDBRANCH   9  11
ENDBRANCH   6   9
ENDBRANCH   5   6
BRANCH   5  19
HETATM   19  C   UNL     1     -10.358  19.925  67.515  1.00  0.00    -0.557 C  
HETATM   20  C   UNL     1     -10.657  19.530  66.067  1.00  0.00    -0.589 C  
ENDBRANCH   5  19
ENDBRANCH   4   5
BRANCH   4  21
HETATM   21  C   UNL     1      -6.949  19.055  69.022  1.00  0.00    -0.319 C  
HETATM   22  C   UNL     1      -5.771  18.104  68.801  1.00  0.00    -0.191 C  
ENDBRANCH   4  21
ENDBRANCH   3   4
ENDBRANCH   2   3
TORSDOF 8
ENDMDL
MODEL      148
REMARK 921   NORMALIZED FREE ENERGY PREDICTED BY IDOCK:   -4.00 KCAL/MOL
REMARK 922        TOTAL FREE ENERGY PREDICTED BY IDOCK:   -6.84 KCAL/MOL
REMARK 923 INTER-LIGAND FREE ENERGY PREDICTED BY IDOCK:   -5.91 KCAL/MOL
REMARK 924 INTRA-LIGAND FREE ENERGY PREDICTED BY IDOCK:   -0.93 KCAL/MOL
REMARK 927      BINDING AFFINITY PREDICTED BY RF-SCORE:    0.00 PKD
ROOT
HETATM    1  C   UNL     1     -11.815  14.411  69.615  1.00  0.00    -0.372 C  
HETATM    2  C   UNL     1     -11.957  13.699  68.277  1.00  0.00    -0.385 C  
ENDROOT
BRANCH   2   3
HETATM    3  C   UNL     1     -11.872  12.163  68.403  1.00  0.00    -0.303 C  
BRANCH   3   4
HETATM    4  N   UNL     1     -11.418  11.415  67.202  1.00  0.00    -0.499 NA 
BRANCH   4   5
HETATM    5  C   UNL     1     -10.052  10.793  67.412  1.00  0.00    -0.193 C  
BRANCH   5   6
HETATM    6  C   UNL     1     -10.206   9.379  67.983  1.00  0.00    -0.204 C  
HETATM    7  H   UNL     1     -10.852   7.643  67.450  1.00  0.00     0.000 HD 
HETATM    8  O   UNL     1     -10.758   8.519  67.096  1.00  0.00    -0.280 OA 
BRANCH   6   9
HETATM    9  N   UNL     1      -9.863   9.075  69.186  1.00  0.00    -0.171 NA 
HETATM   10  H   UNL     1      -9.043   9.529  69.588  1.00  0.00     0.000 HD 
BRANCH   9  11
HETATM   11  C   UNL     1     -10.574   8.139  69.977  1.00  0.00    -0.239 A  
HETATM   12  C   UNL     1     -10.327   6.743  69.975  1.00  0.00    -0.225 A  
HETATM   13  C   UNL     1     -11.013   5.905  70.872  1.00  0.00    -0.335 A  
HETATM   14  C   UNL     1      -9.384   6.051  69.035  1.00  0.00    -0.134 C  
HETATM   15  C   UNL     1     -11.886   6.424  71.816  1.00  0.00    -0.374 A  
HETATM   16  C   UNL     1     -12.117   7.793  71.853  1.00  0.00    -0.341 A  
HETATM   17  C   UNL     1     -11.481   8.653  70.938  1.00  0.00    -0.315 A  
HETATM   18  C   UNL     1     -11.793  10.126  71.021  1.00  0.00    -0.475 C  
ENDBRANCH   9  11
ENDBRANCH   6   9
ENDBRANCH   5   6
BRANCH   5  19
HETATM   19  C   UNL     1      -9.106  11.564  68.374  1.00  0.00    -0.185 C  
HETATM   20  C   UNL     1      -8.091  12.491  67.702  1.00  0.00    -0.171 C  
ENDBRANCH   5  19
ENDBRANCH   4   5
BRANCH   4  21
HETATM   21  C   UNL     1     -11.438  12.295  66.002  1.00  0.00    -0.381 C  
HETATM   22  C   UNL     1     -10.460  11.979  64.869  1.00  0.00    -0.325 C  
ENDBRANCH   4  21
ENDBRANCH   3   4
ENDBRANCH   2   3
TORSDOF 8
ENDMDL
MODEL      149
REMARK 921   NORMALIZED FREE ENERGY PREDICTED BY IDOCK:   -3.98 KCAL/MOL
REMARK 922        TOTAL FREE ENERGY PREDICTED BY IDOCK:   -6.82 KCAL/MOL
REMARK 923 INTER-LIGAND FREE ENERGY PREDICTED BY IDOCK:   -5.98 KCAL/MOL
REMARK 924 INTRA-LIGAND FREE ENERGY PREDICTED BY IDOCK:   -0.84 KCAL/MOL
REMARK 927      BINDING AFFINITY PREDICTED BY RF-SCORE:    0.00 PKD
ROOT
HETATM    1  C   UNL     1      -6.918  16.949  69.115  1.00  0.00    -0.234 C  
HETATM    2  C   UNL     1      -7.614  15.615  69.344  1.00  0.00    -0.221 C  
ENDROOT
BRANCH   2   3
HETATM    3  C   UNL     1      -8.686  15.306  68.278  1.00  0.00    -0.165 C  
BRANCH   3   4
HETATM    4  N   UNL     1      -9.806  14.421  68.688  1.00  0.00    -0.231 NA 
BRANCH   4   5
HETATM    5  C   UNL     1      -9.701  13.051  68.050  1.00  0.00    -0.224 C  
BRANCH   5   6
HETATM    6  C   UNL     1     -11.035  12.307  68.189  1.00  0.00    -0.231 C  
HETATM    7  H   UNL     1     -12.200  11.628  69.565  1.00  0.00     0.000 HD 
HETATM    8  O   UNL     1     -11.374  12.088  69.480  1.00  0.00    -0.267 OA 
BRANCH   6   9
HETATM    9  N   UNL     1     -11.724  11.923  67.172  1.00  0.00    -0.583 NA 
HETATM   10  H   UNL     1     -12.705  11.683  67.311  1.00  0.00     0.000 HD 
BRANCH   9  11
HETATM   11  C   UNL     1     -11.180  11.818  65.867  1.00  0.00    -0.290 A  
HETATM   12  C   UNL     1     -10.392  10.729  65.417  1.00  0.00    -0.315 A  
HETATM   13  C   UNL     1      -9.986  10.663  64.072  1.00  0.00    -0.401 A  
HETATM   14  C   UNL     1      -9.908   9.614  66.296  1.00  0.00    -0.323 C  
HETATM   15  C   UNL     1     -10.395  11.613  63.150  1.00  0.00    -0.383 A  
HETATM   16  C   UNL     1     -11.192  12.671  63.567  1.00  0.00    -0.489 A  
HETATM   17  C   UNL     1     -11.579  12.790  64.915  1.00  0.00    -0.369 A  
HETATM   18  C   UNL     1     -12.428  13.975  65.304  1.00  0.00    -0.495 C  
ENDBRANCH   9  11
ENDBRANCH   6   9
ENDBRANCH   5   6
BRANCH   5  19
HETATM   19  C   UNL     1      -8.606  12.119  68.641  1.00  0.00     0.003 C  
HETATM   20  C   UNL     1      -7.345  11.958  67.790  1.00  0.00    -0.109 C  
ENDBRANCH   5  19
ENDBRANCH   4   5
BRANCH   4  21
HETATM   21  C   UNL     1     -11.114  15.064  68.388  1.00  0.00    -0.278 C  
HETATM   22  C   UNL     1     -11.956  15.554  69.567  1.00  0.00    -0.372 C  
ENDBRANCH   4  21
ENDBRANCH   3   4
ENDBRANCH   2   3
TORSDOF 8
ENDMDL
MODEL      150
REMARK 921   NORMALIZED FREE ENERGY PREDICTED BY IDOCK:   -3.98 KCAL/MOL
REMARK 922        TOTAL FREE ENERGY PREDICTED BY IDOCK:   -6.81 KCAL/MOL
REMARK 923 INTER-LIGAND FREE ENERGY PREDICTED BY IDOCK:   -5.62 KCAL/MOL
REMARK 924 INTRA-LIGAND FREE ENERGY PREDICTED BY IDOCK:   -1.20 KCAL/MOL
REMARK 927      BINDING AFFINITY PREDICTED BY RF-SCORE:    0.00 PKD
ROOT
HETATM    1  C   UNL     1      -7.038   7.525  67.182  1.00  0.00    -0.085 C  
HETATM    2  C   UNL     1      -7.740   7.270  68.508  1.00  0.00    -0.120 C  
ENDROOT
BRANCH   2   3
HETATM    3  C   UNL     1      -8.156   8.571  69.227  1.00  0.00    -0.113 C  
BRANCH   3   4
HETATM    4  N   UNL     1      -9.570   9.002  69.070  1.00  0.00    -0.158 NA 
BRANCH   4   5
HETATM    5  C   UNL     1      -9.675  10.486  68.784  1.00  0.00    -0.184 C  
BRANCH   5   6
HETATM    6  C   UNL     1     -10.760  10.738  67.730  1.00  0.00    -0.251 C  
HETATM    7  H   UNL     1     -11.040  10.534  65.834  1.00  0.00     0.000 HD 
HETATM    8  O   UNL     1     -10.368  10.378  66.486  1.00  0.00    -0.234 OA 
BRANCH   6   9
HETATM    9  N   UNL     1     -11.900  11.260  68.020  1.00  0.00    -0.624 NA 
HETATM   10  H   UNL     1     -12.747  10.766  67.741  1.00  0.00     0.000 HD 
BRANCH   9  11
HETATM   11  C   UNL     1     -12.032  12.491  68.710  1.00  0.00    -0.238 A  
HETATM   12  C   UNL     1     -12.213  12.604  70.111  1.00  0.00    -0.310 A  
HETATM   13  C   UNL     1     -12.227  13.871  70.720  1.00  0.00    -0.441 A  
HETATM   14  C   UNL     1     -12.435  11.440  71.033  1.00  0.00    -0.486 C  
HETATM   15  C   UNL     1     -11.999  15.024  69.985  1.00  0.00    -0.375 A  
HETATM   16  C   UNL     1     -11.790  14.930  68.615  1.00  0.00    -0.332 A  
HETATM   17  C   UNL     1     -11.815  13.680  67.969  1.00  0.00    -0.397 A  
HETATM   18  C   UNL     1     -11.600  13.652  66.477  1.00  0.00    -0.392 C  
ENDBRANCH   9  11
ENDBRANCH   6   9
ENDBRANCH   5   6
BRANCH   5  19
HETATM   19  C   UNL     1      -8.377  11.161  68.259  1.00  0.00    -0.143 C  
HETATM   20  C   UNL     1      -8.369  12.690  68.285  1.00  0.00    -0.165 C  
ENDBRANCH   5  19
ENDBRANCH   4   5
BRANCH   4  21
HETATM   21  C   UNL     1     -10.367   8.619  70.267  1.00  0.00    -0.198 C  
HETATM   22  C   UNL     1      -9.704   8.755  71.638  1.00  0.00    -0.366 C  
ENDBRANCH   4  21
ENDBRANCH   3   4
ENDBRANCH   2   3
TORSDOF 8
ENDMDL
MODEL      151
REMARK 921   NORMALIZED FREE ENERGY PREDICTED BY IDOCK:   -3.97 KCAL/MOL
REMARK 922        TOTAL FREE ENERGY PREDICTED BY IDOCK:   -6.80 KCAL/MOL
REMARK 923 INTER-LIGAND FREE ENERGY PREDICTED BY IDOCK:   -6.43 KCAL/MOL
REMARK 924 INTRA-LIGAND FREE ENERGY PREDICTED BY IDOCK:   -0.36 KCAL/MOL
REMARK 927      BINDING AFFINITY PREDICTED BY RF-SCORE:    0.00 PKD
ROOT
HETATM    1  C   UNL     1     -11.927  15.321  64.348  1.00  0.00    -0.285 C  
HETATM    2  C   UNL     1     -10.674  14.724  64.972  1.00  0.00    -0.452 C  
ENDROOT
BRANCH   2   3
HETATM    3  C   UNL     1     -10.979  13.809  66.176  1.00  0.00    -0.292 C  
BRANCH   3   4
HETATM    4  N   UNL     1      -9.856  13.525  67.106  1.00  0.00    -0.240 NA 
BRANCH   4   5
HETATM    5  C   UNL     1      -9.648  12.036  67.297  1.00  0.00    -0.183 C  
BRANCH   5   6
HETATM    6  C   UNL     1     -10.736  11.472  68.218  1.00  0.00    -0.211 C  
HETATM    7  H   UNL     1     -12.541  10.802  68.120  1.00  0.00     0.000 HD 
HETATM    8  O   UNL     1     -11.867  11.152  67.549  1.00  0.00    -0.591 OA 
BRANCH   6   9
HETATM    9  N   UNL     1     -10.574  11.350  69.489  1.00  0.00    -0.445 NA 
HETATM   10  H   UNL     1      -9.759  11.784  69.921  1.00  0.00     0.000 HD 
BRANCH   9  11
HETATM   11  C   UNL     1     -11.479  10.639  70.317  1.00  0.00    -0.337 A  
HETATM   12  C   UNL     1     -11.415   9.242  70.552  1.00  0.00    -0.296 A  
HETATM   13  C   UNL     1     -12.292   8.642  71.472  1.00  0.00    -0.370 A  
HETATM   14  C   UNL     1     -10.475   8.307  69.848  1.00  0.00    -0.223 C  
HETATM   15  C   UNL     1     -13.185   9.400  72.213  1.00  0.00    -0.528 A  
HETATM   16  C   UNL     1     -13.241  10.774  72.018  1.00  0.00    -0.466 A  
HETATM   17  C   UNL     1     -12.407  11.399  71.071  1.00  0.00    -0.448 A  
HETATM   18  C   UNL     1     -12.534  12.891  70.896  1.00  0.00    -0.383 C  
ENDBRANCH   9  11
ENDBRANCH   6   9
ENDBRANCH   5   6
BRANCH   5  19
HETATM   19  C   UNL     1      -8.282  11.624  67.912  1.00  0.00    -0.141 C  
HETATM   20  C   UNL     1      -7.521  10.531  67.160  1.00  0.00    -0.097 C  
ENDBRANCH   5  19
ENDBRANCH   4   5
BRANCH   4  21
HETATM   21  C   UNL     1     -10.069  14.218  68.406  1.00  0.00    -0.243 C  
HETATM   22  C   UNL     1      -8.925  15.072  68.954  1.00  0.00    -0.202 C  
ENDBRANCH   4  21
ENDBRANCH   3   4
ENDBRANCH   2   3
TORSDOF 8
ENDMDL
MODEL      152
REMARK 921   NORMALIZED FREE ENERGY PREDICTED BY IDOCK:   -3.96 KCAL/MOL
REMARK 922        TOTAL FREE ENERGY PREDICTED BY IDOCK:   -6.79 KCAL/MOL
REMARK 923 INTER-LIGAND FREE ENERGY PREDICTED BY IDOCK:   -5.89 KCAL/MOL
REMARK 924 INTRA-LIGAND FREE ENERGY PREDICTED BY IDOCK:   -0.90 KCAL/MOL
REMARK 927      BINDING AFFINITY PREDICTED BY RF-SCORE:    0.00 PKD
ROOT
HETATM    1  C   UNL     1      -7.822   7.604  73.961  1.00  0.00    -0.195 C  
HETATM    2  C   UNL     1      -9.224   7.269  74.452  1.00  0.00    -0.169 C  
ENDROOT
BRANCH   2   3
HETATM    3  C   UNL     1     -10.126   6.690  73.342  1.00  0.00    -0.228 C  
BRANCH   3   4
HETATM    4  N   UNL     1      -9.812   7.087  71.945  1.00  0.00    -0.164 NA 
BRANCH   4   5
HETATM    5  C   UNL     1     -11.036   7.612  71.222  1.00  0.00    -0.238 C  
BRANCH   5   6
HETATM    6  C   UNL     1     -10.744   9.002  70.643  1.00  0.00    -0.239 C  
HETATM    7  H   UNL     1      -9.441  10.414  70.802  1.00  0.00     0.000 HD 
HETATM    8  O   UNL     1      -9.622   9.553  71.161  1.00  0.00    -0.213 OA 
BRANCH   6   9
HETATM    9  N   UNL     1     -11.511   9.569  69.780  1.00  0.00    -0.440 NA 
HETATM   10  H   UNL     1     -11.976   8.986  69.084  1.00  0.00     0.000 HD 
BRANCH   9  11
HETATM   11  C   UNL     1     -11.738  10.967  69.752  1.00  0.00    -0.335 A  
HETATM   12  C   UNL     1     -12.441  11.681  70.755  1.00  0.00    -0.425 A  
HETATM   13  C   UNL     1     -12.525  13.083  70.695  1.00  0.00    -0.347 A  
HETATM   14  C   UNL     1     -13.162  11.038  71.904  1.00  0.00    -0.503 C  
HETATM   15  C   UNL     1     -11.873  13.800  69.703  1.00  0.00    -0.393 A  
HETATM   16  C   UNL     1     -11.155  13.120  68.729  1.00  0.00    -0.309 A  
HETATM   17  C   UNL     1     -11.090  11.713  68.736  1.00  0.00    -0.283 A  
HETATM   18  C   UNL     1     -10.309  11.038  67.637  1.00  0.00    -0.223 C  
ENDBRANCH   9  11
ENDBRANCH   6   9
ENDBRANCH   5   6
BRANCH   5  19
HETATM   19  C   UNL     1     -12.318   7.750  72.090  1.00  0.00    -0.303 C  
HETATM   20  C   UNL     1     -13.579   7.103  71.514  1.00  0.00    -0.408 C  
ENDBRANCH   5  19
ENDBRANCH   4   5
BRANCH   4  21
HETATM   21  C   UNL     1      -9.188   5.954  71.209  1.00  0.00    -0.143 C  
HETATM   22  C   UNL     1     -10.103   5.053  70.379  1.00  0.00    -0.330 C  
ENDBRANCH   4  21
ENDBRANCH   3   4
ENDBRANCH   2   3
TORSDOF 8
ENDMDL
MODEL      153
REMARK 921   NORMALIZED FREE ENERGY PREDICTED BY IDOCK:   -3.96 KCAL/MOL
REMARK 922        TOTAL FREE ENERGY PREDICTED BY IDOCK:   -6.78 KCAL/MOL
REMARK 923 INTER-LIGAND FREE ENERGY PREDICTED BY IDOCK:   -6.55 KCAL/MOL
REMARK 924 INTRA-LIGAND FREE ENERGY PREDICTED BY IDOCK:   -0.24 KCAL/MOL
REMARK 927      BINDING AFFINITY PREDICTED BY RF-SCORE:    0.00 PKD
ROOT
HETATM    1  C   UNL     1      -9.660  10.270  63.471  1.00  0.00    -0.321 C  
HETATM    2  C   UNL     1      -9.893  11.753  63.219  1.00  0.00    -0.402 C  
ENDROOT
BRANCH   2   3
HETATM    3  C   UNL     1     -10.578  12.463  64.406  1.00  0.00    -0.337 C  
BRANCH   3   4
HETATM    4  N   UNL     1      -9.726  12.786  65.579  1.00  0.00    -0.143 NA 
BRANCH   4   5
HETATM    5  C   UNL     1      -9.864  11.749  66.675  1.00  0.00    -0.202 C  
BRANCH   5   6
HETATM    6  C   UNL     1     -10.975  12.162  67.648  1.00  0.00    -0.243 C  
HETATM    7  H   UNL     1     -12.835  12.667  67.623  1.00  0.00     0.000 HD 
HETATM    8  O   UNL     1     -12.147  12.411  67.020  1.00  0.00    -0.549 OA 
BRANCH   6   9
HETATM    9  N   UNL     1     -10.780  12.278  68.915  1.00  0.00    -0.344 NA 
HETATM   10  H   UNL     1      -9.960  12.791  69.237  1.00  0.00     0.000 HD 
BRANCH   9  11
HETATM   11  C   UNL     1     -11.655  11.724  69.882  1.00  0.00    -0.274 A  
HETATM   12  C   UNL     1     -11.728  10.342  70.193  1.00  0.00    -0.394 A  
HETATM   13  C   UNL     1     -12.552   9.899  71.243  1.00  0.00    -0.480 A  
HETATM   14  C   UNL     1     -10.999   9.267  69.443  1.00  0.00    -0.138 C  
HETATM   15  C   UNL     1     -13.252  10.796  72.035  1.00  0.00    -0.466 A  
HETATM   16  C   UNL     1     -13.169  12.156  71.764  1.00  0.00    -0.423 A  
HETATM   17  C   UNL     1     -12.389  12.628  70.692  1.00  0.00    -0.375 A  
HETATM   18  C   UNL     1     -12.358  14.115  70.442  1.00  0.00    -0.428 C  
ENDBRANCH   9  11
ENDBRANCH   6   9
ENDBRANCH   5   6
BRANCH   5  19
HETATM   19  C   UNL     1      -8.590  11.503  67.530  1.00  0.00    -0.143 C  
HETATM   20  C   UNL     1      -7.278  11.407  66.749  1.00  0.00    -0.131 C  
ENDBRANCH   5  19
ENDBRANCH   4   5
BRANCH   4  21
HETATM   21  C   UNL     1     -10.028  14.154  66.081  1.00  0.00    -0.314 C  
HETATM   22  C   UNL     1     -10.724  15.126  65.128  1.00  0.00    -0.442 C  
ENDBRANCH   4  21
ENDBRANCH   3   4
ENDBRANCH   2   3
TORSDOF 8
ENDMDL
MODEL      154
REMARK 921   NORMALIZED FREE ENERGY PREDICTED BY IDOCK:   -3.96 KCAL/MOL
REMARK 922        TOTAL FREE ENERGY PREDICTED BY IDOCK:   -6.78 KCAL/MOL
REMARK 923 INTER-LIGAND FREE ENERGY PREDICTED BY IDOCK:   -6.54 KCAL/MOL
REMARK 924 INTRA-LIGAND FREE ENERGY PREDICTED BY IDOCK:   -0.24 KCAL/MOL
REMARK 927      BINDING AFFINITY PREDICTED BY RF-SCORE:    0.00 PKD
ROOT
HETATM    1  C   UNL     1      -7.157  15.690  67.329  1.00  0.00    -0.242 C  
HETATM    2  C   UNL     1      -8.397  16.162  66.584  1.00  0.00    -0.321 C  
ENDROOT
BRANCH   2   3
HETATM    3  C   UNL     1      -9.685  16.049  67.427  1.00  0.00    -0.232 C  
BRANCH   3   4
HETATM    4  N   UNL     1     -10.868  15.437  66.769  1.00  0.00    -0.312 NA 
BRANCH   4   5
HETATM    5  C   UNL     1     -11.270  14.137  67.435  1.00  0.00    -0.318 C  
BRANCH   5   6
HETATM    6  C   UNL     1     -12.211  13.350  66.516  1.00  0.00    -0.356 C  
HETATM    7  H   UNL     1     -13.729  13.649  65.366  1.00  0.00     0.000 HD 
HETATM    8  O   UNL     1     -13.146  14.137  65.935  1.00  0.00    -0.373 OA 
BRANCH   6   9
HETATM    9  N   UNL     1     -12.118  12.076  66.352  1.00  0.00    -0.537 NA 
HETATM   10  H   UNL     1     -12.740  11.470  66.886  1.00  0.00     0.000 HD 
BRANCH   9  11
HETATM   11  C   UNL     1     -11.189  11.480  65.463  1.00  0.00    -0.138 A  
HETATM   12  C   UNL     1     -11.157  11.719  64.066  1.00  0.00    -0.461 A  
HETATM   13  C   UNL     1     -10.131  11.164  63.280  1.00  0.00    -0.426 A  
HETATM   14  C   UNL     1     -12.184  12.518  63.320  1.00  0.00    -0.512 C  
HETATM   15  C   UNL     1      -9.101  10.435  63.854  1.00  0.00    -0.272 A  
HETATM   16  C   UNL     1      -9.100  10.216  65.225  1.00  0.00    -0.234 A  
HETATM   17  C   UNL     1     -10.137  10.719  66.033  1.00  0.00    -0.305 A  
HETATM   18  C   UNL     1     -10.085  10.428  67.512  1.00  0.00    -0.231 C  
ENDBRANCH   9  11
ENDBRANCH   6   9
ENDBRANCH   5   6
BRANCH   5  19
HETATM   19  C   UNL     1     -11.995  14.281  68.801  1.00  0.00    -0.346 C  
HETATM   20  C   UNL     1     -11.798  13.122  69.781  1.00  0.00    -0.386 C  
ENDBRANCH   5  19
ENDBRANCH   4   5
BRANCH   4  21
HETATM   21  C   UNL     1     -10.615  15.250  65.314  1.00  0.00    -0.417 C  
HETATM   22  C   UNL     1     -11.258  16.244  64.345  1.00  0.00    -0.119 C  
ENDBRANCH   4  21
ENDBRANCH   3   4
ENDBRANCH   2   3
TORSDOF 8
ENDMDL
MODEL      155
REMARK 921   NORMALIZED FREE ENERGY PREDICTED BY IDOCK:   -3.95 KCAL/MOL
REMARK 922        TOTAL FREE ENERGY PREDICTED BY IDOCK:   -6.77 KCAL/MOL
REMARK 923 INTER-LIGAND FREE ENERGY PREDICTED BY IDOCK:   -5.95 KCAL/MOL
REMARK 924 INTRA-LIGAND FREE ENERGY PREDICTED BY IDOCK:   -0.82 KCAL/MOL
REMARK 927      BINDING AFFINITY PREDICTED BY RF-SCORE:    0.00 PKD
ROOT
HETATM    1  C   UNL     1     -10.690  19.153  67.309  1.00  0.00    -0.585 C  
HETATM    2  C   UNL     1     -10.314  18.045  68.282  1.00  0.00    -0.389 C  
ENDROOT
BRANCH   2   3
HETATM    3  C   UNL     1     -10.901  16.674  67.887  1.00  0.00    -0.321 C  
BRANCH   3   4
HETATM    4  N   UNL     1      -9.973  15.514  67.909  1.00  0.00    -0.218 NA 
BRANCH   4   5
HETATM    5  C   UNL     1     -10.642  14.270  68.457  1.00  0.00    -0.257 C  
BRANCH   5   6
HETATM    6  C   UNL     1     -10.653  13.170  67.390  1.00  0.00    -0.242 C  
HETATM    7  H   UNL     1     -11.668  11.604  66.906  1.00  0.00     0.000 HD 
HETATM    8  O   UNL     1     -11.662  12.286  67.568  1.00  0.00    -0.368 OA 
BRANCH   6   9
HETATM    9  N   UNL     1      -9.773  13.103  66.454  1.00  0.00    -0.267 NA 
HETATM   10  H   UNL     1      -9.065  13.835  66.396  1.00  0.00     0.000 HD 
BRANCH   9  11
HETATM   11  C   UNL     1      -9.742  12.056  65.498  1.00  0.00    -0.202 A  
HETATM   12  C   UNL     1     -10.448  12.078  64.269  1.00  0.00    -0.369 A  
HETATM   13  C   UNL     1     -10.271  11.039  63.338  1.00  0.00    -0.404 A  
HETATM   14  C   UNL     1     -11.433  13.140  63.877  1.00  0.00    -0.451 C  
HETATM   15  C   UNL     1      -9.364  10.016  63.565  1.00  0.00    -0.301 A  
HETATM   16  C   UNL     1      -8.641   9.995  64.750  1.00  0.00    -0.188 A  
HETATM   17  C   UNL     1      -8.828  10.995  65.723  1.00  0.00    -0.200 A  
HETATM   18  C   UNL     1      -8.026  10.901  66.996  1.00  0.00    -0.132 C  
ENDBRANCH   9  11
ENDBRANCH   6   9
ENDBRANCH   5   6
BRANCH   5  19
HETATM   19  C   UNL     1     -12.113  14.453  68.927  1.00  0.00    -0.288 C  
HETATM   20  C   UNL     1     -12.368  14.209  70.415  1.00  0.00    -0.428 C  
ENDBRANCH   5  19
ENDBRANCH   4   5
BRANCH   4  21
HETATM   21  C   UNL     1      -8.738  15.850  68.668  1.00  0.00    -0.199 C  
HETATM   22  C   UNL     1      -7.392  15.590  67.991  1.00  0.00    -0.139 C  
ENDBRANCH   4  21
ENDBRANCH   3   4
ENDBRANCH   2   3
TORSDOF 8
ENDMDL
MODEL      156
REMARK 921   NORMALIZED FREE ENERGY PREDICTED BY IDOCK:   -3.95 KCAL/MOL
REMARK 922        TOTAL FREE ENERGY PREDICTED BY IDOCK:   -6.77 KCAL/MOL
REMARK 923 INTER-LIGAND FREE ENERGY PREDICTED BY IDOCK:   -5.99 KCAL/MOL
REMARK 924 INTRA-LIGAND FREE ENERGY PREDICTED BY IDOCK:   -0.78 KCAL/MOL
REMARK 927      BINDING AFFINITY PREDICTED BY RF-SCORE:    0.00 PKD
ROOT
HETATM    1  C   UNL     1      -8.227  17.115  68.590  1.00  0.00    -0.255 C  
HETATM    2  C   UNL     1      -9.504  17.924  68.415  1.00  0.00    -0.304 C  
ENDROOT
BRANCH   2   3
HETATM    3  C   UNL     1     -10.752  17.038  68.213  1.00  0.00    -0.372 C  
BRANCH   3   4
HETATM    4  N   UNL     1     -10.628  15.606  68.589  1.00  0.00    -0.235 NA 
BRANCH   4   5
HETATM    5  C   UNL     1     -11.375  14.707  67.625  1.00  0.00    -0.336 C  
BRANCH   5   6
HETATM    6  C   UNL     1     -10.756  13.304  67.634  1.00  0.00    -0.239 C  
HETATM    7  H   UNL     1      -9.092  12.437  68.077  1.00  0.00     0.000 HD 
HETATM    8  O   UNL     1      -9.476  13.306  68.071  1.00  0.00    -0.206 OA 
BRANCH   6   9
HETATM    9  N   UNL     1     -11.397  12.260  67.240  1.00  0.00    -0.306 NA 
HETATM   10  H   UNL     1     -12.315  12.384  66.813  1.00  0.00     0.000 HD 
BRANCH   9  11
HETATM   11  C   UNL     1     -10.885  10.945  67.374  1.00  0.00    -0.279 A  
HETATM   12  C   UNL     1     -10.956  10.179  68.564  1.00  0.00    -0.278 A  
HETATM   13  C   UNL     1     -10.515   8.844  68.570  1.00  0.00    -0.218 A  
HETATM   14  C   UNL     1     -11.451  10.704  69.880  1.00  0.00    -0.393 C  
HETATM   15  C   UNL     1     -10.068   8.230  67.410  1.00  0.00    -0.298 A  
HETATM   16  C   UNL     1     -10.019   8.957  66.228  1.00  0.00    -0.337 A  
HETATM   17  C   UNL     1     -10.411  10.308  66.199  1.00  0.00    -0.253 A  
HETATM   18  C   UNL     1     -10.314  11.044  64.886  1.00  0.00    -0.378 C  
ENDBRANCH   9  11
ENDBRANCH   6   9
ENDBRANCH   5   6
BRANCH   5  19
HETATM   19  C   UNL     1     -11.393  15.179  66.145  1.00  0.00    -0.220 C  
HETATM   20  C   UNL     1     -10.103  14.939  65.358  1.00  0.00    -0.400 C  
ENDBRANCH   5  19
ENDBRANCH   4   5
BRANCH   4  21
HETATM   21  C   UNL     1     -11.076  15.396  69.992  1.00  0.00    -0.303 C  
HETATM   22  C   UNL     1     -12.581  15.357  70.261  1.00  0.00    -0.377 C  
ENDBRANCH   4  21
ENDBRANCH   3   4
ENDBRANCH   2   3
TORSDOF 8
ENDMDL
MODEL      157
REMARK 921   NORMALIZED FREE ENERGY PREDICTED BY IDOCK:   -3.94 KCAL/MOL
REMARK 922        TOTAL FREE ENERGY PREDICTED BY IDOCK:   -6.75 KCAL/MOL
REMARK 923 INTER-LIGAND FREE ENERGY PREDICTED BY IDOCK:   -5.98 KCAL/MOL
REMARK 924 INTRA-LIGAND FREE ENERGY PREDICTED BY IDOCK:   -0.77 KCAL/MOL
REMARK 927      BINDING AFFINITY PREDICTED BY RF-SCORE:    0.00 PKD
ROOT
HETATM    1  C   UNL     1      -7.555  16.726  69.023  1.00  0.00    -0.218 C  
HETATM    2  C   UNL     1      -8.585  17.726  68.519  1.00  0.00    -0.291 C  
ENDROOT
BRANCH   2   3
HETATM    3  C   UNL     1      -9.696  17.070  67.673  1.00  0.00    -0.257 C  
BRANCH   3   4
HETATM    4  N   UNL     1     -10.262  15.794  68.181  1.00  0.00    -0.227 NA 
BRANCH   4   5
HETATM    5  C   UNL     1     -11.003  15.038  67.097  1.00  0.00    -0.329 C  
BRANCH   5   6
HETATM    6  C   UNL     1     -10.536  13.578  67.067  1.00  0.00    -0.269 C  
HETATM    7  H   UNL     1      -8.922  12.548  67.292  1.00  0.00     0.000 HD 
HETATM    8  O   UNL     1      -9.211  13.453  67.311  1.00  0.00    -0.204 OA 
BRANCH   6   9
HETATM    9  N   UNL     1     -11.333  12.600  66.811  1.00  0.00    -0.301 NA 
HETATM   10  H   UNL     1     -12.322  12.801  66.671  1.00  0.00     0.000 HD 
BRANCH   9  11
HETATM   11  C   UNL     1     -10.896  11.255  66.716  1.00  0.00    -0.282 A  
HETATM   12  C   UNL     1     -10.216  10.716  65.595  1.00  0.00    -0.319 A  
HETATM   13  C   UNL     1      -9.727   9.398  65.635  1.00  0.00    -0.336 A  
HETATM   14  C   UNL     1      -9.996  11.450  64.305  1.00  0.00    -0.329 C  
HETATM   15  C   UNL     1      -9.836   8.625  66.780  1.00  0.00    -0.322 A  
HETATM   16  C   UNL     1     -10.472   9.148  67.899  1.00  0.00    -0.293 A  
HETATM   17  C   UNL     1     -11.013  10.447  67.875  1.00  0.00    -0.354 A  
HETATM   18  C   UNL     1     -11.708  10.945  69.117  1.00  0.00    -0.397 C  
ENDBRANCH   9  11
ENDBRANCH   6   9
ENDBRANCH   5   6
BRANCH   5  19
HETATM   19  C   UNL     1     -10.830  15.593  65.656  1.00  0.00    -0.336 C  
HETATM   20  C   UNL     1     -11.957  15.258  64.677  1.00  0.00    -0.235 C  
ENDBRANCH   5  19
ENDBRANCH   4   5
BRANCH   4  21
HETATM   21  C   UNL     1     -11.131  16.044  69.363  1.00  0.00    -0.331 C  
HETATM   22  C   UNL     1     -12.156  14.971  69.735  1.00  0.00    -0.354 C  
ENDBRANCH   4  21
ENDBRANCH   3   4
ENDBRANCH   2   3
TORSDOF 8
ENDMDL
MODEL      158
REMARK 921   NORMALIZED FREE ENERGY PREDICTED BY IDOCK:   -3.94 KCAL/MOL
REMARK 922        TOTAL FREE ENERGY PREDICTED BY IDOCK:   -6.75 KCAL/MOL
REMARK 923 INTER-LIGAND FREE ENERGY PREDICTED BY IDOCK:   -5.90 KCAL/MOL
REMARK 924 INTRA-LIGAND FREE ENERGY PREDICTED BY IDOCK:   -0.85 KCAL/MOL
REMARK 927      BINDING AFFINITY PREDICTED BY RF-SCORE:    0.00 PKD
ROOT
HETATM    1  C   UNL     1     -12.690  11.873  63.304  1.00  0.00    -0.407 C  
HETATM    2  C   UNL     1     -12.570  12.664  64.599  1.00  0.00    -0.517 C  
ENDROOT
BRANCH   2   3
HETATM    3  C   UNL     1     -11.578  12.034  65.598  1.00  0.00    -0.296 C  
BRANCH   3   4
HETATM    4  N   UNL     1     -10.482  12.904  66.097  1.00  0.00    -0.265 NA 
BRANCH   4   5
HETATM    5  C   UNL     1     -10.701  13.308  67.542  1.00  0.00    -0.250 C  
BRANCH   5   6
HETATM    6  C   UNL     1      -9.353  13.396  68.267  1.00  0.00    -0.205 C  
HETATM    7  H   UNL     1      -7.749  12.357  68.516  1.00  0.00     0.000 HD 
HETATM    8  O   UNL     1      -8.584  12.301  68.066  1.00  0.00    -0.160 OA 
BRANCH   6   9
HETATM    9  N   UNL     1      -9.025  14.401  69.002  1.00  0.00    -0.375 NA 
HETATM   10  H   UNL     1      -8.643  14.222  69.930  1.00  0.00     0.000 HD 
BRANCH   9  11
HETATM   11  C   UNL     1      -9.170  15.745  68.577  1.00  0.00    -0.198 A  
HETATM   12  C   UNL     1     -10.261  16.579  68.929  1.00  0.00    -0.268 A  
HETATM   13  C   UNL     1     -10.265  17.933  68.547  1.00  0.00    -0.393 A  
HETATM   14  C   UNL     1     -11.478  16.112  69.673  1.00  0.00    -0.290 C  
HETATM   15  C   UNL     1      -9.185  18.496  67.885  1.00  0.00    -0.306 A  
HETATM   16  C   UNL     1      -8.094  17.701  67.559  1.00  0.00    -0.217 A  
HETATM   17  C   UNL     1      -8.079  16.332  67.887  1.00  0.00    -0.153 A  
HETATM   18  C   UNL     1      -6.871  15.523  67.486  1.00  0.00    -0.225 C  
ENDBRANCH   9  11
ENDBRANCH   6   9
ENDBRANCH   5   6
BRANCH   5  19
HETATM   19  C   UNL     1     -11.597  12.351  68.376  1.00  0.00    -0.373 C  
HETATM   20  C   UNL     1     -12.156  12.933  69.675  1.00  0.00    -0.290 C  
ENDBRANCH   5  19
ENDBRANCH   4   5
BRANCH   4  21
HETATM   21  C   UNL     1     -10.320  14.093  65.217  1.00  0.00    -0.388 C  
HETATM   22  C   UNL     1     -10.959  15.407  65.667  1.00  0.00    -0.330 C  
ENDBRANCH   4  21
ENDBRANCH   3   4
ENDBRANCH   2   3
TORSDOF 8
ENDMDL
MODEL      159
REMARK 921   NORMALIZED FREE ENERGY PREDICTED BY IDOCK:   -3.93 KCAL/MOL
REMARK 922        TOTAL FREE ENERGY PREDICTED BY IDOCK:   -6.74 KCAL/MOL
REMARK 923 INTER-LIGAND FREE ENERGY PREDICTED BY IDOCK:   -6.17 KCAL/MOL
REMARK 924 INTRA-LIGAND FREE ENERGY PREDICTED BY IDOCK:   -0.57 KCAL/MOL
REMARK 927      BINDING AFFINITY PREDICTED BY RF-SCORE:    0.00 PKD
ROOT
HETATM    1  C   UNL     1     -14.000  15.029  71.448  1.00  0.00    -0.565 C  
HETATM    2  C   UNL     1     -13.142  13.815  71.777  1.00  0.00    -0.463 C  
ENDROOT
BRANCH   2   3
HETATM    3  C   UNL     1     -12.205  13.410  70.620  1.00  0.00    -0.350 C  
BRANCH   3   4
HETATM    4  N   UNL     1     -11.979  11.956  70.416  1.00  0.00    -0.347 NA 
BRANCH   4   5
HETATM    5  C   UNL     1     -12.089  11.571  68.954  1.00  0.00    -0.206 C  
BRANCH   5   6
HETATM    6  C   UNL     1     -11.046  10.499  68.618  1.00  0.00    -0.267 C  
HETATM    7  H   UNL     1      -9.268   9.966  69.139  1.00  0.00     0.000 HD 
HETATM    8  O   UNL     1      -9.914  10.631  69.347  1.00  0.00    -0.216 OA 
BRANCH   6   9
HETATM    9  N   UNL     1     -11.241   9.599  67.718  1.00  0.00    -0.471 NA 
HETATM   10  H   UNL     1     -12.113   9.619  67.190  1.00  0.00     0.000 HD 
BRANCH   9  11
HETATM   11  C   UNL     1     -10.297   8.583  67.428  1.00  0.00    -0.286 A  
HETATM   12  C   UNL     1     -10.144   7.397  68.190  1.00  0.00    -0.210 A  
HETATM   13  C   UNL     1      -9.253   6.396  67.763  1.00  0.00    -0.112 A  
HETATM   14  C   UNL     1     -10.855   7.123  69.482  1.00  0.00    -0.244 C  
HETATM   15  C   UNL     1      -8.561   6.512  66.567  1.00  0.00    -0.123 A  
HETATM   16  C   UNL     1      -8.721   7.654  65.793  1.00  0.00    -0.151 A  
HETATM   17  C   UNL     1      -9.571   8.694  66.216  1.00  0.00    -0.322 A  
HETATM   18  C   UNL     1      -9.683   9.914  65.337  1.00  0.00    -0.375 C  
ENDBRANCH   9  11
ENDBRANCH   6   9
ENDBRANCH   5   6
BRANCH   5  19
HETATM   19  C   UNL     1     -11.884  12.730  67.940  1.00  0.00    -0.392 C  
HETATM   20  C   UNL     1     -10.436  12.993  67.520  1.00  0.00    -0.229 C  
ENDBRANCH   5  19
ENDBRANCH   4   5
BRANCH   4  21
HETATM   21  C   UNL     1     -12.911  11.161  71.261  1.00  0.00    -0.357 C  
HETATM   22  C   UNL     1     -12.437   9.792  71.752  1.00  0.00    -0.485 C  
ENDBRANCH   4  21
ENDBRANCH   3   4
ENDBRANCH   2   3
TORSDOF 8
ENDMDL
MODEL      160
REMARK 921   NORMALIZED FREE ENERGY PREDICTED BY IDOCK:   -3.92 KCAL/MOL
REMARK 922        TOTAL FREE ENERGY PREDICTED BY IDOCK:   -6.72 KCAL/MOL
REMARK 923 INTER-LIGAND FREE ENERGY PREDICTED BY IDOCK:   -6.33 KCAL/MOL
REMARK 924 INTRA-LIGAND FREE ENERGY PREDICTED BY IDOCK:   -0.39 KCAL/MOL
REMARK 927      BINDING AFFINITY PREDICTED BY RF-SCORE:    0.00 PKD
ROOT
HETATM    1  C   UNL     1      -6.286  15.632  67.809  1.00  0.00    -0.179 C  
HETATM    2  C   UNL     1      -7.066  16.339  66.710  1.00  0.00    -0.200 C  
ENDROOT
BRANCH   2   3
HETATM    3  C   UNL     1      -8.429  15.675  66.419  1.00  0.00    -0.236 C  
BRANCH   3   4
HETATM    4  N   UNL     1      -9.632  16.542  66.509  1.00  0.00    -0.256 NA 
BRANCH   4   5
HETATM    5  C   UNL     1      -9.856  17.046  67.920  1.00  0.00    -0.269 C  
BRANCH   5   6
HETATM    6  C   UNL     1     -10.322  15.893  68.817  1.00  0.00    -0.228 C  
HETATM    7  H   UNL     1      -9.652  14.773  70.235  1.00  0.00     0.000 HD 
HETATM    8  O   UNL     1      -9.362  15.487  69.680  1.00  0.00    -0.275 OA 
BRANCH   6   9
HETATM    9  N   UNL     1     -11.495  15.371  68.722  1.00  0.00    -0.321 NA 
HETATM   10  H   UNL     1     -12.179  15.817  68.112  1.00  0.00     0.000 HD 
BRANCH   9  11
HETATM   11  C   UNL     1     -11.877  14.203  69.428  1.00  0.00    -0.330 A  
HETATM   12  C   UNL     1     -11.467  12.891  69.080  1.00  0.00    -0.358 A  
HETATM   13  C   UNL     1     -11.811  11.804  69.903  1.00  0.00    -0.423 A  
HETATM   14  C   UNL     1     -10.694  12.547  67.841  1.00  0.00    -0.239 C  
HETATM   15  C   UNL     1     -12.493  11.993  71.094  1.00  0.00    -0.353 A  
HETATM   16  C   UNL     1     -12.878  13.274  71.466  1.00  0.00    -0.419 A  
HETATM   17  C   UNL     1     -12.588  14.378  70.642  1.00  0.00    -0.424 A  
HETATM   18  C   UNL     1     -13.052  15.739  71.096  1.00  0.00    -0.366 C  
ENDBRANCH   9  11
ENDBRANCH   6   9
ENDBRANCH   5   6
BRANCH   5  19
HETATM   19  C   UNL     1     -10.907  18.181  68.067  1.00  0.00    -0.189 C  
HETATM   20  C   UNL     1     -10.347  19.604  68.079  1.00  0.00    -0.579 C  
ENDBRANCH   5  19
ENDBRANCH   4   5
BRANCH   4  21
HETATM   21  C   UNL     1     -10.828  15.828  65.987  1.00  0.00    -0.255 C  
HETATM   22  C   UNL     1     -10.610  14.755  64.919  1.00  0.00    -0.431 C  
ENDBRANCH   4  21
ENDBRANCH   3   4
ENDBRANCH   2   3
TORSDOF 8
ENDMDL
MODEL      161
REMARK 921   NORMALIZED FREE ENERGY PREDICTED BY IDOCK:   -3.92 KCAL/MOL
REMARK 922        TOTAL FREE ENERGY PREDICTED BY IDOCK:   -6.72 KCAL/MOL
REMARK 923 INTER-LIGAND FREE ENERGY PREDICTED BY IDOCK:   -6.23 KCAL/MOL
REMARK 924 INTRA-LIGAND FREE ENERGY PREDICTED BY IDOCK:   -0.49 KCAL/MOL
REMARK 927      BINDING AFFINITY PREDICTED BY RF-SCORE:    0.00 PKD
ROOT
HETATM    1  C   UNL     1      -6.698  20.836  66.996  1.00  0.00    -0.375 C  
HETATM    2  C   UNL     1      -6.983  19.455  67.567  1.00  0.00    -0.226 C  
ENDROOT
BRANCH   2   3
HETATM    3  C   UNL     1      -8.267  18.820  66.991  1.00  0.00    -0.264 C  
BRANCH   3   4
HETATM    4  N   UNL     1      -8.196  17.384  66.617  1.00  0.00    -0.238 NA 
BRANCH   4   5
HETATM    5  C   UNL     1      -9.292  16.576  67.283  1.00  0.00    -0.222 C  
BRANCH   5   6
HETATM    6  C   UNL     1     -10.132  15.860  66.219  1.00  0.00    -0.301 C  
HETATM    7  H   UNL     1     -10.718  16.109  64.399  1.00  0.00     0.000 HD 
HETATM    8  O   UNL     1     -10.197  16.553  65.058  1.00  0.00    -0.564 OA 
BRANCH   6   9
HETATM    9  N   UNL     1     -10.721  14.737  66.439  1.00  0.00    -0.306 NA 
HETATM   10  H   UNL     1     -11.308  14.650  67.269  1.00  0.00     0.000 HD 
BRANCH   9  11
HETATM   11  C   UNL     1     -10.592  13.618  65.580  1.00  0.00    -0.293 A  
HETATM   12  C   UNL     1      -9.752  12.506  65.841  1.00  0.00    -0.226 A  
HETATM   13  C   UNL     1      -9.771  11.392  64.982  1.00  0.00    -0.286 A  
HETATM   14  C   UNL     1      -8.782  12.427  66.983  1.00  0.00    -0.207 C  
HETATM   15  C   UNL     1     -10.647  11.326  63.910  1.00  0.00    -0.455 A  
HETATM   16  C   UNL     1     -11.498  12.394  63.657  1.00  0.00    -0.568 A  
HETATM   17  C   UNL     1     -11.472  13.542  64.472  1.00  0.00    -0.407 A  
HETATM   18  C   UNL     1     -12.409  14.672  64.128  1.00  0.00    -0.294 C  
ENDBRANCH   9  11
ENDBRANCH   6   9
ENDBRANCH   5   6
BRANCH   5  19
HETATM   19  C   UNL     1     -10.282  17.389  68.163  1.00  0.00    -0.350 C  
HETATM   20  C   UNL     1     -10.518  16.841  69.572  1.00  0.00    -0.263 C  
ENDBRANCH   5  19
ENDBRANCH   4   5
BRANCH   4  21
HETATM   21  C   UNL     1      -6.849  16.831  66.922  1.00  0.00    -0.220 C  
HETATM   22  C   UNL     1      -6.759  15.685  67.930  1.00  0.00    -0.167 C  
ENDBRANCH   4  21
ENDBRANCH   3   4
ENDBRANCH   2   3
TORSDOF 8
ENDMDL
MODEL      162
REMARK 921   NORMALIZED FREE ENERGY PREDICTED BY IDOCK:   -3.91 KCAL/MOL
REMARK 922        TOTAL FREE ENERGY PREDICTED BY IDOCK:   -6.72 KCAL/MOL
REMARK 923 INTER-LIGAND FREE ENERGY PREDICTED BY IDOCK:   -5.81 KCAL/MOL
REMARK 924 INTRA-LIGAND FREE ENERGY PREDICTED BY IDOCK:   -0.90 KCAL/MOL
REMARK 927      BINDING AFFINITY PREDICTED BY RF-SCORE:    0.00 PKD
ROOT
HETATM    1  C   UNL     1     -11.358   4.180  73.430  1.00  0.00    -0.294 C  
HETATM    2  C   UNL     1     -10.417   5.357  73.647  1.00  0.00    -0.291 C  
ENDROOT
BRANCH   2   3
HETATM    3  C   UNL     1     -11.035   6.706  73.224  1.00  0.00    -0.207 C  
BRANCH   3   4
HETATM    4  N   UNL     1     -10.136   7.672  72.542  1.00  0.00    -0.210 NA 
BRANCH   4   5
HETATM    5  C   UNL     1     -10.514   7.859  71.087  1.00  0.00    -0.204 C  
BRANCH   5   6
HETATM    6  C   UNL     1     -11.197   9.218  70.895  1.00  0.00    -0.306 C  
HETATM    7  H   UNL     1     -12.953  10.006  70.998  1.00  0.00     0.000 HD 
HETATM    8  O   UNL     1     -12.530   9.164  71.117  1.00  0.00    -0.305 OA 
BRANCH   6   9
HETATM    9  N   UNL     1     -10.553  10.274  70.537  1.00  0.00    -0.421 NA 
HETATM   10  H   UNL     1      -9.892  10.688  71.195  1.00  0.00     0.000 HD 
BRANCH   9  11
HETATM   11  C   UNL     1     -10.721  10.886  69.271  1.00  0.00    -0.231 A  
HETATM   12  C   UNL     1     -10.208  10.362  68.057  1.00  0.00    -0.199 A  
HETATM   13  C   UNL     1     -10.517  10.985  66.835  1.00  0.00    -0.293 A  
HETATM   14  C   UNL     1      -9.301   9.170  67.967  1.00  0.00    -0.149 C  
HETATM   15  C   UNL     1     -11.373  12.074  66.779  1.00  0.00    -0.398 A  
HETATM   16  C   UNL     1     -11.908  12.583  67.955  1.00  0.00    -0.383 A  
HETATM   17  C   UNL     1     -11.583  12.010  69.199  1.00  0.00    -0.370 A  
HETATM   18  C   UNL     1     -12.184  12.625  70.438  1.00  0.00    -0.368 C  
ENDBRANCH   9  11
ENDBRANCH   6   9
ENDBRANCH   5   6
BRANCH   5  19
HETATM   19  C   UNL     1     -11.477   6.788  70.502  1.00  0.00    -0.413 C  
HETATM   20  C   UNL     1     -11.170   6.329  69.076  1.00  0.00    -0.415 C  
ENDBRANCH   5  19
ENDBRANCH   4   5
BRANCH   4  21
HETATM   21  C   UNL     1      -8.716   7.254  72.688  1.00  0.00    -0.122 C  
HETATM   22  C   UNL     1      -7.806   8.115  73.566  1.00  0.00    -0.235 C  
ENDBRANCH   4  21
ENDBRANCH   3   4
ENDBRANCH   2   3
TORSDOF 8
ENDMDL
MODEL      163
REMARK 921   NORMALIZED FREE ENERGY PREDICTED BY IDOCK:   -3.89 KCAL/MOL
REMARK 922        TOTAL FREE ENERGY PREDICTED BY IDOCK:   -6.68 KCAL/MOL
REMARK 923 INTER-LIGAND FREE ENERGY PREDICTED BY IDOCK:   -6.25 KCAL/MOL
REMARK 924 INTRA-LIGAND FREE ENERGY PREDICTED BY IDOCK:   -0.43 KCAL/MOL
REMARK 927      BINDING AFFINITY PREDICTED BY RF-SCORE:    0.00 PKD
ROOT
HETATM    1  C   UNL     1      -7.808  10.142  65.307  1.00  0.00    -0.143 C  
HETATM    2  C   UNL     1      -8.919  10.187  64.268  1.00  0.00    -0.267 C  
ENDROOT
BRANCH   2   3
HETATM    3  C   UNL     1     -10.286  10.581  64.867  1.00  0.00    -0.300 C  
BRANCH   3   4
HETATM    4  N   UNL     1     -10.527  12.029  65.095  1.00  0.00    -0.278 NA 
BRANCH   4   5
HETATM    5  C   UNL     1     -11.412  12.267  66.301  1.00  0.00    -0.380 C  
BRANCH   5   6
HETATM    6  C   UNL     1     -11.235  13.705  66.802  1.00  0.00    -0.314 C  
HETATM    7  H   UNL     1     -12.293  15.153  67.511  1.00  0.00     0.000 HD 
HETATM    8  O   UNL     1     -12.403  14.261  67.201  1.00  0.00    -0.360 OA 
BRANCH   6   9
HETATM    9  N   UNL     1     -10.096  14.303  66.808  1.00  0.00    -0.259 NA 
HETATM   10  H   UNL     1      -9.249  13.739  66.734  1.00  0.00     0.000 HD 
BRANCH   9  11
HETATM   11  C   UNL     1      -9.964  15.710  66.912  1.00  0.00    -0.248 A  
HETATM   12  C   UNL     1     -10.426  16.628  65.935  1.00  0.00    -0.324 A  
HETATM   13  C   UNL     1     -10.346  18.012  66.176  1.00  0.00    -0.368 A  
HETATM   14  C   UNL     1     -10.983  16.234  64.599  1.00  0.00    -0.212 C  
HETATM   15  C   UNL     1      -9.883  18.505  67.386  1.00  0.00    -0.330 A  
HETATM   16  C   UNL     1      -9.454  17.620  68.366  1.00  0.00    -0.298 A  
HETATM   17  C   UNL     1      -9.479  16.231  68.138  1.00  0.00    -0.215 A  
HETATM   18  C   UNL     1      -8.981  15.327  69.238  1.00  0.00    -0.241 C  
ENDBRANCH   9  11
ENDBRANCH   6   9
ENDBRANCH   5   6
BRANCH   5  19
HETATM   19  C   UNL     1     -11.151  11.335  67.517  1.00  0.00    -0.346 C  
HETATM   20  C   UNL     1     -11.212  12.005  68.891  1.00  0.00    -0.315 C  
ENDBRANCH   5  19
ENDBRANCH   4   5
BRANCH   4  21
HETATM   21  C   UNL     1     -11.091  12.661  63.871  1.00  0.00    -0.427 C  
HETATM   22  C   UNL     1     -12.439  12.151  63.361  1.00  0.00    -0.625 C  
ENDBRANCH   4  21
ENDBRANCH   3   4
ENDBRANCH   2   3
TORSDOF 8
ENDMDL
MODEL      164
REMARK 921   NORMALIZED FREE ENERGY PREDICTED BY IDOCK:   -3.89 KCAL/MOL
REMARK 922        TOTAL FREE ENERGY PREDICTED BY IDOCK:   -6.68 KCAL/MOL
REMARK 923 INTER-LIGAND FREE ENERGY PREDICTED BY IDOCK:   -5.32 KCAL/MOL
REMARK 924 INTRA-LIGAND FREE ENERGY PREDICTED BY IDOCK:   -1.36 KCAL/MOL
REMARK 927      BINDING AFFINITY PREDICTED BY RF-SCORE:    0.00 PKD
ROOT
HETATM    1  C   UNL     1     -12.565  11.899  63.362  1.00  0.00    -0.555 C  
HETATM    2  C   UNL     1     -11.931  13.158  63.937  1.00  0.00    -0.550 C  
ENDROOT
BRANCH   2   3
HETATM    3  C   UNL     1     -11.672  13.061  65.455  1.00  0.00    -0.364 C  
BRANCH   3   4
HETATM    4  N   UNL     1     -10.306  12.659  65.879  1.00  0.00    -0.271 NA 
BRANCH   4   5
HETATM    5  C   UNL     1     -10.343  11.554  66.916  1.00  0.00    -0.223 C  
BRANCH   5   6
HETATM    6  C   UNL     1      -9.767  10.263  66.322  1.00  0.00    -0.209 C  
HETATM    7  H   UNL     1      -9.852   9.229  64.698  1.00  0.00     0.000 HD 
HETATM    8  O   UNL     1     -10.209  10.029  65.065  1.00  0.00    -0.280 OA 
BRANCH   6   9
HETATM    9  N   UNL     1      -8.972   9.492  66.978  1.00  0.00    -0.133 NA 
HETATM   10  H   UNL     1      -8.116   9.175  66.524  1.00  0.00     0.000 HD 
BRANCH   9  11
HETATM   11  C   UNL     1      -9.234   9.063  68.303  1.00  0.00    -0.136 A  
HETATM   12  C   UNL     1      -8.703   9.683  69.462  1.00  0.00    -0.191 A  
HETATM   13  C   UNL     1      -9.105   9.252  70.739  1.00  0.00    -0.306 A  
HETATM   14  C   UNL     1      -7.681  10.782  69.441  1.00  0.00    -0.107 C  
HETATM   15  C   UNL     1     -10.068   8.268  70.895  1.00  0.00    -0.224 A  
HETATM   16  C   UNL     1     -10.622   7.670  69.771  1.00  0.00    -0.245 A  
HETATM   17  C   UNL     1     -10.208   8.047  68.479  1.00  0.00    -0.231 A  
HETATM   18  C   UNL     1     -10.836   7.343  67.303  1.00  0.00    -0.326 C  
ENDBRANCH   9  11
ENDBRANCH   6   9
ENDBRANCH   5   6
BRANCH   5  19
HETATM   19  C   UNL     1     -11.751  11.203  67.470  1.00  0.00    -0.102 C  
HETATM   20  C   UNL     1     -11.934  11.385  68.978  1.00  0.00    -0.387 C  
ENDBRANCH   5  19
ENDBRANCH   4   5
BRANCH   4  21
HETATM   21  C   UNL     1      -9.543  13.840  66.367  1.00  0.00    -0.272 C  
HETATM   22  C   UNL     1      -9.354  13.993  67.877  1.00  0.00    -0.206 C  
ENDBRANCH   4  21
ENDBRANCH   3   4
ENDBRANCH   2   3
TORSDOF 8
ENDMDL
MODEL      165
REMARK 921   NORMALIZED FREE ENERGY PREDICTED BY IDOCK:   -3.88 KCAL/MOL
REMARK 922        TOTAL FREE ENERGY PREDICTED BY IDOCK:   -6.67 KCAL/MOL
REMARK 923 INTER-LIGAND FREE ENERGY PREDICTED BY IDOCK:   -5.54 KCAL/MOL
REMARK 924 INTRA-LIGAND FREE ENERGY PREDICTED BY IDOCK:   -1.13 KCAL/MOL
REMARK 927      BINDING AFFINITY PREDICTED BY RF-SCORE:    0.00 PKD
ROOT
HETATM    1  C   UNL     1     -12.449  12.655  64.805  1.00  0.00    -0.555 C  
HETATM    2  C   UNL     1     -11.061  12.133  64.460  1.00  0.00    -0.375 C  
ENDROOT
BRANCH   2   3
HETATM    3  C   UNL     1     -10.369  11.434  65.649  1.00  0.00    -0.257 C  
BRANCH   3   4
HETATM    4  N   UNL     1     -10.720  11.918  67.009  1.00  0.00    -0.230 NA 
BRANCH   4   5
HETATM    5  C   UNL     1      -9.534  12.563  67.698  1.00  0.00    -0.188 C  
BRANCH   5   6
HETATM    6  C   UNL     1      -9.726  14.083  67.753  1.00  0.00    -0.228 C  
HETATM    7  H   UNL     1     -10.697  15.403  68.769  1.00  0.00     0.000 HD 
HETATM    8  O   UNL     1     -10.578  14.461  68.735  1.00  0.00    -0.242 OA 
BRANCH   6   9
HETATM    9  N   UNL     1      -9.150  14.886  66.930  1.00  0.00    -0.235 NA 
HETATM   10  H   UNL     1      -8.521  14.496  66.228  1.00  0.00     0.000 HD 
BRANCH   9  11
HETATM   11  C   UNL     1      -9.349  16.289  66.954  1.00  0.00    -0.224 A  
HETATM   12  C   UNL     1      -8.620  17.183  67.777  1.00  0.00    -0.216 A  
HETATM   13  C   UNL     1      -8.815  18.571  67.655  1.00  0.00    -0.284 A  
HETATM   14  C   UNL     1      -7.643  16.757  68.834  1.00  0.00    -0.239 C  
HETATM   15  C   UNL     1      -9.664  19.095  66.693  1.00  0.00    -0.401 A  
HETATM   16  C   UNL     1     -10.364  18.235  65.858  1.00  0.00    -0.297 A  
HETATM   17  C   UNL     1     -10.225  16.840  65.985  1.00  0.00    -0.361 A  
HETATM   18  C   UNL     1     -11.030  15.963  65.059  1.00  0.00    -0.426 C  
ENDBRANCH   9  11
ENDBRANCH   6   9
ENDBRANCH   5   6
BRANCH   5  19
HETATM   19  C   UNL     1      -8.153  12.310  67.030  1.00  0.00    -0.141 C  
HETATM   20  C   UNL     1      -7.067  11.746  67.947  1.00  0.00    -0.087 C  
ENDBRANCH   5  19
ENDBRANCH   4   5
BRANCH   4  21
HETATM   21  C   UNL     1     -11.289  10.811  67.825  1.00  0.00    -0.279 C  
HETATM   22  C   UNL     1     -10.732  10.604  69.234  1.00  0.00    -0.275 C  
ENDBRANCH   4  21
ENDBRANCH   3   4
ENDBRANCH   2   3
TORSDOF 8
ENDMDL
MODEL      166
REMARK 921   NORMALIZED FREE ENERGY PREDICTED BY IDOCK:   -3.87 KCAL/MOL
REMARK 922        TOTAL FREE ENERGY PREDICTED BY IDOCK:   -6.65 KCAL/MOL
REMARK 923 INTER-LIGAND FREE ENERGY PREDICTED BY IDOCK:   -6.15 KCAL/MOL
REMARK 924 INTRA-LIGAND FREE ENERGY PREDICTED BY IDOCK:   -0.50 KCAL/MOL
REMARK 927      BINDING AFFINITY PREDICTED BY RF-SCORE:    0.00 PKD
ROOT
HETATM    1  C   UNL     1     -10.355  17.640  66.831  1.00  0.00    -0.329 C  
HETATM    2  C   UNL     1      -9.437  16.623  66.168  1.00  0.00    -0.319 C  
ENDROOT
BRANCH   2   3
HETATM    3  C   UNL     1     -10.076  15.224  66.048  1.00  0.00    -0.318 C  
BRANCH   3   4
HETATM    4  N   UNL     1     -11.291  14.968  66.865  1.00  0.00    -0.331 NA 
BRANCH   4   5
HETATM    5  C   UNL     1     -10.955  14.259  68.162  1.00  0.00    -0.246 C  
BRANCH   5   6
HETATM    6  C   UNL     1     -10.358  12.879  67.862  1.00  0.00    -0.231 C  
HETATM    7  H   UNL     1      -8.659  11.971  67.920  1.00  0.00     0.000 HD 
HETATM    8  O   UNL     1      -9.028  12.827  68.106  1.00  0.00    -0.192 OA 
BRANCH   6   9
HETATM    9  N   UNL     1     -11.062  11.903  67.406  1.00  0.00    -0.261 NA 
HETATM   10  H   UNL     1     -12.011  12.094  67.088  1.00  0.00     0.000 HD 
BRANCH   9  11
HETATM   11  C   UNL     1     -10.575  10.574  67.326  1.00  0.00    -0.264 A  
HETATM   12  C   UNL     1     -10.670   9.626  68.376  1.00  0.00    -0.251 A  
HETATM   13  C   UNL     1     -10.254   8.299  68.167  1.00  0.00    -0.255 A  
HETATM   14  C   UNL     1     -11.164   9.940  69.758  1.00  0.00    -0.279 C  
HETATM   15  C   UNL     1      -9.810   7.873  66.925  1.00  0.00    -0.309 A  
HETATM   16  C   UNL     1      -9.739   8.781  65.876  1.00  0.00    -0.211 A  
HETATM   17  C   UNL     1     -10.105  10.127  66.066  1.00  0.00    -0.317 A  
HETATM   18  C   UNL     1      -9.985  11.063  64.890  1.00  0.00    -0.343 C  
ENDBRANCH   9  11
ENDBRANCH   6   9
ENDBRANCH   5   6
BRANCH   5  19
HETATM   19  C   UNL     1     -12.151  14.030  69.128  1.00  0.00    -0.375 C  
HETATM   20  C   UNL     1     -12.369  15.117  70.182  1.00  0.00    -0.385 C  
ENDBRANCH   5  19
ENDBRANCH   4   5
BRANCH   4  21
HETATM   21  C   UNL     1     -12.300  14.213  66.075  1.00  0.00    -0.445 C  
HETATM   22  C   UNL     1     -12.137  14.180  64.555  1.00  0.00    -0.489 C  
ENDBRANCH   4  21
ENDBRANCH   3   4
ENDBRANCH   2   3
TORSDOF 8
ENDMDL
MODEL      167
REMARK 921   NORMALIZED FREE ENERGY PREDICTED BY IDOCK:   -3.85 KCAL/MOL
REMARK 922        TOTAL FREE ENERGY PREDICTED BY IDOCK:   -6.63 KCAL/MOL
REMARK 923 INTER-LIGAND FREE ENERGY PREDICTED BY IDOCK:   -6.35 KCAL/MOL
REMARK 924 INTRA-LIGAND FREE ENERGY PREDICTED BY IDOCK:   -0.28 KCAL/MOL
REMARK 927      BINDING AFFINITY PREDICTED BY RF-SCORE:    0.00 PKD
ROOT
HETATM    1  C   UNL     1      -9.554  19.954  67.354  1.00  0.00    -0.499 C  
HETATM    2  C   UNL     1     -10.065  18.877  68.300  1.00  0.00    -0.446 C  
ENDROOT
BRANCH   2   3
HETATM    3  C   UNL     1     -10.821  17.747  67.571  1.00  0.00    -0.211 C  
BRANCH   3   4
HETATM    4  N   UNL     1     -10.719  16.385  68.156  1.00  0.00    -0.323 NA 
BRANCH   4   5
HETATM    5  C   UNL     1     -10.945  15.309  67.113  1.00  0.00    -0.331 C  
BRANCH   5   6
HETATM    6  C   UNL     1     -10.724  13.925  67.735  1.00  0.00    -0.246 C  
HETATM    7  H   UNL     1      -9.309  12.879  68.524  1.00  0.00     0.000 HD 
HETATM    8  O   UNL     1      -9.446  13.736  68.138  1.00  0.00    -0.201 OA 
BRANCH   6   9
HETATM    9  N   UNL     1     -11.662  13.048  67.829  1.00  0.00    -0.346 NA 
HETATM   10  H   UNL     1     -12.584  13.281  67.464  1.00  0.00     0.000 HD 
BRANCH   9  11
HETATM   11  C   UNL     1     -11.469  11.773  68.417  1.00  0.00    -0.294 A  
HETATM   12  C   UNL     1     -10.801  10.696  67.783  1.00  0.00    -0.338 A  
HETATM   13  C   UNL     1     -10.564   9.502  68.487  1.00  0.00    -0.247 A  
HETATM   14  C   UNL     1     -10.336  10.710  66.356  1.00  0.00    -0.291 C  
HETATM   15  C   UNL     1     -10.913   9.373  69.822  1.00  0.00    -0.234 A  
HETATM   16  C   UNL     1     -11.542  10.429  70.468  1.00  0.00    -0.433 A  
HETATM   17  C   UNL     1     -11.833  11.622  69.779  1.00  0.00    -0.428 A  
HETATM   18  C   UNL     1     -12.535  12.721  70.536  1.00  0.00    -0.280 C  
ENDBRANCH   9  11
ENDBRANCH   6   9
ENDBRANCH   5   6
BRANCH   5  19
HETATM   19  C   UNL     1     -10.028  15.388  65.861  1.00  0.00    -0.374 C  
HETATM   20  C   UNL     1      -8.743  16.201  66.030  1.00  0.00    -0.282 C  
ENDBRANCH   5  19
ENDBRANCH   4   5
BRANCH   4  21
HETATM   21  C   UNL     1     -11.656  16.239  69.302  1.00  0.00    -0.196 C  
HETATM   22  C   UNL     1     -11.055  16.056  70.697  1.00  0.00    -0.352 C  
ENDBRANCH   4  21
ENDBRANCH   3   4
ENDBRANCH   2   3
TORSDOF 8
ENDMDL
MODEL      168
REMARK 921   NORMALIZED FREE ENERGY PREDICTED BY IDOCK:   -3.85 KCAL/MOL
REMARK 922        TOTAL FREE ENERGY PREDICTED BY IDOCK:   -6.62 KCAL/MOL
REMARK 923 INTER-LIGAND FREE ENERGY PREDICTED BY IDOCK:   -5.51 KCAL/MOL
REMARK 924 INTRA-LIGAND FREE ENERGY PREDICTED BY IDOCK:   -1.11 KCAL/MOL
REMARK 927      BINDING AFFINITY PREDICTED BY RF-SCORE:    0.00 PKD
ROOT
HETATM    1  C   UNL     1      -9.598   4.621  65.491  1.00  0.00    -0.187 C  
HETATM    2  C   UNL     1     -10.459   4.956  66.701  1.00  0.00    -0.270 C  
ENDROOT
BRANCH   2   3
HETATM    3  C   UNL     1     -10.792   6.460  66.802  1.00  0.00    -0.291 C  
BRANCH   3   4
HETATM    4  N   UNL     1     -10.908   7.032  68.169  1.00  0.00    -0.184 NA 
BRANCH   4   5
HETATM    5  C   UNL     1      -9.707   7.886  68.523  1.00  0.00    -0.161 C  
BRANCH   5   6
HETATM    6  C   UNL     1     -10.174   9.244  69.060  1.00  0.00    -0.206 C  
HETATM    7  H   UNL     1      -9.620  10.593  70.321  1.00  0.00     0.000 HD 
HETATM    8  O   UNL     1      -9.331   9.751  69.989  1.00  0.00    -0.225 OA 
BRANCH   6   9
HETATM    9  N   UNL     1     -11.265   9.806  68.672  1.00  0.00    -0.482 NA 
HETATM   10  H   UNL     1     -12.091   9.224  68.535  1.00  0.00     0.000 HD 
BRANCH   9  11
HETATM   11  C   UNL     1     -11.370  11.198  68.427  1.00  0.00    -0.288 A  
HETATM   12  C   UNL     1     -11.058  11.815  67.190  1.00  0.00    -0.350 A  
HETATM   13  C   UNL     1     -11.295  13.190  67.009  1.00  0.00    -0.349 A  
HETATM   14  C   UNL     1     -10.441  11.105  66.021  1.00  0.00    -0.312 C  
HETATM   15  C   UNL     1     -11.894  13.952  68.000  1.00  0.00    -0.411 A  
HETATM   16  C   UNL     1     -12.233  13.358  69.209  1.00  0.00    -0.222 A  
HETATM   17  C   UNL     1     -11.967  11.994  69.437  1.00  0.00    -0.334 A  
HETATM   18  C   UNL     1     -12.343  11.417  70.778  1.00  0.00    -0.483 C  
ENDBRANCH   9  11
ENDBRANCH   6   9
ENDBRANCH   5   6
BRANCH   5  19
HETATM   19  C   UNL     1      -8.726   8.179  67.355  1.00  0.00    -0.124 C  
HETATM   20  C   UNL     1      -7.354   7.511  67.459  1.00  0.00    -0.102 C  
ENDBRANCH   5  19
ENDBRANCH   4   5
BRANCH   4  21
HETATM   21  C   UNL     1     -11.123   5.951  69.169  1.00  0.00    -0.258 C  
HETATM   22  C   UNL     1     -10.081   5.785  70.276  1.00  0.00    -0.273 C  
ENDBRANCH   4  21
ENDBRANCH   3   4
ENDBRANCH   2   3
TORSDOF 8
ENDMDL
MODEL      169
REMARK 921   NORMALIZED FREE ENERGY PREDICTED BY IDOCK:   -3.85 KCAL/MOL
REMARK 922        TOTAL FREE ENERGY PREDICTED BY IDOCK:   -6.62 KCAL/MOL
REMARK 923 INTER-LIGAND FREE ENERGY PREDICTED BY IDOCK:   -5.78 KCAL/MOL
REMARK 924 INTRA-LIGAND FREE ENERGY PREDICTED BY IDOCK:   -0.84 KCAL/MOL
REMARK 927      BINDING AFFINITY PREDICTED BY RF-SCORE:    0.00 PKD
ROOT
HETATM    1  C   UNL     1     -12.724  14.155  65.248  1.00  0.00    -0.425 C  
HETATM    2  C   UNL     1     -11.976  13.782  66.520  1.00  0.00    -0.470 C  
ENDROOT
BRANCH   2   3
HETATM    3  C   UNL     1     -11.903  12.257  66.748  1.00  0.00    -0.277 C  
BRANCH   3   4
HETATM    4  N   UNL     1     -10.625  11.718  67.281  1.00  0.00    -0.217 NA 
BRANCH   4   5
HETATM    5  C   UNL     1     -10.746  11.327  68.740  1.00  0.00    -0.203 C  
BRANCH   5   6
HETATM    6  C   UNL     1     -10.453   9.832  68.905  1.00  0.00    -0.214 C  
HETATM    7  H   UNL     1      -9.330   8.662  69.948  1.00  0.00     0.000 HD 
HETATM    8  O   UNL     1      -9.511   9.589  69.845  1.00  0.00    -0.190 OA 
BRANCH   6   9
HETATM    9  N   UNL     1     -11.035   8.928  68.197  1.00  0.00    -0.473 NA 
HETATM   10  H   UNL     1     -11.962   9.126  67.821  1.00  0.00     0.000 HD 
BRANCH   9  11
HETATM   11  C   UNL     1     -10.445   7.670  67.916  1.00  0.00    -0.207 A  
HETATM   12  C   UNL     1     -10.675   6.495  68.675  1.00  0.00    -0.323 A  
HETATM   13  C   UNL     1     -10.128   5.269  68.256  1.00  0.00    -0.219 A  
HETATM   14  C   UNL     1     -11.455   6.453  69.956  1.00  0.00    -0.496 C  
HETATM   15  C   UNL     1      -9.417   5.166  67.071  1.00  0.00    -0.143 A  
HETATM   16  C   UNL     1      -9.207   6.302  66.300  1.00  0.00    -0.165 A  
HETATM   17  C   UNL     1      -9.703   7.552  66.714  1.00  0.00    -0.283 A  
HETATM   18  C   UNL     1      -9.422   8.748  65.839  1.00  0.00    -0.278 C  
ENDBRANCH   9  11
ENDBRANCH   6   9
ENDBRANCH   5   6
BRANCH   5  19
HETATM   19  C   UNL     1     -12.134  11.586  69.390  1.00  0.00    -0.345 C  
HETATM   20  C   UNL     1     -12.276  11.142  70.847  1.00  0.00    -0.468 C  
ENDBRANCH   5  19
ENDBRANCH   4   5
BRANCH   4  21
HETATM   21  C   UNL     1      -9.520  12.691  67.066  1.00  0.00    -0.220 C  
HETATM   22  C   UNL     1      -8.610  13.011  68.253  1.00  0.00    -0.167 C  
ENDBRANCH   4  21
ENDBRANCH   3   4
ENDBRANCH   2   3
TORSDOF 8
ENDMDL
MODEL      170
REMARK 921   NORMALIZED FREE ENERGY PREDICTED BY IDOCK:   -3.84 KCAL/MOL
REMARK 922        TOTAL FREE ENERGY PREDICTED BY IDOCK:   -6.61 KCAL/MOL
REMARK 923 INTER-LIGAND FREE ENERGY PREDICTED BY IDOCK:   -5.87 KCAL/MOL
REMARK 924 INTRA-LIGAND FREE ENERGY PREDICTED BY IDOCK:   -0.74 KCAL/MOL
REMARK 927      BINDING AFFINITY PREDICTED BY RF-SCORE:    0.00 PKD
ROOT
HETATM    1  C   UNL     1      -8.714   8.346  65.689  1.00  0.00    -0.204 C  
HETATM    2  C   UNL     1      -9.915   8.794  66.509  1.00  0.00    -0.360 C  
ENDROOT
BRANCH   2   3
HETATM    3  C   UNL     1      -9.545   9.808  67.612  1.00  0.00    -0.145 C  
BRANCH   3   4
HETATM    4  N   UNL     1     -10.669  10.512  68.282  1.00  0.00    -0.212 NA 
BRANCH   4   5
HETATM    5  C   UNL     1     -10.749  11.966  67.863  1.00  0.00    -0.204 C  
BRANCH   5   6
HETATM    6  C   UNL     1      -9.380  12.440  67.359  1.00  0.00    -0.181 C  
HETATM    7  H   UNL     1      -7.609  12.790  68.034  1.00  0.00     0.000 HD 
HETATM    8  O   UNL     1      -8.456  12.497  68.347  1.00  0.00    -0.168 OA 
BRANCH   6   9
HETATM    9  N   UNL     1      -9.167  12.765  66.133  1.00  0.00    -0.441 NA 
HETATM   10  H   UNL     1      -8.271  12.518  65.712  1.00  0.00     0.000 HD 
BRANCH   9  11
HETATM   11  C   UNL     1     -10.120  13.451  65.340  1.00  0.00    -0.254 A  
HETATM   12  C   UNL     1     -11.084  12.812  64.520  1.00  0.00    -0.365 A  
HETATM   13  C   UNL     1     -12.058  13.575  63.852  1.00  0.00    -0.493 A  
HETATM   14  C   UNL     1     -11.133  11.333  64.267  1.00  0.00    -0.293 C  
HETATM   15  C   UNL     1     -12.142  14.947  64.030  1.00  0.00    -0.153 A  
HETATM   16  C   UNL     1     -11.225  15.587  64.853  1.00  0.00    -0.396 A  
HETATM   17  C   UNL     1     -10.210  14.857  65.500  1.00  0.00    -0.401 A  
HETATM   18  C   UNL     1      -9.236  15.618  66.364  1.00  0.00    -0.346 C  
ENDBRANCH   9  11
ENDBRANCH   6   9
ENDBRANCH   5   6
BRANCH   5  19
HETATM   19  C   UNL     1     -11.185  12.961  68.975  1.00  0.00    -0.320 C  
HETATM   20  C   UNL     1     -12.013  14.158  68.505  1.00  0.00    -0.367 C  
ENDBRANCH   5  19
ENDBRANCH   4   5
BRANCH   4  21
HETATM   21  C   UNL     1     -10.562  10.375  69.760  1.00  0.00    -0.258 C  
HETATM   22  C   UNL     1     -11.631   9.551  70.479  1.00  0.00    -0.316 C  
ENDBRANCH   4  21
ENDBRANCH   3   4
ENDBRANCH   2   3
TORSDOF 8
ENDMDL
MODEL      171
REMARK 921   NORMALIZED FREE ENERGY PREDICTED BY IDOCK:   -3.84 KCAL/MOL
REMARK 922        TOTAL FREE ENERGY PREDICTED BY IDOCK:   -6.61 KCAL/MOL
REMARK 923 INTER-LIGAND FREE ENERGY PREDICTED BY IDOCK:   -5.76 KCAL/MOL
REMARK 924 INTRA-LIGAND FREE ENERGY PREDICTED BY IDOCK:   -0.85 KCAL/MOL
REMARK 927      BINDING AFFINITY PREDICTED BY RF-SCORE:    0.00 PKD
ROOT
HETATM    1  C   UNL     1     -12.276  14.893  64.252  1.00  0.00    -0.365 C  
HETATM    2  C   UNL     1     -11.168  15.903  64.515  1.00  0.00    -0.324 C  
ENDROOT
BRANCH   2   3
HETATM    3  C   UNL     1     -10.732  15.945  65.994  1.00  0.00    -0.284 C  
BRANCH   3   4
HETATM    4  N   UNL     1      -9.354  15.485  66.302  1.00  0.00    -0.294 NA 
BRANCH   4   5
HETATM    5  C   UNL     1      -9.347  14.090  66.894  1.00  0.00    -0.257 C  
BRANCH   5   6
HETATM    6  C   UNL     1     -10.730  13.762  67.471  1.00  0.00    -0.256 C  
HETATM    7  H   UNL     1     -11.884  14.305  68.916  1.00  0.00     0.000 HD 
HETATM    8  O   UNL     1     -11.027  14.508  68.559  1.00  0.00    -0.234 OA 
BRANCH   6   9
HETATM    9  N   UNL     1     -11.493  12.854  66.970  1.00  0.00    -0.319 NA 
HETATM   10  H   UNL     1     -12.430  13.119  66.667  1.00  0.00     0.000 HD 
BRANCH   9  11
HETATM   11  C   UNL     1     -11.089  11.504  66.821  1.00  0.00    -0.302 A  
HETATM   12  C   UNL     1     -10.444  10.988  65.669  1.00  0.00    -0.293 A  
HETATM   13  C   UNL     1      -9.985   9.658  65.656  1.00  0.00    -0.321 A  
HETATM   14  C   UNL     1     -10.231  11.760  64.401  1.00  0.00    -0.332 C  
HETATM   15  C   UNL     1     -10.090   8.851  66.777  1.00  0.00    -0.350 A  
HETATM   16  C   UNL     1     -10.692   9.349  67.925  1.00  0.00    -0.269 A  
HETATM   17  C   UNL     1     -11.202  10.661  67.955  1.00  0.00    -0.373 A  
HETATM   18  C   UNL     1     -11.862  11.132  69.227  1.00  0.00    -0.422 C  
ENDBRANCH   9  11
ENDBRANCH   6   9
ENDBRANCH   5   6
BRANCH   5  19
HETATM   19  C   UNL     1      -8.319  13.851  68.034  1.00  0.00    -0.166 C  
HETATM   20  C   UNL     1      -7.853  12.405  68.213  1.00  0.00    -0.150 C  
ENDBRANCH   5  19
ENDBRANCH   4   5
BRANCH   4  21
HETATM   21  C   UNL     1      -8.666  16.459  67.192  1.00  0.00    -0.186 C  
HETATM   22  C   UNL     1      -9.501  17.593  67.788  1.00  0.00    -0.260 C  
ENDBRANCH   4  21
ENDBRANCH   3   4
ENDBRANCH   2   3
TORSDOF 8
ENDMDL
MODEL      172
REMARK 921   NORMALIZED FREE ENERGY PREDICTED BY IDOCK:   -3.83 KCAL/MOL
REMARK 922        TOTAL FREE ENERGY PREDICTED BY IDOCK:   -6.59 KCAL/MOL
REMARK 923 INTER-LIGAND FREE ENERGY PREDICTED BY IDOCK:   -6.05 KCAL/MOL
REMARK 924 INTRA-LIGAND FREE ENERGY PREDICTED BY IDOCK:   -0.54 KCAL/MOL
REMARK 927      BINDING AFFINITY PREDICTED BY RF-SCORE:    0.00 PKD
ROOT
HETATM    1  C   UNL     1     -10.427  16.637  65.487  1.00  0.00    -0.285 C  
HETATM    2  C   UNL     1      -9.526  15.817  66.400  1.00  0.00    -0.326 C  
ENDROOT
BRANCH   2   3
HETATM    3  C   UNL     1      -9.378  14.352  65.938  1.00  0.00    -0.065 C  
BRANCH   3   4
HETATM    4  N   UNL     1      -9.532  13.301  66.978  1.00  0.00    -0.235 NA 
BRANCH   4   5
HETATM    5  C   UNL     1     -10.990  13.031  67.290  1.00  0.00    -0.264 C  
BRANCH   5   6
HETATM    6  C   UNL     1     -11.114  11.768  68.150  1.00  0.00    -0.243 C  
HETATM    7  H   UNL     1     -11.727   9.946  68.003  1.00  0.00     0.000 HD 
HETATM    8  O   UNL     1     -11.651  10.729  67.470  1.00  0.00    -0.510 OA 
BRANCH   6   9
HETATM    9  N   UNL     1     -10.762  11.734  69.388  1.00  0.00    -0.448 NA 
HETATM   10  H   UNL     1     -10.527  12.611  69.852  1.00  0.00     0.000 HD 
BRANCH   9  11
HETATM   11  C   UNL     1     -10.686  10.531  70.134  1.00  0.00    -0.171 A  
HETATM   12  C   UNL     1      -9.576   9.650  70.114  1.00  0.00    -0.300 A  
HETATM   13  C   UNL     1      -9.547   8.534  70.970  1.00  0.00    -0.241 A  
HETATM   14  C   UNL     1      -8.398   9.792  69.196  1.00  0.00    -0.137 C  
HETATM   15  C   UNL     1     -10.558   8.309  71.891  1.00  0.00    -0.350 A  
HETATM   16  C   UNL     1     -11.639   9.179  71.945  1.00  0.00    -0.430 A  
HETATM   17  C   UNL     1     -11.720  10.279  71.071  1.00  0.00    -0.461 A  
HETATM   18  C   UNL     1     -12.930  11.173  71.170  1.00  0.00    -0.393 C  
ENDBRANCH   9  11
ENDBRANCH   6   9
ENDBRANCH   5   6
BRANCH   5  19
HETATM   19  C   UNL     1     -11.912  12.824  66.056  1.00  0.00    -0.491 C  
HETATM   20  C   UNL     1     -12.874  13.974  65.748  1.00  0.00    -0.416 C  
ENDBRANCH   5  19
ENDBRANCH   4   5
BRANCH   4  21
HETATM   21  C   UNL     1      -8.770  13.665  68.203  1.00  0.00    -0.177 C  
HETATM   22  C   UNL     1      -7.271  13.361  68.227  1.00  0.00    -0.111 C  
ENDBRANCH   4  21
ENDBRANCH   3   4
ENDBRANCH   2   3
TORSDOF 8
ENDMDL
MODEL      173
REMARK 921   NORMALIZED FREE ENERGY PREDICTED BY IDOCK:   -3.82 KCAL/MOL
REMARK 922        TOTAL FREE ENERGY PREDICTED BY IDOCK:   -6.58 KCAL/MOL
REMARK 923 INTER-LIGAND FREE ENERGY PREDICTED BY IDOCK:   -5.95 KCAL/MOL
REMARK 924 INTRA-LIGAND FREE ENERGY PREDICTED BY IDOCK:   -0.63 KCAL/MOL
REMARK 927      BINDING AFFINITY PREDICTED BY RF-SCORE:    0.00 PKD
ROOT
HETATM    1  C   UNL     1     -11.405   6.265  70.161  1.00  0.00    -0.476 C  
HETATM    2  C   UNL     1     -10.034   6.893  69.960  1.00  0.00    -0.190 C  
ENDROOT
BRANCH   2   3
HETATM    3  C   UNL     1      -9.974   7.825  68.732  1.00  0.00    -0.176 C  
BRANCH   3   4
HETATM    4  N   UNL     1      -9.847   9.281  68.998  1.00  0.00    -0.162 NA 
BRANCH   4   5
HETATM    5  C   UNL     1     -11.186   9.911  69.324  1.00  0.00    -0.130 C  
BRANCH   5   6
HETATM    6  C   UNL     1     -11.226  11.351  68.799  1.00  0.00    -0.247 C  
HETATM    7  H   UNL     1     -12.048  12.377  67.388  1.00  0.00     0.000 HD 
HETATM    8  O   UNL     1     -12.023  11.484  67.713  1.00  0.00    -0.623 OA 
BRANCH   6   9
HETATM    9  N   UNL     1     -10.548  12.304  69.335  1.00  0.00    -0.425 NA 
HETATM   10  H   UNL     1      -9.884  12.074  70.074  1.00  0.00     0.000 HD 
BRANCH   9  11
HETATM   11  C   UNL     1     -10.681  13.660  68.943  1.00  0.00    -0.212 A  
HETATM   12  C   UNL     1      -9.997  14.244  67.847  1.00  0.00    -0.230 A  
HETATM   13  C   UNL     1     -10.275  15.570  67.469  1.00  0.00    -0.254 A  
HETATM   14  C   UNL     1      -8.936  13.550  67.045  1.00  0.00    -0.237 C  
HETATM   15  C   UNL     1     -11.259  16.308  68.108  1.00  0.00    -0.298 A  
HETATM   16  C   UNL     1     -11.960  15.742  69.165  1.00  0.00    -0.312 A  
HETATM   17  C   UNL     1     -11.674  14.433  69.596  1.00  0.00    -0.362 A  
HETATM   18  C   UNL     1     -12.459  13.887  70.763  1.00  0.00    -0.445 C  
ENDBRANCH   9  11
ENDBRANCH   6   9
ENDBRANCH   5   6
BRANCH   5  19
HETATM   19  C   UNL     1     -11.546   9.975  70.834  1.00  0.00    -0.463 C  
HETATM   20  C   UNL     1     -13.035  10.118  71.154  1.00  0.00    -0.488 C  
ENDBRANCH   5  19
ENDBRANCH   4   5
BRANCH   4  21
HETATM   21  C   UNL     1      -9.186   9.964  67.852  1.00  0.00    -0.130 C  
HETATM   22  C   UNL     1      -7.672  10.163  67.917  1.00  0.00    -0.089 C  
ENDBRANCH   4  21
ENDBRANCH   3   4
ENDBRANCH   2   3
TORSDOF 8
ENDMDL
MODEL      174
REMARK 921   NORMALIZED FREE ENERGY PREDICTED BY IDOCK:   -3.82 KCAL/MOL
REMARK 922        TOTAL FREE ENERGY PREDICTED BY IDOCK:   -6.57 KCAL/MOL
REMARK 923 INTER-LIGAND FREE ENERGY PREDICTED BY IDOCK:   -6.04 KCAL/MOL
REMARK 924 INTRA-LIGAND FREE ENERGY PREDICTED BY IDOCK:   -0.53 KCAL/MOL
REMARK 927      BINDING AFFINITY PREDICTED BY RF-SCORE:    0.00 PKD
ROOT
HETATM    1  C   UNL     1     -12.600  11.888  63.428  1.00  0.00    -0.555 C  
HETATM    2  C   UNL     1     -11.347  12.688  63.751  1.00  0.00    -0.529 C  
ENDROOT
BRANCH   2   3
HETATM    3  C   UNL     1     -10.309  11.879  64.557  1.00  0.00    -0.292 C  
BRANCH   3   4
HETATM    4  N   UNL     1     -10.637  11.591  65.977  1.00  0.00    -0.255 NA 
BRANCH   4   5
HETATM    5  C   UNL     1     -10.642  12.852  66.818  1.00  0.00    -0.257 C  
BRANCH   5   6
HETATM    6  C   UNL     1      -9.244  13.482  66.821  1.00  0.00    -0.240 C  
HETATM    7  H   UNL     1      -7.462  13.100  67.448  1.00  0.00     0.000 HD 
HETATM    8  O   UNL     1      -8.328  12.709  67.447  1.00  0.00    -0.165 OA 
BRANCH   6   9
HETATM    9  N   UNL     1      -9.002  14.634  66.300  1.00  0.00    -0.491 NA 
HETATM   10  H   UNL     1      -8.437  14.676  65.452  1.00  0.00     0.000 HD 
BRANCH   9  11
HETATM   11  C   UNL     1      -9.485  15.847  66.852  1.00  0.00    -0.227 A  
HETATM   12  C   UNL     1      -8.994  16.429  68.048  1.00  0.00    -0.185 A  
HETATM   13  C   UNL     1      -9.462  17.689  68.461  1.00  0.00    -0.298 A  
HETATM   14  C   UNL     1      -8.003  15.774  68.964  1.00  0.00    -0.214 C  
HETATM   15  C   UNL     1     -10.353  18.415  67.686  1.00  0.00    -0.427 A  
HETATM   16  C   UNL     1     -10.822  17.873  66.496  1.00  0.00     0.026 A  
HETATM   17  C   UNL     1     -10.407  16.594  66.078  1.00  0.00    -0.352 A  
HETATM   18  C   UNL     1     -10.971  16.058  64.785  1.00  0.00    -0.373 C  
ENDBRANCH   9  11
ENDBRANCH   6   9
ENDBRANCH   5   6
BRANCH   5  19
HETATM   19  C   UNL     1     -11.050  12.662  68.306  1.00  0.00    -0.295 C  
HETATM   20  C   UNL     1     -11.699  13.876  68.974  1.00  0.00    -0.378 C  
ENDBRANCH   5  19
ENDBRANCH   4   5
BRANCH   4  21
HETATM   21  C   UNL     1      -9.706  10.570  66.530  1.00  0.00    -0.192 C  
HETATM   22  C   UNL     1      -9.809   9.144  65.988  1.00  0.00    -0.342 C  
ENDBRANCH   4  21
ENDBRANCH   3   4
ENDBRANCH   2   3
TORSDOF 8
ENDMDL
MODEL      175
REMARK 921   NORMALIZED FREE ENERGY PREDICTED BY IDOCK:   -3.81 KCAL/MOL
REMARK 922        TOTAL FREE ENERGY PREDICTED BY IDOCK:   -6.57 KCAL/MOL
REMARK 923 INTER-LIGAND FREE ENERGY PREDICTED BY IDOCK:   -6.14 KCAL/MOL
REMARK 924 INTRA-LIGAND FREE ENERGY PREDICTED BY IDOCK:   -0.43 KCAL/MOL
REMARK 927      BINDING AFFINITY PREDICTED BY RF-SCORE:    0.00 PKD
ROOT
HETATM    1  C   UNL     1     -10.435  17.624  67.225  1.00  0.00    -0.338 C  
HETATM    2  C   UNL     1      -9.521  16.727  66.404  1.00  0.00    -0.307 C  
ENDROOT
BRANCH   2   3
HETATM    3  C   UNL     1     -10.048  15.281  66.284  1.00  0.00    -0.281 C  
BRANCH   3   4
HETATM    4  N   UNL     1     -11.243  14.932  67.095  1.00  0.00    -0.336 NA 
BRANCH   4   5
HETATM    5  C   UNL     1     -10.861  14.241  68.389  1.00  0.00    -0.253 C  
BRANCH   5   6
HETATM    6  C   UNL     1     -10.409  12.805  68.099  1.00  0.00    -0.239 C  
HETATM    7  H   UNL     1      -8.785  11.808  67.808  1.00  0.00     0.000 HD 
HETATM    8  O   UNL     1      -9.065  12.698  67.987  1.00  0.00    -0.194 OA 
BRANCH   6   9
HETATM    9  N   UNL     1     -11.239  11.832  67.957  1.00  0.00    -0.242 NA 
HETATM   10  H   UNL     1     -12.233  12.046  67.879  1.00  0.00     0.000 HD 
BRANCH   9  11
HETATM   11  C   UNL     1     -10.834  10.475  67.903  1.00  0.00    -0.282 A  
HETATM   12  C   UNL     1     -10.253   9.861  66.765  1.00  0.00    -0.301 A  
HETATM   13  C   UNL     1      -9.784   8.537  66.841  1.00  0.00    -0.286 A  
HETATM   14  C   UNL     1     -10.122  10.519  65.423  1.00  0.00    -0.358 C  
HETATM   15  C   UNL     1      -9.817   7.831  68.033  1.00  0.00    -0.192 A  
HETATM   16  C   UNL     1     -10.355   8.427  69.166  1.00  0.00    -0.229 A  
HETATM   17  C   UNL     1     -10.873   9.734  69.111  1.00  0.00    -0.231 A  
HETATM   18  C   UNL     1     -11.461  10.314  70.374  1.00  0.00    -0.415 C  
ENDBRANCH   9  11
ENDBRANCH   6   9
ENDBRANCH   5   6
BRANCH   5  19
HETATM   19  C   UNL     1     -11.986  14.150  69.457  1.00  0.00    -0.389 C  
HETATM   20  C   UNL     1     -12.407  15.477  70.090  1.00  0.00    -0.384 C  
ENDBRANCH   5  19
ENDBRANCH   4   5
BRANCH   4  21
HETATM   21  C   UNL     1     -12.192  14.110  66.297  1.00  0.00    -0.449 C  
HETATM   22  C   UNL     1     -11.996  14.066  64.781  1.00  0.00    -0.432 C  
ENDBRANCH   4  21
ENDBRANCH   3   4
ENDBRANCH   2   3
TORSDOF 8
ENDMDL
MODEL      176
REMARK 921   NORMALIZED FREE ENERGY PREDICTED BY IDOCK:   -3.81 KCAL/MOL
REMARK 922        TOTAL FREE ENERGY PREDICTED BY IDOCK:   -6.57 KCAL/MOL
REMARK 923 INTER-LIGAND FREE ENERGY PREDICTED BY IDOCK:   -5.77 KCAL/MOL
REMARK 924 INTRA-LIGAND FREE ENERGY PREDICTED BY IDOCK:   -0.80 KCAL/MOL
REMARK 927      BINDING AFFINITY PREDICTED BY RF-SCORE:    0.00 PKD
ROOT
HETATM    1  C   UNL     1      -5.577  10.809  66.448  1.00  0.00    -0.094 C  
HETATM    2  C   UNL     1      -7.024  11.220  66.676  1.00  0.00    -0.129 C  
ENDROOT
BRANCH   2   3
HETATM    3  C   UNL     1      -8.019  10.061  66.454  1.00  0.00    -0.116 C  
BRANCH   3   4
HETATM    4  N   UNL     1      -9.410  10.268  66.934  1.00  0.00    -0.156 NA 
BRANCH   4   5
HETATM    5  C   UNL     1      -9.944   9.045  67.651  1.00  0.00    -0.201 C  
BRANCH   5   6
HETATM    6  C   UNL     1      -9.305   8.933  69.040  1.00  0.00    -0.144 C  
HETATM    7  H   UNL     1      -8.018   7.850  69.981  1.00  0.00     0.000 HD 
HETATM    8  O   UNL     1      -8.414   7.919  69.120  1.00  0.00    -0.134 OA 
BRANCH   6   9
HETATM    9  N   UNL     1      -9.618   9.716  70.013  1.00  0.00    -0.230 NA 
HETATM   10  H   UNL     1      -8.954  10.437  70.291  1.00  0.00     0.000 HD 
BRANCH   9  11
HETATM   11  C   UNL     1     -10.846   9.619  70.715  1.00  0.00    -0.330 A  
HETATM   12  C   UNL     1     -11.106   8.673  71.738  1.00  0.00    -0.396 A  
HETATM   13  C   UNL     1     -12.317   8.723  72.452  1.00  0.00    -0.414 A  
HETATM   14  C   UNL     1     -10.177   7.558  72.117  1.00  0.00    -0.238 C  
HETATM   15  C   UNL     1     -13.246   9.726  72.222  1.00  0.00    -0.468 A  
HETATM   16  C   UNL     1     -12.994  10.679  71.244  1.00  0.00    -0.513 A  
HETATM   17  C   UNL     1     -11.812  10.630  70.481  1.00  0.00    -0.453 A  
HETATM   18  C   UNL     1     -11.611  11.685  69.422  1.00  0.00    -0.392 C  
ENDBRANCH   9  11
ENDBRANCH   6   9
ENDBRANCH   5   6
BRANCH   5  19
HETATM   19  C   UNL     1      -9.698   7.688  66.935  1.00  0.00    -0.277 C  
HETATM   20  C   UNL     1     -10.829   6.665  67.047  1.00  0.00    -0.467 C  
ENDBRANCH   5  19
ENDBRANCH   4   5
BRANCH   4  21
HETATM   21  C   UNL     1     -10.295  10.671  65.808  1.00  0.00    -0.219 C  
HETATM   22  C   UNL     1      -9.788  10.438  64.384  1.00  0.00    -0.395 C  
ENDBRANCH   4  21
ENDBRANCH   3   4
ENDBRANCH   2   3
TORSDOF 8
ENDMDL
MODEL      177
REMARK 921   NORMALIZED FREE ENERGY PREDICTED BY IDOCK:   -3.81 KCAL/MOL
REMARK 922        TOTAL FREE ENERGY PREDICTED BY IDOCK:   -6.57 KCAL/MOL
REMARK 923 INTER-LIGAND FREE ENERGY PREDICTED BY IDOCK:   -5.67 KCAL/MOL
REMARK 924 INTRA-LIGAND FREE ENERGY PREDICTED BY IDOCK:   -0.90 KCAL/MOL
REMARK 927      BINDING AFFINITY PREDICTED BY RF-SCORE:    0.00 PKD
ROOT
HETATM    1  C   UNL     1      -7.712  11.023  66.494  1.00  0.00    -0.154 C  
HETATM    2  C   UNL     1      -8.607   9.812  66.276  1.00  0.00    -0.137 C  
ENDROOT
BRANCH   2   3
HETATM    3  C   UNL     1     -10.095  10.186  66.113  1.00  0.00    -0.246 C  
BRANCH   3   4
HETATM    4  N   UNL     1     -10.412  11.630  65.966  1.00  0.00    -0.243 NA 
BRANCH   4   5
HETATM    5  C   UNL     1     -11.239  12.144  67.127  1.00  0.00    -0.314 C  
BRANCH   5   6
HETATM    6  C   UNL     1     -11.261  13.677  67.115  1.00  0.00    -0.309 C  
HETATM    7  H   UNL     1     -12.477  15.130  67.469  1.00  0.00     0.000 HD 
HETATM    8  O   UNL     1     -12.463  14.180  67.476  1.00  0.00    -0.174 OA 
BRANCH   6   9
HETATM    9  N   UNL     1     -10.241  14.383  66.769  1.00  0.00    -0.267 NA 
HETATM   10  H   UNL     1      -9.450  13.913  66.330  1.00  0.00     0.000 HD 
BRANCH   9  11
HETATM   11  C   UNL     1     -10.170  15.783  66.972  1.00  0.00    -0.280 A  
HETATM   12  C   UNL     1      -9.625  16.395  68.129  1.00  0.00    -0.227 A  
HETATM   13  C   UNL     1      -9.500  17.794  68.194  1.00  0.00    -0.282 A  
HETATM   14  C   UNL     1      -9.184  15.647  69.353  1.00  0.00    -0.279 C  
HETATM   15  C   UNL     1      -9.840  18.596  67.115  1.00  0.00    -0.340 A  
HETATM   16  C   UNL     1     -10.347  18.012  65.962  1.00  0.00    -0.333 A  
HETATM   17  C   UNL     1     -10.527  16.618  65.883  1.00  0.00    -0.324 A  
HETATM   18  C   UNL     1     -11.101  16.052  64.608  1.00  0.00    -0.346 C  
ENDBRANCH   9  11
ENDBRANCH   6   9
ENDBRANCH   5   6
BRANCH   5  19
HETATM   19  C   UNL     1     -10.750  11.715  68.539  1.00  0.00    -0.250 C  
HETATM   20  C   UNL     1     -11.674  10.761  69.298  1.00  0.00    -0.374 C  
ENDBRANCH   5  19
ENDBRANCH   4   5
BRANCH   4  21
HETATM   21  C   UNL     1     -11.084  11.886  64.663  1.00  0.00    -0.317 C  
HETATM   22  C   UNL     1     -10.285  11.622  63.385  1.00  0.00    -0.471 C  
ENDBRANCH   4  21
ENDBRANCH   3   4
ENDBRANCH   2   3
TORSDOF 8
ENDMDL
MODEL      178
REMARK 921   NORMALIZED FREE ENERGY PREDICTED BY IDOCK:   -3.80 KCAL/MOL
REMARK 922        TOTAL FREE ENERGY PREDICTED BY IDOCK:   -6.55 KCAL/MOL
REMARK 923 INTER-LIGAND FREE ENERGY PREDICTED BY IDOCK:   -5.68 KCAL/MOL
REMARK 924 INTRA-LIGAND FREE ENERGY PREDICTED BY IDOCK:   -0.87 KCAL/MOL
REMARK 927      BINDING AFFINITY PREDICTED BY RF-SCORE:    0.00 PKD
ROOT
HETATM    1  C   UNL     1     -11.546  11.918  64.670  1.00  0.00    -0.320 C  
HETATM    2  C   UNL     1     -10.108  11.620  64.269  1.00  0.00    -0.328 C  
ENDROOT
BRANCH   2   3
HETATM    3  C   UNL     1      -9.247  11.121  65.449  1.00  0.00    -0.205 C  
BRANCH   3   4
HETATM    4  N   UNL     1      -9.963  10.460  66.571  1.00  0.00    -0.209 NA 
BRANCH   4   5
HETATM    5  C   UNL     1      -9.266  10.696  67.896  1.00  0.00    -0.148 C  
BRANCH   5   6
HETATM    6  C   UNL     1     -10.302  10.761  69.025  1.00  0.00    -0.215 C  
HETATM    7  H   UNL     1     -10.527  10.172  70.846  1.00  0.00     0.000 HD 
HETATM    8  O   UNL     1      -9.885  10.130  70.147  1.00  0.00    -0.207 OA 
BRANCH   6   9
HETATM    9  N   UNL     1     -11.444  11.338  68.886  1.00  0.00    -0.267 NA 
HETATM   10  H   UNL     1     -12.116  10.937  68.232  1.00  0.00     0.000 HD 
BRANCH   9  11
HETATM   11  C   UNL     1     -11.810  12.505  69.601  1.00  0.00    -0.314 A  
HETATM   12  C   UNL     1     -11.678  13.823  69.096  1.00  0.00    -0.379 A  
HETATM   13  C   UNL     1     -12.167  14.914  69.838  1.00  0.00    -0.354 A  
HETATM   14  C   UNL     1     -11.003  14.171  67.802  1.00  0.00    -0.274 C  
HETATM   15  C   UNL     1     -12.842  14.725  71.034  1.00  0.00    -0.415 A  
HETATM   16  C   UNL     1     -13.007  13.438  71.529  1.00  0.00    -0.429 A  
HETATM   17  C   UNL     1     -12.489  12.329  70.833  1.00  0.00    -0.371 A  
HETATM   18  C   UNL     1     -12.687  10.961  71.437  1.00  0.00    -0.539 C  
ENDBRANCH   9  11
ENDBRANCH   6   9
ENDBRANCH   5   6
BRANCH   5  19
HETATM   19  C   UNL     1      -8.422  11.997  67.987  1.00  0.00    -0.168 C  
HETATM   20  C   UNL     1      -7.117  11.885  68.777  1.00  0.00    -0.111 C  
ENDBRANCH   5  19
ENDBRANCH   4   5
BRANCH   4  21
HETATM   21  C   UNL     1     -10.136   9.008  66.295  1.00  0.00    -0.241 C  
HETATM   22  C   UNL     1      -8.950   8.084  66.572  1.00  0.00    -0.188 C  
ENDBRANCH   4  21
ENDBRANCH   3   4
ENDBRANCH   2   3
TORSDOF 8
ENDMDL
MODEL      179
REMARK 921   NORMALIZED FREE ENERGY PREDICTED BY IDOCK:   -3.80 KCAL/MOL
REMARK 922        TOTAL FREE ENERGY PREDICTED BY IDOCK:   -6.54 KCAL/MOL
REMARK 923 INTER-LIGAND FREE ENERGY PREDICTED BY IDOCK:   -5.91 KCAL/MOL
REMARK 924 INTRA-LIGAND FREE ENERGY PREDICTED BY IDOCK:   -0.63 KCAL/MOL
REMARK 927      BINDING AFFINITY PREDICTED BY RF-SCORE:    0.00 PKD
ROOT
HETATM    1  C   UNL     1      -6.719  19.583  69.172  1.00  0.00    -0.373 C  
HETATM    2  C   UNL     1      -7.206  18.219  68.704  1.00  0.00    -0.293 C  
ENDROOT
BRANCH   2   3
HETATM    3  C   UNL     1      -8.315  18.312  67.636  1.00  0.00    -0.247 C  
BRANCH   3   4
HETATM    4  N   UNL     1      -9.704  18.031  68.083  1.00  0.00    -0.307 NA 
BRANCH   4   5
HETATM    5  C   UNL     1     -10.094  16.589  67.833  1.00  0.00    -0.256 C  
BRANCH   5   6
HETATM    6  C   UNL     1      -9.892  16.244  66.353  1.00  0.00    -0.291 C  
HETATM    7  H   UNL     1     -10.565  16.758  64.621  1.00  0.00     0.000 HD 
HETATM    8  O   UNL     1     -10.690  16.972  65.538  1.00  0.00    -0.470 OA 
BRANCH   6   9
HETATM    9  N   UNL     1      -9.066  15.339  65.957  1.00  0.00    -0.453 NA 
HETATM   10  H   UNL     1      -8.307  15.612  65.334  1.00  0.00     0.000 HD 
BRANCH   9  11
HETATM   11  C   UNL     1      -9.165  13.981  66.350  1.00  0.00    -0.162 A  
HETATM   12  C   UNL     1     -10.091  13.058  65.803  1.00  0.00    -0.294 A  
HETATM   13  C   UNL     1     -10.042  11.704  66.180  1.00  0.00    -0.259 A  
HETATM   14  C   UNL     1     -11.184  13.424  64.842  1.00  0.00    -0.347 C  
HETATM   15  C   UNL     1      -9.058  11.231  67.034  1.00  0.00    -0.167 A  
HETATM   16  C   UNL     1      -8.124  12.116  67.557  1.00  0.00    -0.163 A  
HETATM   17  C   UNL     1      -8.174  13.485  67.235  1.00  0.00    -0.164 A  
HETATM   18  C   UNL     1      -7.141  14.393  67.853  1.00  0.00    -0.169 C  
ENDBRANCH   9  11
ENDBRANCH   6   9
ENDBRANCH   5   6
BRANCH   5  19
HETATM   19  C   UNL     1     -11.563  16.222  68.182  1.00  0.00    -0.072 C  
HETATM   20  C   UNL     1     -11.766  14.855  68.837  1.00  0.00    -0.343 C  
ENDBRANCH   5  19
ENDBRANCH   4   5
BRANCH   4  21
HETATM   21  C   UNL     1     -10.659  18.975  67.440  1.00  0.00    -0.474 C  
HETATM   22  C   UNL     1     -10.081  20.092  66.571  1.00  0.00    -0.606 C  
ENDBRANCH   4  21
ENDBRANCH   3   4
ENDBRANCH   2   3
TORSDOF 8
ENDMDL
MODEL      180
REMARK 921   NORMALIZED FREE ENERGY PREDICTED BY IDOCK:   -3.80 KCAL/MOL
REMARK 922        TOTAL FREE ENERGY PREDICTED BY IDOCK:   -6.54 KCAL/MOL
REMARK 923 INTER-LIGAND FREE ENERGY PREDICTED BY IDOCK:   -5.66 KCAL/MOL
REMARK 924 INTRA-LIGAND FREE ENERGY PREDICTED BY IDOCK:   -0.89 KCAL/MOL
REMARK 927      BINDING AFFINITY PREDICTED BY RF-SCORE:    0.00 PKD
ROOT
HETATM    1  C   UNL     1     -11.957  14.088  66.843  1.00  0.00    -0.479 C  
HETATM    2  C   UNL     1     -10.905  13.038  67.170  1.00  0.00    -0.278 C  
ENDROOT
BRANCH   2   3
HETATM    3  C   UNL     1     -11.406  11.596  66.948  1.00  0.00    -0.295 C  
BRANCH   3   4
HETATM    4  N   UNL     1     -10.667  10.512  67.646  1.00  0.00    -0.254 NA 
BRANCH   4   5
HETATM    5  C   UNL     1     -10.818  10.610  69.151  1.00  0.00    -0.237 C  
BRANCH   5   6
HETATM    6  C   UNL     1     -10.441   9.274  69.801  1.00  0.00    -0.222 C  
HETATM    7  H   UNL     1      -9.143   8.555  71.032  1.00  0.00     0.000 HD 
HETATM    8  O   UNL     1      -9.376   9.383  70.629  1.00  0.00    -0.248 OA 
BRANCH   6   9
HETATM    9  N   UNL     1     -11.068   8.178  69.549  1.00  0.00    -0.439 NA 
HETATM   10  H   UNL     1     -11.715   8.157  68.762  1.00  0.00     0.000 HD 
BRANCH   9  11
HETATM   11  C   UNL     1     -10.898   6.999  70.318  1.00  0.00    -0.254 A  
HETATM   12  C   UNL     1      -9.938   5.995  70.034  1.00  0.00    -0.227 A  
HETATM   13  C   UNL     1      -9.772   4.911  70.916  1.00  0.00    -0.264 A  
HETATM   14  C   UNL     1      -9.075   5.971  68.808  1.00  0.00    -0.124 C  
HETATM   15  C   UNL     1     -10.485   4.834  72.102  1.00  0.00    -0.243 A  
HETATM   16  C   UNL     1     -11.408   5.825  72.410  1.00  0.00    -0.348 A  
HETATM   17  C   UNL     1     -11.630   6.899  71.527  1.00  0.00    -0.329 A  
HETATM   18  C   UNL     1     -12.661   7.929  71.915  1.00  0.00    -0.348 C  
ENDBRANCH   9  11
ENDBRANCH   6   9
ENDBRANCH   5   6
BRANCH   5  19
HETATM   19  C   UNL     1     -12.242  10.968  69.659  1.00  0.00    -0.370 C  
HETATM   20  C   UNL     1     -12.315  12.115  70.669  1.00  0.00    -0.385 C  
ENDBRANCH   5  19
ENDBRANCH   4   5
BRANCH   4  21
HETATM   21  C   UNL     1      -9.236  10.513  67.240  1.00  0.00    -0.143 C  
HETATM   22  C   UNL     1      -8.857   9.762  65.963  1.00  0.00    -0.170 C  
ENDBRANCH   4  21
ENDBRANCH   3   4
ENDBRANCH   2   3
TORSDOF 8
ENDMDL
MODEL      181
REMARK 921   NORMALIZED FREE ENERGY PREDICTED BY IDOCK:   -3.79 KCAL/MOL
REMARK 922        TOTAL FREE ENERGY PREDICTED BY IDOCK:   -6.54 KCAL/MOL
REMARK 923 INTER-LIGAND FREE ENERGY PREDICTED BY IDOCK:   -6.32 KCAL/MOL
REMARK 924 INTRA-LIGAND FREE ENERGY PREDICTED BY IDOCK:   -0.22 KCAL/MOL
REMARK 927      BINDING AFFINITY PREDICTED BY RF-SCORE:    0.00 PKD
ROOT
HETATM    1  C   UNL     1     -10.646  16.293  66.753  1.00  0.00    -0.257 C  
HETATM    2  C   UNL     1     -11.252  14.897  66.737  1.00  0.00    -0.338 C  
ENDROOT
BRANCH   2   3
HETATM    3  C   UNL     1     -10.321  13.831  67.354  1.00  0.00    -0.252 C  
BRANCH   3   4
HETATM    4  N   UNL     1     -10.918  12.925  68.369  1.00  0.00    -0.246 NA 
BRANCH   4   5
HETATM    5  C   UNL     1     -11.308  11.590  67.769  1.00  0.00    -0.296 C  
BRANCH   5   6
HETATM    6  C   UNL     1     -10.836  10.451  68.680  1.00  0.00    -0.232 C  
HETATM    7  H   UNL     1     -10.607   8.537  68.639  1.00  0.00     0.000 HD 
HETATM    8  O   UNL     1     -10.900   9.243  68.074  1.00  0.00    -0.203 OA 
BRANCH   6   9
HETATM    9  N   UNL     1     -10.451  10.646  69.893  1.00  0.00    -0.438 NA 
HETATM   10  H   UNL     1      -9.935  11.499  70.108  1.00  0.00     0.000 HD 
BRANCH   9  11
HETATM   11  C   UNL     1     -10.712   9.730  70.941  1.00  0.00    -0.305 A  
HETATM   12  C   UNL     1     -11.986   9.536  71.532  1.00  0.00    -0.475 A  
HETATM   13  C   UNL     1     -12.170   8.527  72.495  1.00  0.00    -0.383 A  
HETATM   14  C   UNL     1     -13.195  10.371  71.230  1.00  0.00    -0.431 C  
HETATM   15  C   UNL     1     -11.141   7.664  72.837  1.00  0.00    -0.448 A  
HETATM   16  C   UNL     1      -9.894   7.820  72.247  1.00  0.00    -0.248 A  
HETATM   17  C   UNL     1      -9.665   8.849  71.313  1.00  0.00    -0.359 A  
HETATM   18  C   UNL     1      -8.282   8.974  70.725  1.00  0.00    -0.213 C  
ENDBRANCH   9  11
ENDBRANCH   6   9
ENDBRANCH   5   6
BRANCH   5  19
HETATM   19  C   UNL     1     -10.734  11.298  66.354  1.00  0.00    -0.320 C  
HETATM   20  C   UNL     1      -9.298  10.770  66.318  1.00  0.00    -0.205 C  
ENDBRANCH   5  19
ENDBRANCH   4   5
BRANCH   4  21
HETATM   21  C   UNL     1     -12.074  13.582  69.038  1.00  0.00    -0.291 C  
HETATM   22  C   UNL     1     -11.826  14.261  70.385  1.00  0.00    -0.375 C  
ENDBRANCH   4  21
ENDBRANCH   3   4
ENDBRANCH   2   3
TORSDOF 8
ENDMDL
MODEL      182
REMARK 921   NORMALIZED FREE ENERGY PREDICTED BY IDOCK:   -3.79 KCAL/MOL
REMARK 922        TOTAL FREE ENERGY PREDICTED BY IDOCK:   -6.53 KCAL/MOL
REMARK 923 INTER-LIGAND FREE ENERGY PREDICTED BY IDOCK:   -6.10 KCAL/MOL
REMARK 924 INTRA-LIGAND FREE ENERGY PREDICTED BY IDOCK:   -0.44 KCAL/MOL
REMARK 927      BINDING AFFINITY PREDICTED BY RF-SCORE:    0.00 PKD
ROOT
HETATM    1  C   UNL     1     -12.558  13.173  71.064  1.00  0.00    -0.397 C  
HETATM    2  C   UNL     1     -12.940  11.806  71.613  1.00  0.00    -0.467 C  
ENDROOT
BRANCH   2   3
HETATM    3  C   UNL     1     -12.500  10.646  70.695  1.00  0.00    -0.371 C  
BRANCH   3   4
HETATM    4  N   UNL     1     -11.397   9.781  71.188  1.00  0.00    -0.373 NA 
BRANCH   4   5
HETATM    5  C   UNL     1     -10.243   9.730  70.207  1.00  0.00    -0.289 C  
BRANCH   5   6
HETATM    6  C   UNL     1     -10.547   8.718  69.097  1.00  0.00    -0.184 C  
HETATM    7  H   UNL     1     -10.334   6.838  68.727  1.00  0.00     0.000 HD 
HETATM    8  O   UNL     1     -10.146   7.465  69.415  1.00  0.00    -0.177 OA 
BRANCH   6   9
HETATM    9  N   UNL     1     -11.100   9.053  67.984  1.00  0.00    -0.477 NA 
HETATM   10  H   UNL     1     -12.100   8.894  67.870  1.00  0.00     0.000 HD 
BRANCH   9  11
HETATM   11  C   UNL     1     -10.380   9.634  66.910  1.00  0.00    -0.238 A  
HETATM   12  C   UNL     1      -9.532   8.909  66.035  1.00  0.00    -0.320 A  
HETATM   13  C   UNL     1      -8.943   9.553  64.932  1.00  0.00    -0.264 A  
HETATM   14  C   UNL     1      -9.168   7.464  66.212  1.00  0.00    -0.182 C  
HETATM   15  C   UNL     1      -9.226  10.878  64.638  1.00  0.00    -0.223 A  
HETATM   16  C   UNL     1     -10.078  11.595  65.468  1.00  0.00    -0.285 A  
HETATM   17  C   UNL     1     -10.648  10.992  66.605  1.00  0.00    -0.315 A  
HETATM   18  C   UNL     1     -11.549  11.834  67.473  1.00  0.00    -0.361 C  
ENDBRANCH   9  11
ENDBRANCH   6   9
ENDBRANCH   5   6
BRANCH   5  19
HETATM   19  C   UNL     1      -8.867   9.333  70.812  1.00  0.00    -0.282 C  
HETATM   20  C   UNL     1      -7.640   9.878  70.079  1.00  0.00    -0.179 C  
ENDBRANCH   5  19
ENDBRANCH   4   5
BRANCH   4  21
HETATM   21  C   UNL     1     -11.905   8.418  71.504  1.00  0.00    -0.297 C  
HETATM   22  C   UNL     1     -11.471   7.784  72.826  1.00  0.00    -0.415 C  
ENDBRANCH   4  21
ENDBRANCH   3   4
ENDBRANCH   2   3
TORSDOF 8
ENDMDL
MODEL      183
REMARK 921   NORMALIZED FREE ENERGY PREDICTED BY IDOCK:   -3.79 KCAL/MOL
REMARK 922        TOTAL FREE ENERGY PREDICTED BY IDOCK:   -6.53 KCAL/MOL
REMARK 923 INTER-LIGAND FREE ENERGY PREDICTED BY IDOCK:   -5.87 KCAL/MOL
REMARK 924 INTRA-LIGAND FREE ENERGY PREDICTED BY IDOCK:   -0.66 KCAL/MOL
REMARK 927      BINDING AFFINITY PREDICTED BY RF-SCORE:    0.00 PKD
ROOT
HETATM    1  C   UNL     1     -11.087   6.488  67.046  1.00  0.00    -0.411 C  
HETATM    2  C   UNL     1     -10.172   7.161  68.059  1.00  0.00    -0.223 C  
ENDROOT
BRANCH   2   3
HETATM    3  C   UNL     1      -9.147   8.111  67.404  1.00  0.00    -0.134 C  
BRANCH   3   4
HETATM    4  N   UNL     1      -9.139   9.520  67.875  1.00  0.00    -0.126 NA 
BRANCH   4   5
HETATM    5  C   UNL     1      -9.740  10.458  66.848  1.00  0.00    -0.181 C  
BRANCH   5   6
HETATM    6  C   UNL     1     -11.096  10.974  67.343  1.00  0.00    -0.305 C  
HETATM    7  H   UNL     1     -12.335  10.688  68.793  1.00  0.00     0.000 HD 
HETATM    8  O   UNL     1     -11.495  10.368  68.486  1.00  0.00    -0.248 OA 
BRANCH   6   9
HETATM    9  N   UNL     1     -11.773  11.867  66.710  1.00  0.00    -0.590 NA 
HETATM   10  H   UNL     1     -12.710  11.629  66.385  1.00  0.00     0.000 HD 
BRANCH   9  11
HETATM   11  C   UNL     1     -11.274  13.166  66.444  1.00  0.00    -0.300 A  
HETATM   12  C   UNL     1     -11.069  13.690  65.143  1.00  0.00    -0.324 A  
HETATM   13  C   UNL     1     -10.671  15.029  64.977  1.00  0.00    -0.448 A  
HETATM   14  C   UNL     1     -11.212  12.896  63.878  1.00  0.00    -0.471 C  
HETATM   15  C   UNL     1     -10.536  15.878  66.064  1.00  0.00    -0.331 A  
HETATM   16  C   UNL     1     -10.763  15.390  67.345  1.00  0.00    -0.296 A  
HETATM   17  C   UNL     1     -11.118  14.043  67.547  1.00  0.00    -0.313 A  
HETATM   18  C   UNL     1     -11.330  13.574  68.965  1.00  0.00    -0.336 C  
ENDBRANCH   9  11
ENDBRANCH   6   9
ENDBRANCH   5   6
BRANCH   5  19
HETATM   19  C   UNL     1      -9.981   9.844  65.441  1.00  0.00    -0.349 C  
HETATM   20  C   UNL     1      -8.900  10.134  64.399  1.00  0.00    -0.234 C  
ENDBRANCH   5  19
ENDBRANCH   4   5
BRANCH   4  21
HETATM   21  C   UNL     1      -7.761   9.935  68.254  1.00  0.00    -0.085 C  
HETATM   22  C   UNL     1      -7.455  10.119  69.741  1.00  0.00    -0.166 C  
ENDBRANCH   4  21
ENDBRANCH   3   4
ENDBRANCH   2   3
TORSDOF 8
ENDMDL
MODEL      184
REMARK 921   NORMALIZED FREE ENERGY PREDICTED BY IDOCK:   -3.78 KCAL/MOL
REMARK 922        TOTAL FREE ENERGY PREDICTED BY IDOCK:   -6.53 KCAL/MOL
REMARK 923 INTER-LIGAND FREE ENERGY PREDICTED BY IDOCK:   -5.57 KCAL/MOL
REMARK 924 INTRA-LIGAND FREE ENERGY PREDICTED BY IDOCK:   -0.96 KCAL/MOL
REMARK 927      BINDING AFFINITY PREDICTED BY RF-SCORE:    0.00 PKD
ROOT
HETATM    1  C   UNL     1      -7.022   6.953  65.246  1.00  0.00    -0.052 C  
HETATM    2  C   UNL     1      -8.112   8.005  65.401  1.00  0.00    -0.135 C  
ENDROOT
BRANCH   2   3
HETATM    3  C   UNL     1      -8.755   8.002  66.804  1.00  0.00    -0.133 C  
BRANCH   3   4
HETATM    4  N   UNL     1     -10.206   8.312  66.879  1.00  0.00    -0.296 NA 
BRANCH   4   5
HETATM    5  C   UNL     1     -10.505   9.337  67.954  1.00  0.00    -0.236 C  
BRANCH   5   6
HETATM    6  C   UNL     1     -10.990  10.641  67.310  1.00  0.00    -0.284 C  
HETATM    7  H   UNL     1     -12.419  11.922  67.487  1.00  0.00     0.000 HD 
HETATM    8  O   UNL     1     -12.120  11.114  67.886  1.00  0.00    -0.627 OA 
BRANCH   6   9
HETATM    9  N   UNL     1     -10.384  11.192  66.317  1.00  0.00    -0.242 NA 
HETATM   10  H   UNL     1      -9.793  10.611  65.724  1.00  0.00     0.000 HD 
BRANCH   9  11
HETATM   11  C   UNL     1     -10.503  12.571  66.011  1.00  0.00    -0.258 A  
HETATM   12  C   UNL     1      -9.887  13.608  66.755  1.00  0.00    -0.271 A  
HETATM   13  C   UNL     1      -9.974  14.940  66.313  1.00  0.00    -0.300 A  
HETATM   14  C   UNL     1      -9.149  13.402  68.045  1.00  0.00    -0.205 C  
HETATM   15  C   UNL     1     -10.599  15.261  65.117  1.00  0.00    -0.453 A  
HETATM   16  C   UNL     1     -11.182  14.253  64.360  1.00  0.00    -0.262 A  
HETATM   17  C   UNL     1     -11.151  12.916  64.799  1.00  0.00    -0.337 A  
HETATM   18  C   UNL     1     -11.821  11.875  63.937  1.00  0.00    -0.509 C  
ENDBRANCH   9  11
ENDBRANCH   6   9
ENDBRANCH   5   6
BRANCH   5  19
HETATM   19  C   UNL     1      -9.310   9.709  68.875  1.00  0.00    -0.151 C  
HETATM   20  C   UNL     1      -9.441   9.276  70.336  1.00  0.00    -0.292 C  
ENDBRANCH   5  19
ENDBRANCH   4   5
BRANCH   4  21
HETATM   21  C   UNL     1     -10.995   7.067  67.076  1.00  0.00    -0.287 C  
HETATM   22  C   UNL     1     -10.262   5.834  67.607  1.00  0.00    -0.236 C  
ENDBRANCH   4  21
ENDBRANCH   3   4
ENDBRANCH   2   3
TORSDOF 8
ENDMDL
MODEL      185
REMARK 921   NORMALIZED FREE ENERGY PREDICTED BY IDOCK:   -3.78 KCAL/MOL
REMARK 922        TOTAL FREE ENERGY PREDICTED BY IDOCK:   -6.52 KCAL/MOL
REMARK 923 INTER-LIGAND FREE ENERGY PREDICTED BY IDOCK:   -5.20 KCAL/MOL
REMARK 924 INTRA-LIGAND FREE ENERGY PREDICTED BY IDOCK:   -1.32 KCAL/MOL
REMARK 927      BINDING AFFINITY PREDICTED BY RF-SCORE:    0.00 PKD
ROOT
HETATM    1  C   UNL     1     -10.814   7.126  67.015  1.00  0.00    -0.382 C  
HETATM    2  C   UNL     1      -9.441   7.639  66.608  1.00  0.00    -0.255 C  
ENDROOT
BRANCH   2   3
HETATM    3  C   UNL     1      -9.495   9.019  65.919  1.00  0.00    -0.249 C  
BRANCH   3   4
HETATM    4  N   UNL     1      -8.754  10.128  66.576  1.00  0.00    -0.129 NA 
BRANCH   4   5
HETATM    5  C   UNL     1      -9.646  11.327  66.825  1.00  0.00    -0.193 C  
BRANCH   5   6
HETATM    6  C   UNL     1      -9.773  11.577  68.333  1.00  0.00    -0.202 C  
HETATM    7  H   UNL     1     -10.390  10.678  69.923  1.00  0.00     0.000 HD 
HETATM    8  O   UNL     1     -10.311  10.523  68.989  1.00  0.00    -0.189 OA 
BRANCH   6   9
HETATM    9  N   UNL     1      -9.424  12.686  68.884  1.00  0.00    -0.385 NA 
HETATM   10  H   UNL     1      -8.670  12.673  69.571  1.00  0.00     0.000 HD 
BRANCH   9  11
HETATM   11  C   UNL     1     -10.039  13.926  68.580  1.00  0.00    -0.234 A  
HETATM   12  C   UNL     1     -11.279  14.354  69.118  1.00  0.00    -0.300 A  
HETATM   13  C   UNL     1     -11.759  15.646  68.840  1.00  0.00    -0.396 A  
HETATM   14  C   UNL     1     -12.174  13.499  69.965  1.00  0.00    -0.381 C  
HETATM   15  C   UNL     1     -11.010  16.547  68.098  1.00  0.00    -0.336 A  
HETATM   16  C   UNL     1      -9.780  16.155  67.588  1.00  0.00    -0.233 A  
HETATM   17  C   UNL     1      -9.292  14.853  67.810  1.00  0.00    -0.194 A  
HETATM   18  C   UNL     1      -7.957  14.488  67.211  1.00  0.00    -0.216 C  
ENDBRANCH   9  11
ENDBRANCH   6   9
ENDBRANCH   5   6
BRANCH   5  19
HETATM   19  C   UNL     1     -11.091  11.215  66.266  1.00  0.00    -0.176 C  
HETATM   20  C   UNL     1     -11.743  12.534  65.847  1.00  0.00    -0.480 C  
ENDBRANCH   5  19
ENDBRANCH   4   5
BRANCH   4  21
HETATM   21  C   UNL     1      -7.554  10.496  65.777  1.00  0.00    -0.142 C  
HETATM   22  C   UNL     1      -6.387  11.160  66.509  1.00  0.00    -0.132 C  
ENDBRANCH   4  21
ENDBRANCH   3   4
ENDBRANCH   2   3
TORSDOF 8
ENDMDL
MODEL      186
REMARK 921   NORMALIZED FREE ENERGY PREDICTED BY IDOCK:   -3.77 KCAL/MOL
REMARK 922        TOTAL FREE ENERGY PREDICTED BY IDOCK:   -6.50 KCAL/MOL
REMARK 923 INTER-LIGAND FREE ENERGY PREDICTED BY IDOCK:   -5.98 KCAL/MOL
REMARK 924 INTRA-LIGAND FREE ENERGY PREDICTED BY IDOCK:   -0.51 KCAL/MOL
REMARK 927      BINDING AFFINITY PREDICTED BY RF-SCORE:    0.00 PKD
ROOT
HETATM    1  C   UNL     1      -6.835  19.256  67.738  1.00  0.00    -0.249 C  
HETATM    2  C   UNL     1      -6.815  17.791  68.152  1.00  0.00    -0.206 C  
ENDROOT
BRANCH   2   3
HETATM    3  C   UNL     1      -7.804  16.925  67.343  1.00  0.00    -0.170 C  
BRANCH   3   4
HETATM    4  N   UNL     1      -8.296  15.682  67.991  1.00  0.00    -0.144 NA 
BRANCH   4   5
HETATM    5  C   UNL     1      -9.809  15.634  68.037  1.00  0.00    -0.209 C  
BRANCH   5   6
HETATM    6  C   UNL     1     -10.294  14.203  67.777  1.00  0.00    -0.242 C  
HETATM    7  H   UNL     1      -9.633  12.536  67.069  1.00  0.00     0.000 HD 
HETATM    8  O   UNL     1      -9.333  13.423  67.230  1.00  0.00    -0.216 OA 
BRANCH   6   9
HETATM    9  N   UNL     1     -11.495  13.819  68.035  1.00  0.00    -0.291 NA 
HETATM   10  H   UNL     1     -12.199  13.894  67.301  1.00  0.00     0.000 HD 
BRANCH   9  11
HETATM   11  C   UNL     1     -11.882  13.296  69.294  1.00  0.00    -0.331 A  
HETATM   12  C   UNL     1     -12.415  14.075  70.351  1.00  0.00    -0.418 A  
HETATM   13  C   UNL     1     -12.870  13.451  71.526  1.00  0.00    -0.427 A  
HETATM   14  C   UNL     1     -12.506  15.573  70.336  1.00  0.00    -0.443 C  
HETATM   15  C   UNL     1     -12.873  12.071  71.652  1.00  0.00    -0.399 A  
HETATM   16  C   UNL     1     -12.382  11.289  70.614  1.00  0.00    -0.477 A  
HETATM   17  C   UNL     1     -11.877  11.886  69.443  1.00  0.00    -0.389 A  
HETATM   18  C   UNL     1     -11.342  10.979  68.364  1.00  0.00    -0.363 C  
ENDBRANCH   9  11
ENDBRANCH   6   9
ENDBRANCH   5   6
BRANCH   5  19
HETATM   19  C   UNL     1     -10.540  16.547  67.014  1.00  0.00    -0.255 C  
HETATM   20  C   UNL     1     -10.631  16.002  65.588  1.00  0.00    -0.392 C  
ENDBRANCH   5  19
ENDBRANCH   4   5
BRANCH   4  21
HETATM   21  C   UNL     1      -7.703  15.534  69.348  1.00  0.00    -0.227 C  
HETATM   22  C   UNL     1      -6.772  14.347  69.594  1.00  0.00    -0.137 C  
ENDBRANCH   4  21
ENDBRANCH   3   4
ENDBRANCH   2   3
TORSDOF 8
ENDMDL
MODEL      187
REMARK 921   NORMALIZED FREE ENERGY PREDICTED BY IDOCK:   -3.76 KCAL/MOL
REMARK 922        TOTAL FREE ENERGY PREDICTED BY IDOCK:   -6.49 KCAL/MOL
REMARK 923 INTER-LIGAND FREE ENERGY PREDICTED BY IDOCK:   -5.14 KCAL/MOL
REMARK 924 INTRA-LIGAND FREE ENERGY PREDICTED BY IDOCK:   -1.35 KCAL/MOL
REMARK 927      BINDING AFFINITY PREDICTED BY RF-SCORE:    0.00 PKD
ROOT
HETATM    1  C   UNL     1     -13.138  12.783  71.603  1.00  0.00    -0.428 C  
HETATM    2  C   UNL     1     -12.313  11.890  70.687  1.00  0.00    -0.405 C  
ENDROOT
BRANCH   2   3
HETATM    3  C   UNL     1     -12.181  10.447  71.216  1.00  0.00    -0.389 C  
BRANCH   3   4
HETATM    4  N   UNL     1     -11.733   9.414  70.246  1.00  0.00    -0.152 NA 
BRANCH   4   5
HETATM    5  C   UNL     1     -11.007   8.276  70.934  1.00  0.00    -0.246 C  
BRANCH   5   6
HETATM    6  C   UNL     1     -11.797   6.973  70.760  1.00  0.00    -0.355 C  
HETATM    7  H   UNL     1     -13.582   6.294  71.020  1.00  0.00     0.000 HD 
HETATM    8  O   UNL     1     -13.093   7.101  71.128  1.00  0.00    -0.361 OA 
BRANCH   6   9
HETATM    9  N   UNL     1     -11.257   5.886  70.334  1.00  0.00    -0.297 NA 
HETATM   10  H   UNL     1     -11.689   5.404  69.545  1.00  0.00     0.000 HD 
BRANCH   9  11
HETATM   11  C   UNL     1     -10.089   5.327  70.911  1.00  0.00    -0.226 A  
HETATM   12  C   UNL     1     -10.055   4.677  72.170  1.00  0.00    -0.256 A  
HETATM   13  C   UNL     1      -8.871   4.061  72.612  1.00  0.00    -0.114 A  
HETATM   14  C   UNL     1     -11.211   4.619  73.124  1.00  0.00    -0.367 C  
HETATM   15  C   UNL     1      -7.742   4.015  71.809  1.00  0.00    -0.070 A  
HETATM   16  C   UNL     1      -7.766   4.621  70.560  1.00  0.00    -0.054 A  
HETATM   17  C   UNL     1      -8.922   5.285  70.108  1.00  0.00    -0.156 A  
HETATM   18  C   UNL     1      -8.874   5.938  68.749  1.00  0.00    -0.111 C  
ENDBRANCH   9  11
ENDBRANCH   6   9
ENDBRANCH   5   6
BRANCH   5  19
HETATM   19  C   UNL     1     -10.771   8.457  72.459  1.00  0.00    -0.372 C  
HETATM   20  C   UNL     1      -9.342   8.205  72.942  1.00  0.00    -0.343 C  
ENDBRANCH   5  19
ENDBRANCH   4   5
BRANCH   4  21
HETATM   21  C   UNL     1     -10.897  10.030  69.180  1.00  0.00    -0.222 C  
HETATM   22  C   UNL     1      -9.379   9.879  69.288  1.00  0.00    -0.215 C  
ENDBRANCH   4  21
ENDBRANCH   3   4
ENDBRANCH   2   3
TORSDOF 8
ENDMDL
MODEL      188
REMARK 921   NORMALIZED FREE ENERGY PREDICTED BY IDOCK:   -3.75 KCAL/MOL
REMARK 922        TOTAL FREE ENERGY PREDICTED BY IDOCK:   -6.47 KCAL/MOL
REMARK 923 INTER-LIGAND FREE ENERGY PREDICTED BY IDOCK:   -6.28 KCAL/MOL
REMARK 924 INTRA-LIGAND FREE ENERGY PREDICTED BY IDOCK:   -0.20 KCAL/MOL
REMARK 927      BINDING AFFINITY PREDICTED BY RF-SCORE:    0.00 PKD
ROOT
HETATM    1  C   UNL     1     -11.974  12.802  63.388  1.00  0.00    -0.613 C  
HETATM    2  C   UNL     1     -12.438  12.629  64.827  1.00  0.00    -0.555 C  
ENDROOT
BRANCH   2   3
HETATM    3  C   UNL     1     -12.062  13.825  65.727  1.00  0.00    -0.429 C  
BRANCH   3   4
HETATM    4  N   UNL     1     -11.414  13.511  67.027  1.00  0.00    -0.324 NA 
BRANCH   4   5
HETATM    5  C   UNL     1      -9.904  13.579  66.931  1.00  0.00    -0.257 C  
BRANCH   5   6
HETATM    6  C   UNL     1      -9.476  14.953  66.402  1.00  0.00    -0.300 C  
HETATM    7  H   UNL     1      -9.526  15.979  64.771  1.00  0.00     0.000 HD 
HETATM    8  O   UNL     1      -9.791  15.127  65.098  1.00  0.00    -0.288 OA 
BRANCH   6   9
HETATM    9  N   UNL     1      -8.863  15.817  67.133  1.00  0.00    -0.193 NA 
HETATM   10  H   UNL     1      -8.081  15.503  67.707  1.00  0.00     0.000 HD 
BRANCH   9  11
HETATM   11  C   UNL     1      -9.226  17.187  67.175  1.00  0.00    -0.236 A  
HETATM   12  C   UNL     1     -10.356  17.691  67.867  1.00  0.00    -0.371 A  
HETATM   13  C   UNL     1     -10.575  19.078  67.940  1.00  0.00    -0.441 A  
HETATM   14  C   UNL     1     -11.397  16.834  68.525  1.00  0.00    -0.064 C  
HETATM   15  C   UNL     1      -9.669  19.978  67.402  1.00  0.00    -0.550 A  
HETATM   16  C   UNL     1      -8.541  19.503  66.747  1.00  0.00    -0.350 A  
HETATM   17  C   UNL     1      -8.315  18.120  66.617  1.00  0.00    -0.283 A  
HETATM   18  C   UNL     1      -7.080  17.672  65.876  1.00  0.00    -0.250 C  
ENDBRANCH   9  11
ENDBRANCH   6   9
ENDBRANCH   5   6
BRANCH   5  19
HETATM   19  C   UNL     1      -9.243  12.518  66.007  1.00  0.00    -0.020 C  
HETATM   20  C   UNL     1      -8.183  11.634  66.666  1.00  0.00    -0.140 C  
ENDBRANCH   5  19
ENDBRANCH   4   5
BRANCH   4  21
HETATM   21  C   UNL     1     -11.871  12.187  67.530  1.00  0.00    -0.237 C  
HETATM   22  C   UNL     1     -11.623  11.860  69.003  1.00  0.00    -0.376 C  
ENDBRANCH   4  21
ENDBRANCH   3   4
ENDBRANCH   2   3
TORSDOF 8
ENDMDL
MODEL      189
REMARK 921   NORMALIZED FREE ENERGY PREDICTED BY IDOCK:   -3.74 KCAL/MOL
REMARK 922        TOTAL FREE ENERGY PREDICTED BY IDOCK:   -6.46 KCAL/MOL
REMARK 923 INTER-LIGAND FREE ENERGY PREDICTED BY IDOCK:   -6.05 KCAL/MOL
REMARK 924 INTRA-LIGAND FREE ENERGY PREDICTED BY IDOCK:   -0.41 KCAL/MOL
REMARK 927      BINDING AFFINITY PREDICTED BY RF-SCORE:    0.00 PKD
ROOT
HETATM    1  C   UNL     1      -9.718  20.407  67.219  1.00  0.00    -0.602 C  
HETATM    2  C   UNL     1     -10.251  19.349  68.174  1.00  0.00    -0.537 C  
ENDROOT
BRANCH   2   3
HETATM    3  C   UNL     1     -10.651  18.041  67.459  1.00  0.00    -0.388 C  
BRANCH   3   4
HETATM    4  N   UNL     1     -10.066  16.781  67.986  1.00  0.00    -0.273 NA 
BRANCH   4   5
HETATM    5  C   UNL     1      -9.063  16.182  67.021  1.00  0.00    -0.209 C  
BRANCH   5   6
HETATM    6  C   UNL     1      -8.897  14.684  67.304  1.00  0.00    -0.207 C  
HETATM    7  H   UNL     1      -8.381  13.510  68.743  1.00  0.00     0.000 HD 
HETATM    8  O   UNL     1      -8.483  14.438  68.568  1.00  0.00    -0.162 OA 
BRANCH   6   9
HETATM    9  N   UNL     1      -9.111  13.781  66.411  1.00  0.00    -0.469 NA 
HETATM   10  H   UNL     1      -9.082  14.051  65.429  1.00  0.00     0.000 HD 
BRANCH   9  11
HETATM   11  C   UNL     1      -9.386  12.429  66.734  1.00  0.00    -0.220 A  
HETATM   12  C   UNL     1      -8.398  11.481  67.101  1.00  0.00    -0.160 A  
HETATM   13  C   UNL     1      -8.778  10.189  67.507  1.00  0.00    -0.125 A  
HETATM   14  C   UNL     1      -6.920  11.738  67.059  1.00  0.00    -0.135 C  
HETATM   15  C   UNL     1     -10.113   9.836  67.621  1.00  0.00    -0.236 A  
HETATM   16  C   UNL     1     -11.096  10.761  67.294  1.00  0.00    -0.339 A  
HETATM   17  C   UNL     1     -10.747  12.048  66.841  1.00  0.00    -0.282 A  
HETATM   18  C   UNL     1     -11.863  12.997  66.484  1.00  0.00    -0.464 C  
ENDBRANCH   9  11
ENDBRANCH   6   9
ENDBRANCH   5   6
BRANCH   5  19
HETATM   19  C   UNL     1      -7.640  16.805  67.062  1.00  0.00    -0.235 C  
HETATM   20  C   UNL     1      -7.335  17.831  65.970  1.00  0.00    -0.307 C  
ENDBRANCH   5  19
ENDBRANCH   4   5
BRANCH   4  21
HETATM   21  C   UNL     1     -11.141  15.810  68.328  1.00  0.00    -0.342 C  
HETATM   22  C   UNL     1     -11.632  15.771  69.775  1.00  0.00    -0.359 C  
ENDBRANCH   4  21
ENDBRANCH   3   4
ENDBRANCH   2   3
TORSDOF 8
ENDMDL
MODEL      190
REMARK 921   NORMALIZED FREE ENERGY PREDICTED BY IDOCK:   -3.73 KCAL/MOL
REMARK 922        TOTAL FREE ENERGY PREDICTED BY IDOCK:   -6.44 KCAL/MOL
REMARK 923 INTER-LIGAND FREE ENERGY PREDICTED BY IDOCK:   -6.05 KCAL/MOL
REMARK 924 INTRA-LIGAND FREE ENERGY PREDICTED BY IDOCK:   -0.39 KCAL/MOL
REMARK 927      BINDING AFFINITY PREDICTED BY RF-SCORE:    0.00 PKD
ROOT
HETATM    1  C   UNL     1     -11.604   6.518  70.823  1.00  0.00    -0.437 C  
HETATM    2  C   UNL     1     -10.362   7.229  70.305  1.00  0.00    -0.219 C  
ENDROOT
BRANCH   2   3
HETATM    3  C   UNL     1     -10.582   7.901  68.934  1.00  0.00    -0.145 C  
BRANCH   3   4
HETATM    4  N   UNL     1     -10.150   9.316  68.801  1.00  0.00    -0.189 NA 
BRANCH   4   5
HETATM    5  C   UNL     1     -11.262  10.279  69.165  1.00  0.00    -0.215 C  
BRANCH   5   6
HETATM    6  C   UNL     1     -10.994  11.649  68.531  1.00  0.00    -0.220 C  
HETATM    7  H   UNL     1      -9.631  13.012  68.503  1.00  0.00     0.000 HD 
HETATM    8  O   UNL     1      -9.797  12.163  68.896  1.00  0.00    -0.076 OA 
BRANCH   6   9
HETATM    9  N   UNL     1     -11.842  12.235  67.760  1.00  0.00    -0.473 NA 
HETATM   10  H   UNL     1     -12.778  11.840  67.676  1.00  0.00     0.000 HD 
BRANCH   9  11
HETATM   11  C   UNL     1     -11.533  13.406  67.023  1.00  0.00    -0.337 A  
HETATM   12  C   UNL     1     -11.439  14.702  67.589  1.00  0.00    -0.364 A  
HETATM   13  C   UNL     1     -11.022  15.787  66.798  1.00  0.00    -0.192 A  
HETATM   14  C   UNL     1     -11.792  15.034  69.009  1.00  0.00    -0.330 C  
HETATM   15  C   UNL     1     -10.633  15.608  65.480  1.00  0.00    -0.422 A  
HETATM   16  C   UNL     1     -10.691  14.340  64.917  1.00  0.00    -0.448 A  
HETATM   17  C   UNL     1     -11.147  13.241  65.669  1.00  0.00    -0.299 A  
HETATM   18  C   UNL     1     -11.203  11.895  64.991  1.00  0.00    -0.350 C  
ENDBRANCH   9  11
ENDBRANCH   6   9
ENDBRANCH   5   6
BRANCH   5  19
HETATM   19  C   UNL     1     -11.468  10.522  70.686  1.00  0.00    -0.418 C  
HETATM   20  C   UNL     1     -12.680  11.376  71.062  1.00  0.00    -0.447 C  
ENDBRANCH   5  19
ENDBRANCH   4   5
BRANCH   4  21
HETATM   21  C   UNL     1      -9.629   9.576  67.432  1.00  0.00    -0.141 C  
HETATM   22  C   UNL     1      -9.889   8.519  66.358  1.00  0.00    -0.327 C  
ENDBRANCH   4  21
ENDBRANCH   3   4
ENDBRANCH   2   3
TORSDOF 8
ENDMDL
MODEL      191
REMARK 921   NORMALIZED FREE ENERGY PREDICTED BY IDOCK:   -3.73 KCAL/MOL
REMARK 922        TOTAL FREE ENERGY PREDICTED BY IDOCK:   -6.44 KCAL/MOL
REMARK 923 INTER-LIGAND FREE ENERGY PREDICTED BY IDOCK:   -5.28 KCAL/MOL
REMARK 924 INTRA-LIGAND FREE ENERGY PREDICTED BY IDOCK:   -1.16 KCAL/MOL
REMARK 927      BINDING AFFINITY PREDICTED BY RF-SCORE:    0.00 PKD
ROOT
HETATM    1  C   UNL     1     -10.773   7.344  67.629  1.00  0.00    -0.278 C  
HETATM    2  C   UNL     1     -11.092   6.186  68.564  1.00  0.00    -0.352 C  
ENDROOT
BRANCH   2   3
HETATM    3  C   UNL     1     -10.951   6.561  70.054  1.00  0.00    -0.332 C  
BRANCH   3   4
HETATM    4  N   UNL     1     -11.198   7.981  70.416  1.00  0.00    -0.258 NA 
BRANCH   4   5
HETATM    5  C   UNL     1     -10.051   8.565  71.215  1.00  0.00    -0.222 C  
BRANCH   5   6
HETATM    6  C   UNL     1      -9.003   9.157  70.266  1.00  0.00    -0.217 C  
HETATM    7  H   UNL     1      -7.390   8.633  69.348  1.00  0.00     0.000 HD 
HETATM    8  O   UNL     1      -8.040   8.265  69.936  1.00  0.00    -0.112 OA 
BRANCH   6   9
HETATM    9  N   UNL     1      -9.043  10.378  69.862  1.00  0.00    -0.387 NA 
HETATM   10  H   UNL     1      -8.453  11.066  70.330  1.00  0.00     0.000 HD 
BRANCH   9  11
HETATM   11  C   UNL     1      -9.871  10.811  68.796  1.00  0.00    -0.194 A  
HETATM   12  C   UNL     1     -11.146  11.407  68.968  1.00  0.00    -0.300 A  
HETATM   13  C   UNL     1     -11.849  11.901  67.855  1.00  0.00    -0.308 A  
HETATM   14  C   UNL     1     -11.852  11.530  70.287  1.00  0.00    -0.431 C  
HETATM   15  C   UNL     1     -11.291  11.879  66.586  1.00  0.00    -0.400 A  
HETATM   16  C   UNL     1     -10.031  11.325  66.403  1.00  0.00    -0.252 A  
HETATM   17  C   UNL     1      -9.321  10.782  67.490  1.00  0.00    -0.158 A  
HETATM   18  C   UNL     1      -7.965  10.179  67.218  1.00  0.00    -0.110 C  
ENDBRANCH   9  11
ENDBRANCH   6   9
ENDBRANCH   5   6
BRANCH   5  19
HETATM   19  C   UNL     1      -9.303   7.565  72.140  1.00  0.00    -0.176 C  
HETATM   20  C   UNL     1      -8.889   8.112  73.508  1.00  0.00    -0.310 C  
ENDBRANCH   5  19
ENDBRANCH   4   5
BRANCH   4  21
HETATM   21  C   UNL     1     -12.492   8.116  71.139  1.00  0.00    -0.182 C  
HETATM   22  C   UNL     1     -13.107   6.853  71.743  1.00  0.00    -0.302 C  
ENDBRANCH   4  21
ENDBRANCH   3   4
ENDBRANCH   2   3
TORSDOF 8
ENDMDL
MODEL      192
REMARK 921   NORMALIZED FREE ENERGY PREDICTED BY IDOCK:   -3.72 KCAL/MOL
REMARK 922        TOTAL FREE ENERGY PREDICTED BY IDOCK:   -6.44 KCAL/MOL
REMARK 923 INTER-LIGAND FREE ENERGY PREDICTED BY IDOCK:   -5.04 KCAL/MOL
REMARK 924 INTRA-LIGAND FREE ENERGY PREDICTED BY IDOCK:   -1.39 KCAL/MOL
REMARK 927      BINDING AFFINITY PREDICTED BY RF-SCORE:    0.00 PKD
ROOT
HETATM    1  C   UNL     1      -6.676  11.045  66.846  1.00  0.00    -0.120 C  
HETATM    2  C   UNL     1      -8.140  10.749  67.139  1.00  0.00    -0.124 C  
ENDROOT
BRANCH   2   3
HETATM    3  C   UNL     1      -8.395  10.386  68.617  1.00  0.00    -0.127 C  
BRANCH   3   4
HETATM    4  N   UNL     1      -8.747   8.973  68.911  1.00  0.00    -0.134 NA 
BRANCH   4   5
HETATM    5  C   UNL     1     -10.210   8.824  69.278  1.00  0.00    -0.210 C  
BRANCH   5   6
HETATM    6  C   UNL     1     -10.840   7.692  68.459  1.00  0.00     0.040 C  
HETATM    7  H   UNL     1     -11.086   7.172  66.618  1.00  0.00     0.000 HD 
HETATM    8  O   UNL     1     -10.695   7.874  67.126  1.00  0.00    -0.326 OA 
BRANCH   6   9
HETATM    9  N   UNL     1     -11.456   6.701  69.003  1.00  0.00    -0.615 NA 
HETATM   10  H   UNL     1     -12.197   6.240  68.476  1.00  0.00     0.000 HD 
BRANCH   9  11
HETATM   11  C   UNL     1     -11.149   6.222  70.301  1.00  0.00    -0.364 A  
HETATM   12  C   UNL     1     -11.882   6.557  71.468  1.00  0.00    -0.386 A  
HETATM   13  C   UNL     1     -11.567   5.948  72.696  1.00  0.00    -0.289 A  
HETATM   14  C   UNL     1     -12.987   7.571  71.512  1.00  0.00    -0.400 C  
HETATM   15  C   UNL     1     -10.589   4.969  72.783  1.00  0.00    -0.274 A  
HETATM   16  C   UNL     1      -9.881   4.608  71.644  1.00  0.00    -0.253 A  
HETATM   17  C   UNL     1     -10.142   5.230  70.409  1.00  0.00    -0.324 A  
HETATM   18  C   UNL     1      -9.323   4.804  69.216  1.00  0.00    -0.196 C  
ENDBRANCH   9  11
ENDBRANCH   6   9
ENDBRANCH   5   6
BRANCH   5  19
HETATM   19  C   UNL     1     -11.089  10.085  69.049  1.00  0.00    -0.221 C  
HETATM   20  C   UNL     1     -11.773  10.650  70.296  1.00  0.00    -0.433 C  
ENDBRANCH   5  19
ENDBRANCH   4   5
BRANCH   4  21
HETATM   21  C   UNL     1      -7.860   8.425  69.972  1.00  0.00    -0.103 C  
HETATM   22  C   UNL     1      -8.383   8.424  71.409  1.00  0.00    -0.182 C  
ENDBRANCH   4  21
ENDBRANCH   3   4
ENDBRANCH   2   3
TORSDOF 8
ENDMDL
MODEL      193
REMARK 921   NORMALIZED FREE ENERGY PREDICTED BY IDOCK:   -3.72 KCAL/MOL
REMARK 922        TOTAL FREE ENERGY PREDICTED BY IDOCK:   -6.43 KCAL/MOL
REMARK 923 INTER-LIGAND FREE ENERGY PREDICTED BY IDOCK:   -5.50 KCAL/MOL
REMARK 924 INTRA-LIGAND FREE ENERGY PREDICTED BY IDOCK:   -0.93 KCAL/MOL
REMARK 927      BINDING AFFINITY PREDICTED BY RF-SCORE:    0.00 PKD
ROOT
HETATM    1  C   UNL     1     -11.241  12.610  63.852  1.00  0.00    -0.497 C  
HETATM    2  C   UNL     1     -10.303  11.413  63.911  1.00  0.00    -0.434 C  
ENDROOT
BRANCH   2   3
HETATM    3  C   UNL     1     -10.435  10.610  65.223  1.00  0.00    -0.194 C  
BRANCH   3   4
HETATM    4  N   UNL     1      -9.176  10.123  65.843  1.00  0.00    -0.154 NA 
BRANCH   4   5
HETATM    5  C   UNL     1      -8.857  10.866  67.124  1.00  0.00    -0.135 C  
BRANCH   5   6
HETATM    6  C   UNL     1      -9.047   9.935  68.327  1.00  0.00    -0.122 C  
HETATM    7  H   UNL     1      -9.180   8.052  68.720  1.00  0.00     0.000 HD 
HETATM    8  O   UNL     1      -9.063   8.629  67.974  1.00  0.00    -0.140 OA 
BRANCH   6   9
HETATM    9  N   UNL     1      -9.197  10.374  69.528  1.00  0.00    -0.373 NA 
HETATM   10  H   UNL     1      -8.619  11.156  69.837  1.00  0.00     0.000 HD 
BRANCH   9  11
HETATM   11  C   UNL     1     -10.128   9.819  70.440  1.00  0.00    -0.252 A  
HETATM   12  C   UNL     1     -11.525  10.060  70.398  1.00  0.00    -0.389 A  
HETATM   13  C   UNL     1     -12.383   9.380  71.281  1.00  0.00    -0.422 A  
HETATM   14  C   UNL     1     -12.187  11.042  69.478  1.00  0.00    -0.352 C  
HETATM   15  C   UNL     1     -11.900   8.421  72.157  1.00  0.00    -0.441 A  
HETATM   16  C   UNL     1     -10.539   8.151  72.192  1.00  0.00    -0.358 A  
HETATM   17  C   UNL     1      -9.648   8.846  71.353  1.00  0.00    -0.359 A  
HETATM   18  C   UNL     1      -8.179   8.517  71.455  1.00  0.00    -0.199 C  
ENDBRANCH   9  11
ENDBRANCH   6   9
ENDBRANCH   5   6
BRANCH   5  19
HETATM   19  C   UNL     1      -9.719  12.131  67.397  1.00  0.00    -0.180 C  
HETATM   20  C   UNL     1      -9.095  13.461  66.970  1.00  0.00    -0.245 C  
ENDBRANCH   5  19
ENDBRANCH   4   5
BRANCH   4  21
HETATM   21  C   UNL     1      -8.052  10.205  64.871  1.00  0.00    -0.153 C  
HETATM   22  C   UNL     1      -7.453   8.893  64.361  1.00  0.00    -0.106 C  
ENDBRANCH   4  21
ENDBRANCH   3   4
ENDBRANCH   2   3
TORSDOF 8
ENDMDL
MODEL      194
REMARK 921   NORMALIZED FREE ENERGY PREDICTED BY IDOCK:   -3.71 KCAL/MOL
REMARK 922        TOTAL FREE ENERGY PREDICTED BY IDOCK:   -6.42 KCAL/MOL
REMARK 923 INTER-LIGAND FREE ENERGY PREDICTED BY IDOCK:   -5.74 KCAL/MOL
REMARK 924 INTRA-LIGAND FREE ENERGY PREDICTED BY IDOCK:   -0.68 KCAL/MOL
REMARK 927      BINDING AFFINITY PREDICTED BY RF-SCORE:    0.00 PKD
ROOT
HETATM    1  C   UNL     1      -6.701  10.337  67.304  1.00  0.00    -0.073 C  
HETATM    2  C   UNL     1      -7.649  11.162  66.446  1.00  0.00    -0.109 C  
ENDROOT
BRANCH   2   3
HETATM    3  C   UNL     1      -8.207  12.397  67.184  1.00  0.00    -0.176 C  
BRANCH   3   4
HETATM    4  N   UNL     1      -9.657  12.677  67.025  1.00  0.00    -0.213 NA 
BRANCH   4   5
HETATM    5  C   UNL     1     -10.407  12.513  68.331  1.00  0.00    -0.230 C  
BRANCH   5   6
HETATM    6  C   UNL     1     -10.820  11.048  68.516  1.00  0.00    -0.213 C  
HETATM    7  H   UNL     1     -12.402   9.949  68.443  1.00  0.00     0.000 HD 
HETATM    8  O   UNL     1     -12.146  10.857  68.329  1.00  0.00    -0.562 OA 
BRANCH   6   9
HETATM    9  N   UNL     1      -9.982  10.126  68.838  1.00  0.00    -0.189 NA 
HETATM   10  H   UNL     1      -8.990  10.359  68.871  1.00  0.00     0.000 HD 
BRANCH   9  11
HETATM   11  C   UNL     1     -10.377   8.801  69.149  1.00  0.00    -0.217 A  
HETATM   12  C   UNL     1     -10.882   8.395  70.410  1.00  0.00    -0.246 A  
HETATM   13  C   UNL     1     -11.347   7.081  70.593  1.00  0.00    -0.349 A  
HETATM   14  C   UNL     1     -10.932   9.275  71.625  1.00  0.00    -0.433 C  
HETATM   15  C   UNL     1     -11.387   6.180  69.540  1.00  0.00    -0.426 A  
HETATM   16  C   UNL     1     -10.924   6.569  68.290  1.00  0.00    -0.362 A  
HETATM   17  C   UNL     1     -10.409   7.863  68.086  1.00  0.00    -0.249 A  
HETATM   18  C   UNL     1      -9.905   8.214  66.709  1.00  0.00    -0.329 C  
ENDBRANCH   9  11
ENDBRANCH   6   9
ENDBRANCH   5   6
BRANCH   5  19
HETATM   19  C   UNL     1     -11.699  13.364  68.473  1.00  0.00    -0.392 C  
HETATM   20  C   UNL     1     -11.941  13.975  69.855  1.00  0.00    -0.399 C  
ENDBRANCH   5  19
ENDBRANCH   4   5
BRANCH   4  21
HETATM   21  C   UNL     1     -10.237  11.823  65.952  1.00  0.00    -0.237 C  
HETATM   22  C   UNL     1     -10.925  12.522  64.779  1.00  0.00    -0.339 C  
ENDBRANCH   4  21
ENDBRANCH   3   4
ENDBRANCH   2   3
TORSDOF 8
ENDMDL
MODEL      195
REMARK 921   NORMALIZED FREE ENERGY PREDICTED BY IDOCK:   -3.69 KCAL/MOL
REMARK 922        TOTAL FREE ENERGY PREDICTED BY IDOCK:   -6.39 KCAL/MOL
REMARK 923 INTER-LIGAND FREE ENERGY PREDICTED BY IDOCK:   -5.37 KCAL/MOL
REMARK 924 INTRA-LIGAND FREE ENERGY PREDICTED BY IDOCK:   -1.02 KCAL/MOL
REMARK 927      BINDING AFFINITY PREDICTED BY RF-SCORE:    0.00 PKD
ROOT
HETATM    1  C   UNL     1     -11.201   6.395  68.069  1.00  0.00    -0.260 C  
HETATM    2  C   UNL     1     -10.547   5.964  69.374  1.00  0.00    -0.379 C  
ENDROOT
BRANCH   2   3
HETATM    3  C   UNL     1     -11.380   6.343  70.616  1.00  0.00    -0.357 C  
BRANCH   3   4
HETATM    4  N   UNL     1     -11.322   7.760  71.057  1.00  0.00    -0.268 NA 
BRANCH   4   5
HETATM    5  C   UNL     1     -10.244   7.980  72.099  1.00  0.00    -0.244 C  
BRANCH   5   6
HETATM    6  C   UNL     1      -9.044   8.692  71.465  1.00  0.00    -0.239 C  
HETATM    7  H   UNL     1      -7.136   8.480  71.290  1.00  0.00     0.000 HD 
HETATM    8  O   UNL     1      -7.879   8.038  71.683  1.00  0.00    -0.088 OA 
BRANCH   6   9
HETATM    9  N   UNL     1      -9.155   9.802  70.823  1.00  0.00    -0.354 NA 
HETATM   10  H   UNL     1      -9.005  10.675  71.329  1.00  0.00     0.000 HD 
BRANCH   9  11
HETATM   11  C   UNL     1      -9.476   9.866  69.444  1.00  0.00    -0.213 A  
HETATM   12  C   UNL     1      -8.744   9.209  68.424  1.00  0.00    -0.129 A  
HETATM   13  C   UNL     1      -9.201   9.244  67.095  1.00  0.00    -0.157 A  
HETATM   14  C   UNL     1      -7.452   8.477  68.646  1.00  0.00    -0.093 C  
HETATM   15  C   UNL     1     -10.398   9.857  66.763  1.00  0.00    -0.285 A  
HETATM   16  C   UNL     1     -11.144  10.481  67.754  1.00  0.00    -0.382 A  
HETATM   17  C   UNL     1     -10.691  10.503  69.087  1.00  0.00    -0.266 A  
HETATM   18  C   UNL     1     -11.541  11.215  70.110  1.00  0.00    -0.410 C  
ENDBRANCH   9  11
ENDBRANCH   6   9
ENDBRANCH   5   6
BRANCH   5  19
HETATM   19  C   UNL     1      -9.695   6.693  72.776  1.00  0.00    -0.166 C  
HETATM   20  C   UNL     1     -10.204   6.421  74.192  1.00  0.00    -0.361 C  
ENDBRANCH   5  19
ENDBRANCH   4   5
BRANCH   4  21
HETATM   21  C   UNL     1     -12.654   8.208  71.547  1.00  0.00    -0.304 C  
HETATM   22  C   UNL     1     -13.829   7.240  71.404  1.00  0.00    -0.416 C  
ENDBRANCH   4  21
ENDBRANCH   3   4
ENDBRANCH   2   3
TORSDOF 8
ENDMDL
MODEL      196
REMARK 921   NORMALIZED FREE ENERGY PREDICTED BY IDOCK:   -3.69 KCAL/MOL
REMARK 922        TOTAL FREE ENERGY PREDICTED BY IDOCK:   -6.39 KCAL/MOL
REMARK 923 INTER-LIGAND FREE ENERGY PREDICTED BY IDOCK:   -5.92 KCAL/MOL
REMARK 924 INTRA-LIGAND FREE ENERGY PREDICTED BY IDOCK:   -0.47 KCAL/MOL
REMARK 927      BINDING AFFINITY PREDICTED BY RF-SCORE:    0.00 PKD
ROOT
HETATM    1  C   UNL     1     -12.888  15.187  70.710  1.00  0.00    -0.473 C  
HETATM    2  C   UNL     1     -12.274  14.215  69.713  1.00  0.00    -0.397 C  
ENDROOT
BRANCH   2   3
HETATM    3  C   UNL     1     -11.865  14.893  68.388  1.00  0.00    -0.278 C  
BRANCH   3   4
HETATM    4  N   UNL     1     -10.851  14.191  67.559  1.00  0.00    -0.272 NA 
BRANCH   4   5
HETATM    5  C   UNL     1      -9.439  14.543  67.983  1.00  0.00    -0.209 C  
BRANCH   5   6
HETATM    6  C   UNL     1      -9.304  16.063  68.135  1.00  0.00    -0.200 C  
HETATM    7  H   UNL     1      -9.415  17.417  69.502  1.00  0.00     0.000 HD 
HETATM    8  O   UNL     1      -9.499  16.476  69.409  1.00  0.00    -0.195 OA 
BRANCH   6   9
HETATM    9  N   UNL     1      -9.058  16.841  67.139  1.00  0.00    -0.208 NA 
HETATM   10  H   UNL     1      -9.316  16.531  66.203  1.00  0.00     0.000 HD 
BRANCH   9  11
HETATM   11  C   UNL     1      -8.443  18.109  67.286  1.00  0.00    -0.242 A  
HETATM   12  C   UNL     1      -7.042  18.314  67.344  1.00  0.00    -0.207 A  
HETATM   13  C   UNL     1      -6.522  19.620  67.384  1.00  0.00    -0.216 A  
HETATM   14  C   UNL     1      -6.026  17.211  67.402  1.00  0.00    -0.169 C  
HETATM   15  C   UNL     1      -7.352  20.727  67.301  1.00  0.00    -0.397 A  
HETATM   16  C   UNL     1      -8.726  20.545  67.215  1.00  0.00    -0.387 A  
HETATM   17  C   UNL     1      -9.281  19.251  67.218  1.00  0.00    -0.357 A  
HETATM   18  C   UNL     1     -10.782  19.126  67.141  1.00  0.00    -0.567 C  
ENDBRANCH   9  11
ENDBRANCH   6   9
ENDBRANCH   5   6
BRANCH   5  19
HETATM   19  C   UNL     1      -8.315  14.089  67.011  1.00  0.00    -0.127 C  
HETATM   20  C   UNL     1      -6.940  13.872  67.645  1.00  0.00    -0.189 C  
ENDBRANCH   5  19
ENDBRANCH   4   5
BRANCH   4  21
HETATM   21  C   UNL     1     -11.073  14.473  66.115  1.00  0.00    -0.334 C  
HETATM   22  C   UNL     1     -12.433  14.107  65.518  1.00  0.00    -0.495 C  
ENDBRANCH   4  21
ENDBRANCH   3   4
ENDBRANCH   2   3
TORSDOF 8
ENDMDL
MODEL      197
REMARK 921   NORMALIZED FREE ENERGY PREDICTED BY IDOCK:   -3.69 KCAL/MOL
REMARK 922        TOTAL FREE ENERGY PREDICTED BY IDOCK:   -6.39 KCAL/MOL
REMARK 923 INTER-LIGAND FREE ENERGY PREDICTED BY IDOCK:   -5.34 KCAL/MOL
REMARK 924 INTRA-LIGAND FREE ENERGY PREDICTED BY IDOCK:   -1.05 KCAL/MOL
REMARK 927      BINDING AFFINITY PREDICTED BY RF-SCORE:    0.00 PKD
ROOT
HETATM    1  C   UNL     1      -8.727   4.807  72.768  1.00  0.00    -0.114 C  
HETATM    2  C   UNL     1     -10.074   4.846  72.061  1.00  0.00    -0.256 C  
ENDROOT
BRANCH   2   3
HETATM    3  C   UNL     1     -10.004   5.517  70.672  1.00  0.00    -0.207 C  
BRANCH   3   4
HETATM    4  N   UNL     1     -10.996   6.586  70.392  1.00  0.00    -0.273 NA 
BRANCH   4   5
HETATM    5  C   UNL     1     -10.325   7.917  70.118  1.00  0.00    -0.215 C  
BRANCH   5   6
HETATM    6  C   UNL     1     -10.314   8.195  68.610  1.00  0.00    -0.200 C  
HETATM    7  H   UNL     1      -9.308   7.718  67.037  1.00  0.00     0.000 HD 
HETATM    8  O   UNL     1      -9.314   7.545  67.971  1.00  0.00    -0.139 OA 
BRANCH   6   9
HETATM    9  N   UNL     1     -11.159   8.984  68.044  1.00  0.00    -0.477 NA 
HETATM   10  H   UNL     1     -12.001   8.582  67.633  1.00  0.00     0.000 HD 
BRANCH   9  11
HETATM   11  C   UNL     1     -10.972  10.387  67.968  1.00  0.00    -0.291 A  
HETATM   12  C   UNL     1     -11.284  11.291  69.014  1.00  0.00    -0.321 A  
HETATM   13  C   UNL     1     -10.964  12.655  68.885  1.00  0.00    -0.273 A  
HETATM   14  C   UNL     1     -11.986  10.907  70.283  1.00  0.00    -0.448 C  
HETATM   15  C   UNL     1     -10.283  13.131  67.776  1.00  0.00    -0.231 A  
HETATM   16  C   UNL     1      -9.943  12.255  66.754  1.00  0.00    -0.217 A  
HETATM   17  C   UNL     1     -10.289  10.892  66.832  1.00  0.00    -0.285 A  
HETATM   18  C   UNL     1      -9.906   9.999  65.679  1.00  0.00    -0.363 C  
ENDBRANCH   9  11
ENDBRANCH   6   9
ENDBRANCH   5   6
BRANCH   5  19
HETATM   19  C   UNL     1      -8.854   8.037  70.606  1.00  0.00    -0.143 C  
HETATM   20  C   UNL     1      -8.258   9.446  70.569  1.00  0.00    -0.221 C  
ENDBRANCH   5  19
ENDBRANCH   4   5
BRANCH   4  21
HETATM   21  C   UNL     1     -11.979   6.690  71.504  1.00  0.00    -0.352 C  
HETATM   22  C   UNL     1     -13.260   7.487  71.253  1.00  0.00    -0.313 C  
ENDBRANCH   4  21
ENDBRANCH   3   4
ENDBRANCH   2   3
TORSDOF 8
ENDMDL
MODEL      198
REMARK 921   NORMALIZED FREE ENERGY PREDICTED BY IDOCK:   -3.68 KCAL/MOL
REMARK 922        TOTAL FREE ENERGY PREDICTED BY IDOCK:   -6.37 KCAL/MOL
REMARK 923 INTER-LIGAND FREE ENERGY PREDICTED BY IDOCK:   -5.76 KCAL/MOL
REMARK 924 INTRA-LIGAND FREE ENERGY PREDICTED BY IDOCK:   -0.61 KCAL/MOL
REMARK 927      BINDING AFFINITY PREDICTED BY RF-SCORE:    0.00 PKD
ROOT
HETATM    1  C   UNL     1     -10.280  17.092  66.635  1.00  0.00    -0.319 C  
HETATM    2  C   UNL     1      -9.466  15.995  65.963  1.00  0.00    -0.384 C  
ENDROOT
BRANCH   2   3
HETATM    3  C   UNL     1     -10.339  14.835  65.439  1.00  0.00    -0.386 C  
BRANCH   3   4
HETATM    4  N   UNL     1     -11.507  14.445  66.271  1.00  0.00    -0.351 NA 
BRANCH   4   5
HETATM    5  C   UNL     1     -11.082  13.693  67.516  1.00  0.00    -0.277 C  
BRANCH   5   6
HETATM    6  C   UNL     1     -11.038  12.188  67.228  1.00  0.00    -0.287 C  
HETATM    7  H   UNL     1     -12.075  10.598  67.562  1.00  0.00     0.000 HD 
HETATM    8  O   UNL     1     -12.103  11.531  67.741  1.00  0.00    -0.626 OA 
BRANCH   6   9
HETATM    9  N   UNL     1     -10.070  11.633  66.587  1.00  0.00    -0.205 NA 
HETATM   10  H   UNL     1     -10.010  11.772  65.578  1.00  0.00     0.000 HD 
BRANCH   9  11
HETATM   11  C   UNL     1      -9.083  10.836  67.220  1.00  0.00    -0.144 A  
HETATM   12  C   UNL     1      -9.194   9.437  67.417  1.00  0.00    -0.145 A  
HETATM   13  C   UNL     1      -8.116   8.715  67.960  1.00  0.00    -0.111 A  
HETATM   14  C   UNL     1     -10.425   8.634  67.115  1.00  0.00    -0.360 C  
HETATM   15  C   UNL     1      -6.910   9.333  68.250  1.00  0.00    -0.064 A  
HETATM   16  C   UNL     1      -6.773  10.698  68.036  1.00  0.00    -0.064 A  
HETATM   17  C   UNL     1      -7.848  11.458  67.536  1.00  0.00    -0.126 A  
HETATM   18  C   UNL     1      -7.638  12.939  67.345  1.00  0.00    -0.150 C  
ENDBRANCH   9  11
ENDBRANCH   6   9
ENDBRANCH   5   6
BRANCH   5  19
HETATM   19  C   UNL     1     -11.997  13.884  68.758  1.00  0.00    -0.393 C  
HETATM   20  C   UNL     1     -11.792  15.184  69.538  1.00  0.00    -0.358 C  
ENDBRANCH   5  19
ENDBRANCH   4   5
BRANCH   4  21
HETATM   21  C   UNL     1     -12.480  13.659  65.465  1.00  0.00    -0.503 C  
HETATM   22  C   UNL     1     -12.160  13.428  63.987  1.00  0.00    -0.506 C  
ENDBRANCH   4  21
ENDBRANCH   3   4
ENDBRANCH   2   3
TORSDOF 8
ENDMDL
MODEL      199
REMARK 921   NORMALIZED FREE ENERGY PREDICTED BY IDOCK:   -3.66 KCAL/MOL
REMARK 922        TOTAL FREE ENERGY PREDICTED BY IDOCK:   -6.35 KCAL/MOL
REMARK 923 INTER-LIGAND FREE ENERGY PREDICTED BY IDOCK:   -5.80 KCAL/MOL
REMARK 924 INTRA-LIGAND FREE ENERGY PREDICTED BY IDOCK:   -0.54 KCAL/MOL
REMARK 927      BINDING AFFINITY PREDICTED BY RF-SCORE:    0.00 PKD
ROOT
HETATM    1  C   UNL     1     -12.589  11.019  70.241  1.00  0.00    -0.321 C  
HETATM    2  C   UNL     1     -11.434  11.546  69.402  1.00  0.00    -0.376 C  
ENDROOT
BRANCH   2   3
HETATM    3  C   UNL     1     -11.901  12.425  68.222  1.00  0.00    -0.309 C  
BRANCH   3   4
HETATM    4  N   UNL     1     -11.065  13.608  67.893  1.00  0.00    -0.253 NA 
BRANCH   4   5
HETATM    5  C   UNL     1      -9.749  13.205  67.258  1.00  0.00    -0.230 C  
BRANCH   5   6
HETATM    6  C   UNL     1      -8.731  14.341  67.402  1.00  0.00    -0.209 C  
HETATM    7  H   UNL     1      -7.433  14.997  68.668  1.00  0.00     0.000 HD 
HETATM    8  O   UNL     1      -8.064  14.293  68.579  1.00  0.00    -0.138 OA 
BRANCH   6   9
HETATM    9  N   UNL     1      -8.565  15.244  66.500  1.00  0.00    -0.392 NA 
HETATM   10  H   UNL     1      -8.079  14.990  65.640  1.00  0.00     0.000 HD 
BRANCH   9  11
HETATM   11  C   UNL     1      -9.029  16.575  66.648  1.00  0.00    -0.255 A  
HETATM   12  C   UNL     1      -8.352  17.578  67.385  1.00  0.00    -0.220 A  
HETATM   13  C   UNL     1      -8.835  18.899  67.387  1.00  0.00    -0.293 A  
HETATM   14  C   UNL     1      -7.133  17.333  68.226  1.00  0.00    -0.197 C  
HETATM   15  C   UNL     1      -9.933  19.263  66.623  1.00  0.00    -0.461 A  
HETATM   16  C   UNL     1     -10.592  18.300  65.870  1.00  0.00    -0.274 A  
HETATM   17  C   UNL     1     -10.160  16.960  65.883  1.00  0.00    -0.302 A  
HETATM   18  C   UNL     1     -10.933  15.961  65.059  1.00  0.00    -0.426 C  
ENDBRANCH   9  11
ENDBRANCH   6   9
ENDBRANCH   5   6
BRANCH   5  19
HETATM   19  C   UNL     1      -9.815  12.852  65.746  1.00  0.00    -0.216 C  
HETATM   20  C   UNL     1      -9.902  11.361  65.417  1.00  0.00    -0.277 C  
ENDBRANCH   5  19
ENDBRANCH   4   5
BRANCH   4  21
HETATM   21  C   UNL     1     -10.853  14.449  69.102  1.00  0.00    -0.257 C  
HETATM   22  C   UNL     1     -11.613  15.772  69.192  1.00  0.00    -0.399 C  
ENDBRANCH   4  21
ENDBRANCH   3   4
ENDBRANCH   2   3
TORSDOF 8
ENDMDL
MODEL      200
REMARK 921   NORMALIZED FREE ENERGY PREDICTED BY IDOCK:   -3.65 KCAL/MOL
REMARK 922        TOTAL FREE ENERGY PREDICTED BY IDOCK:   -6.32 KCAL/MOL
REMARK 923 INTER-LIGAND FREE ENERGY PREDICTED BY IDOCK:   -5.86 KCAL/MOL
REMARK 924 INTRA-LIGAND FREE ENERGY PREDICTED BY IDOCK:   -0.47 KCAL/MOL
REMARK 927      BINDING AFFINITY PREDICTED BY RF-SCORE:    0.00 PKD
ROOT
HETATM    1  C   UNL     1     -12.568  15.262  70.485  1.00  0.00    -0.450 C  
HETATM    2  C   UNL     1     -12.181  13.980  69.763  1.00  0.00    -0.396 C  
ENDROOT
BRANCH   2   3
HETATM    3  C   UNL     1     -11.983  14.182  68.246  1.00  0.00    -0.332 C  
BRANCH   3   4
HETATM    4  N   UNL     1     -11.178  13.157  67.531  1.00  0.00    -0.271 NA 
BRANCH   4   5
HETATM    5  C   UNL     1      -9.693  13.342  67.771  1.00  0.00    -0.217 C  
BRANCH   5   6
HETATM    6  C   UNL     1      -9.326  14.825  67.649  1.00  0.00    -0.195 C  
HETATM    7  H   UNL     1      -8.831  16.108  66.298  1.00  0.00     0.000 HD 
HETATM    8  O   UNL     1      -9.059  15.189  66.373  1.00  0.00    -0.276 OA 
BRANCH   6   9
HETATM    9  N   UNL     1      -9.262  15.611  68.667  1.00  0.00    -0.195 NA 
HETATM   10  H   UNL     1      -9.720  15.326  69.532  1.00  0.00     0.000 HD 
BRANCH   9  11
HETATM   11  C   UNL     1      -8.582  16.854  68.639  1.00  0.00    -0.267 A  
HETATM   12  C   UNL     1      -9.196  18.091  68.321  1.00  0.00    -0.298 A  
HETATM   13  C   UNL     1      -8.464  19.288  68.423  1.00  0.00    -0.386 A  
HETATM   14  C   UNL     1     -10.608  18.235  67.832  1.00  0.00    -0.392 C  
HETATM   15  C   UNL     1      -7.161  19.295  68.895  1.00  0.00    -0.393 A  
HETATM   16  C   UNL     1      -6.553  18.095  69.240  1.00  0.00    -0.238 A  
HETATM   17  C   UNL     1      -7.244  16.876  69.106  1.00  0.00    -0.209 A  
HETATM   18  C   UNL     1      -6.517  15.608  69.479  1.00  0.00    -0.173 C  
ENDBRANCH   9  11
ENDBRANCH   6   9
ENDBRANCH   5   6
BRANCH   5  19
HETATM   19  C   UNL     1      -8.757  12.568  66.803  1.00  0.00    -0.147 C  
HETATM   20  C   UNL     1      -7.889  11.484  67.446  1.00  0.00    -0.143 C  
ENDBRANCH   5  19
ENDBRANCH   4   5
BRANCH   4  21
HETATM   21  C   UNL     1     -11.501  13.162  66.078  1.00  0.00    -0.335 C  
HETATM   22  C   UNL     1     -12.622  14.086  65.600  1.00  0.00    -0.542 C  
ENDBRANCH   4  21
ENDBRANCH   3   4
ENDBRANCH   2   3
TORSDOF 8
ENDMDL
MODEL      201
REMARK 921   NORMALIZED FREE ENERGY PREDICTED BY IDOCK:   -3.64 KCAL/MOL
REMARK 922        TOTAL FREE ENERGY PREDICTED BY IDOCK:   -6.32 KCAL/MOL
REMARK 923 INTER-LIGAND FREE ENERGY PREDICTED BY IDOCK:   -5.84 KCAL/MOL
REMARK 924 INTRA-LIGAND FREE ENERGY PREDICTED BY IDOCK:   -0.48 KCAL/MOL
REMARK 927      BINDING AFFINITY PREDICTED BY RF-SCORE:    0.00 PKD
ROOT
HETATM    1  C   UNL     1     -11.429  16.303  68.627  1.00  0.00    -0.288 C  
HETATM    2  C   UNL     1     -10.810  15.172  67.818  1.00  0.00    -0.292 C  
ENDROOT
BRANCH   2   3
HETATM    3  C   UNL     1      -9.976  14.203  68.682  1.00  0.00    -0.222 C  
BRANCH   3   4
HETATM    4  N   UNL     1      -9.790  12.825  68.157  1.00  0.00    -0.222 NA 
BRANCH   4   5
HETATM    5  C   UNL     1     -10.573  11.808  68.962  1.00  0.00    -0.136 C  
BRANCH   5   6
HETATM    6  C   UNL     1     -10.947  10.616  68.074  1.00  0.00    -0.282 C  
HETATM    7  H   UNL     1     -10.756   8.698  68.033  1.00  0.00     0.000 HD 
HETATM    8  O   UNL     1     -10.524   9.436  68.584  1.00  0.00    -0.202 OA 
BRANCH   6   9
HETATM    9  N   UNL     1     -11.574  10.752  66.958  1.00  0.00    -0.219 NA 
HETATM   10  H   UNL     1     -12.587  10.640  66.951  1.00  0.00     0.000 HD 
BRANCH   9  11
HETATM   11  C   UNL     1     -10.918  11.052  65.738  1.00  0.00    -0.032 A  
HETATM   12  C   UNL     1      -9.929  10.230  65.142  1.00  0.00    -0.395 A  
HETATM   13  C   UNL     1      -9.411  10.557  63.876  1.00  0.00    -0.338 A  
HETATM   14  C   UNL     1      -9.339   9.011  65.788  1.00  0.00    -0.302 C  
HETATM   15  C   UNL     1      -9.897  11.638  63.158  1.00  0.00    -0.407 A  
HETATM   16  C   UNL     1     -10.888  12.437  63.713  1.00  0.00    -0.500 A  
HETATM   17  C   UNL     1     -11.394  12.163  64.998  1.00  0.00    -0.379 A  
HETATM   18  C   UNL     1     -12.455  13.083  65.548  1.00  0.00    -0.496 C  
ENDBRANCH   9  11
ENDBRANCH   6   9
ENDBRANCH   5   6
BRANCH   5  19
HETATM   19  C   UNL     1     -11.894  12.327  69.595  1.00  0.00    -0.393 C  
HETATM   20  C   UNL     1     -12.465  11.474  70.729  1.00  0.00    -0.444 C  
ENDBRANCH   5  19
ENDBRANCH   4   5
BRANCH   4  21
HETATM   21  C   UNL     1      -8.344  12.481  68.101  1.00  0.00    -0.175 C  
HETATM   22  C   UNL     1      -7.345  13.503  68.645  1.00  0.00    -0.112 C  
ENDBRANCH   4  21
ENDBRANCH   3   4
ENDBRANCH   2   3
TORSDOF 8
ENDMDL
MODEL      202
REMARK 921   NORMALIZED FREE ENERGY PREDICTED BY IDOCK:   -3.64 KCAL/MOL
REMARK 922        TOTAL FREE ENERGY PREDICTED BY IDOCK:   -6.31 KCAL/MOL
REMARK 923 INTER-LIGAND FREE ENERGY PREDICTED BY IDOCK:   -5.32 KCAL/MOL
REMARK 924 INTRA-LIGAND FREE ENERGY PREDICTED BY IDOCK:   -0.99 KCAL/MOL
REMARK 927      BINDING AFFINITY PREDICTED BY RF-SCORE:    0.00 PKD
ROOT
HETATM    1  C   UNL     1      -7.398   6.665  70.062  1.00  0.00    -0.089 C  
HETATM    2  C   UNL     1      -7.627   8.134  70.387  1.00  0.00    -0.076 C  
ENDROOT
BRANCH   2   3
HETATM    3  C   UNL     1      -9.102   8.455  70.709  1.00  0.00    -0.156 C  
BRANCH   3   4
HETATM    4  N   UNL     1     -10.122   7.965  69.747  1.00  0.00    -0.195 NA 
BRANCH   4   5
HETATM    5  C   UNL     1     -10.846   9.108  69.065  1.00  0.00    -0.090 C  
BRANCH   5   6
HETATM    6  C   UNL     1     -10.460   9.160  67.583  1.00  0.00    -0.261 C  
HETATM    7  H   UNL     1     -10.595   8.079  65.992  1.00  0.00     0.000 HD 
HETATM    8  O   UNL     1     -10.834   8.046  66.911  1.00  0.00    -0.267 OA 
BRANCH   6   9
HETATM    9  N   UNL     1      -9.829  10.155  67.064  1.00  0.00    -0.183 NA 
HETATM   10  H   UNL     1      -9.016  10.525  67.556  1.00  0.00     0.000 HD 
BRANCH   9  11
HETATM   11  C   UNL     1     -10.213  10.757  65.840  1.00  0.00    -0.259 A  
HETATM   12  C   UNL     1     -11.122  11.840  65.735  1.00  0.00    -0.351 A  
HETATM   13  C   UNL     1     -11.360  12.441  64.486  1.00  0.00    -0.381 A  
HETATM   14  C   UNL     1     -11.910  12.398  66.884  1.00  0.00    -0.377 C  
HETATM   15  C   UNL     1     -10.670  12.041  63.353  1.00  0.00    -0.475 A  
HETATM   16  C   UNL     1      -9.753  11.002  63.443  1.00  0.00    -0.383 A  
HETATM   17  C   UNL     1      -9.526  10.349  64.669  1.00  0.00    -0.336 A  
HETATM   18  C   UNL     1      -8.531   9.216  64.691  1.00  0.00    -0.197 C  
ENDBRANCH   9  11
ENDBRANCH   6   9
ENDBRANCH   5   6
BRANCH   5  19
HETATM   19  C   UNL     1     -10.567  10.521  69.650  1.00  0.00    -0.281 C  
HETATM   20  C   UNL     1     -11.761  11.210  70.313  1.00  0.00    -0.431 C  
ENDBRANCH   5  19
ENDBRANCH   4   5
BRANCH   4  21
HETATM   21  C   UNL     1     -11.073   7.041  70.422  1.00  0.00    -0.287 C  
HETATM   22  C   UNL     1     -10.756   6.613  71.855  1.00  0.00    -0.251 C  
ENDBRANCH   4  21
ENDBRANCH   3   4
ENDBRANCH   2   3
TORSDOF 8
ENDMDL
MODEL      203
REMARK 921   NORMALIZED FREE ENERGY PREDICTED BY IDOCK:   -3.63 KCAL/MOL
REMARK 922        TOTAL FREE ENERGY PREDICTED BY IDOCK:   -6.31 KCAL/MOL
REMARK 923 INTER-LIGAND FREE ENERGY PREDICTED BY IDOCK:   -5.38 KCAL/MOL
REMARK 924 INTRA-LIGAND FREE ENERGY PREDICTED BY IDOCK:   -0.92 KCAL/MOL
REMARK 927      BINDING AFFINITY PREDICTED BY RF-SCORE:    0.00 PKD
ROOT
HETATM    1  C   UNL     1     -11.276   6.376  69.641  1.00  0.00    -0.483 C  
HETATM    2  C   UNL     1     -11.227   7.607  70.534  1.00  0.00    -0.275 C  
ENDROOT
BRANCH   2   3
HETATM    3  C   UNL     1     -10.149   8.622  70.099  1.00  0.00    -0.185 C  
BRANCH   3   4
HETATM    4  N   UNL     1     -10.615   9.814  69.344  1.00  0.00    -0.217 NA 
BRANCH   4   5
HETATM    5  C   UNL     1      -9.461  10.556  68.700  1.00  0.00    -0.172 C  
BRANCH   5   6
HETATM    6  C   UNL     1      -9.677  10.643  67.185  1.00  0.00    -0.171 C  
HETATM    7  H   UNL     1     -10.657   9.744  65.788  1.00  0.00     0.000 HD 
HETATM    8  O   UNL     1     -10.523   9.690  66.727  1.00  0.00    -0.230 OA 
BRANCH   6   9
HETATM    9  N   UNL     1      -9.087  11.518  66.448  1.00  0.00    -0.196 NA 
HETATM   10  H   UNL     1      -8.189  11.277  66.030  1.00  0.00     0.000 HD 
BRANCH   9  11
HETATM   11  C   UNL     1      -9.631  12.801  66.191  1.00  0.00    -0.212 A  
HETATM   12  C   UNL     1      -9.327  13.961  66.946  1.00  0.00    -0.265 A  
HETATM   13  C   UNL     1      -9.833  15.212  66.550  1.00  0.00    -0.278 A  
HETATM   14  C   UNL     1      -8.505  13.963  68.202  1.00  0.00    -0.171 C  
HETATM   15  C   UNL     1     -10.577  15.351  65.389  1.00  0.00    -0.430 A  
HETATM   16  C   UNL     1     -10.860  14.230  64.620  1.00  0.00    -0.384 A  
HETATM   17  C   UNL     1     -10.406  12.957  65.014  1.00  0.00    -0.334 A  
HETATM   18  C   UNL     1     -10.766  11.779  64.144  1.00  0.00    -0.410 C  
ENDBRANCH   9  11
ENDBRANCH   6   9
ENDBRANCH   5   6
BRANCH   5  19
HETATM   19  C   UNL     1      -8.056   9.928  68.917  1.00  0.00    -0.105 C  
HETATM   20  C   UNL     1      -7.075  10.767  69.738  1.00  0.00    -0.126 C  
ENDBRANCH   5  19
ENDBRANCH   4   5
BRANCH   4  21
HETATM   21  C   UNL     1     -11.415  10.708  70.224  1.00  0.00    -0.337 C  
HETATM   22  C   UNL     1     -11.817  12.077  69.674  1.00  0.00    -0.401 C  
ENDBRANCH   4  21
ENDBRANCH   3   4
ENDBRANCH   2   3
TORSDOF 8
ENDMDL
MODEL      204
REMARK 921   NORMALIZED FREE ENERGY PREDICTED BY IDOCK:   -3.63 KCAL/MOL
REMARK 922        TOTAL FREE ENERGY PREDICTED BY IDOCK:   -6.30 KCAL/MOL
REMARK 923 INTER-LIGAND FREE ENERGY PREDICTED BY IDOCK:   -5.10 KCAL/MOL
REMARK 924 INTRA-LIGAND FREE ENERGY PREDICTED BY IDOCK:   -1.21 KCAL/MOL
REMARK 927      BINDING AFFINITY PREDICTED BY RF-SCORE:    0.00 PKD
ROOT
HETATM    1  C   UNL     1      -6.884  17.503  68.972  1.00  0.00    -0.242 C  
HETATM    2  C   UNL     1      -8.141  18.255  68.557  1.00  0.00    -0.330 C  
ENDROOT
BRANCH   2   3
HETATM    3  C   UNL     1      -9.245  17.325  68.012  1.00  0.00    -0.256 C  
BRANCH   3   4
HETATM    4  N   UNL     1      -9.292  15.945  68.561  1.00  0.00    -0.200 NA 
BRANCH   4   5
HETATM    5  C   UNL     1      -9.415  14.909  67.462  1.00  0.00    -0.200 C  
BRANCH   5   6
HETATM    6  C   UNL     1      -8.404  13.779  67.696  1.00  0.00    -0.182 C  
HETATM    7  H   UNL     1      -6.498  13.518  67.821  1.00  0.00     0.000 HD 
HETATM    8  O   UNL     1      -7.124  14.217  67.676  1.00  0.00    -0.161 OA 
BRANCH   6   9
HETATM    9  N   UNL     1      -8.760  12.554  67.866  1.00  0.00    -0.171 NA 
HETATM   10  H   UNL     1      -8.831  12.195  68.817  1.00  0.00     0.000 HD 
BRANCH   9  11
HETATM   11  C   UNL     1      -9.057  11.682  66.789  1.00  0.00    -0.186 A  
HETATM   12  C   UNL     1     -10.337  11.559  66.193  1.00  0.00    -0.287 A  
HETATM   13  C   UNL     1     -10.511  10.745  65.059  1.00  0.00    -0.307 A  
HETATM   14  C   UNL     1     -11.579  12.224  66.710  1.00  0.00    -0.434 C  
HETATM   15  C   UNL     1      -9.437  10.104  64.463  1.00  0.00    -0.364 A  
HETATM   16  C   UNL     1      -8.170  10.237  65.016  1.00  0.00    -0.154 A  
HETATM   17  C   UNL     1      -7.970  11.008  66.177  1.00  0.00    -0.129 A  
HETATM   18  C   UNL     1      -6.572  11.093  66.736  1.00  0.00    -0.133 C  
ENDBRANCH   9  11
ENDBRANCH   6   9
ENDBRANCH   5   6
BRANCH   5  19
HETATM   19  C   UNL     1      -9.176  15.431  66.019  1.00  0.00    -0.333 C  
HETATM   20  C   UNL     1     -10.338  15.238  65.043  1.00  0.00    -0.375 C  
ENDBRANCH   5  19
ENDBRANCH   4   5
BRANCH   4  21
HETATM   21  C   UNL     1     -10.391  15.818  69.556  1.00  0.00    -0.272 C  
HETATM   22  C   UNL     1     -11.784  15.453  69.039  1.00  0.00    -0.380 C  
ENDBRANCH   4  21
ENDBRANCH   3   4
ENDBRANCH   2   3
TORSDOF 8
ENDMDL
MODEL      205
REMARK 921   NORMALIZED FREE ENERGY PREDICTED BY IDOCK:   -3.63 KCAL/MOL
REMARK 922        TOTAL FREE ENERGY PREDICTED BY IDOCK:   -6.30 KCAL/MOL
REMARK 923 INTER-LIGAND FREE ENERGY PREDICTED BY IDOCK:   -5.89 KCAL/MOL
REMARK 924 INTRA-LIGAND FREE ENERGY PREDICTED BY IDOCK:   -0.41 KCAL/MOL
REMARK 927      BINDING AFFINITY PREDICTED BY RF-SCORE:    0.00 PKD
ROOT
HETATM    1  C   UNL     1      -7.772   8.405  66.742  1.00  0.00    -0.091 C  
HETATM    2  C   UNL     1      -7.950   9.881  67.070  1.00  0.00    -0.109 C  
ENDROOT
BRANCH   2   3
HETATM    3  C   UNL     1      -9.418  10.345  66.971  1.00  0.00    -0.163 C  
BRANCH   3   4
HETATM    4  N   UNL     1      -9.743  11.320  65.898  1.00  0.00    -0.215 NA 
BRANCH   4   5
HETATM    5  C   UNL     1     -10.696  12.393  66.385  1.00  0.00    -0.247 C  
BRANCH   5   6
HETATM    6  C   UNL     1     -11.085  12.122  67.843  1.00  0.00    -0.245 C  
HETATM    7  H   UNL     1     -12.395  11.134  68.854  1.00  0.00     0.000 HD 
HETATM    8  O   UNL     1     -12.155  11.301  67.950  1.00  0.00    -0.634 OA 
BRANCH   6   9
HETATM    9  N   UNL     1     -10.461  12.651  68.837  1.00  0.00    -0.415 NA 
HETATM   10  H   UNL     1      -9.998  12.035  69.505  1.00  0.00     0.000 HD 
BRANCH   9  11
HETATM   11  C   UNL     1     -10.387  14.051  69.044  1.00  0.00    -0.125 A  
HETATM   12  C   UNL     1      -9.397  14.890  68.475  1.00  0.00    -0.196 A  
HETATM   13  C   UNL     1      -9.468  16.283  68.652  1.00  0.00    -0.228 A  
HETATM   14  C   UNL     1      -8.213  14.395  67.697  1.00  0.00    -0.185 C  
HETATM   15  C   UNL     1     -10.531  16.869  69.322  1.00  0.00    -0.319 A  
HETATM   16  C   UNL     1     -11.526  16.065  69.861  1.00  0.00    -0.327 A  
HETATM   17  C   UNL     1     -11.460  14.664  69.740  1.00  0.00    -0.325 A  
HETATM   18  C   UNL     1     -12.564  13.849  70.365  1.00  0.00    -0.350 C  
ENDBRANCH   9  11
ENDBRANCH   6   9
ENDBRANCH   5   6
BRANCH   5  19
HETATM   19  C   UNL     1     -12.022  12.523  65.585  1.00  0.00    -0.492 C  
HETATM   20  C   UNL     1     -12.711  13.887  65.663  1.00  0.00    -0.534 C  
ENDBRANCH   5  19
ENDBRANCH   4   5
BRANCH   4  21
HETATM   21  C   UNL     1     -10.278  10.617  64.700  1.00  0.00    -0.334 C  
HETATM   22  C   UNL     1      -9.444  10.655  63.419  1.00  0.00    -0.352 C  
ENDBRANCH   4  21
ENDBRANCH   3   4
ENDBRANCH   2   3
TORSDOF 8
ENDMDL
MODEL      206
REMARK 921   NORMALIZED FREE ENERGY PREDICTED BY IDOCK:   -3.63 KCAL/MOL
REMARK 922        TOTAL FREE ENERGY PREDICTED BY IDOCK:   -6.30 KCAL/MOL
REMARK 923 INTER-LIGAND FREE ENERGY PREDICTED BY IDOCK:   -5.92 KCAL/MOL
REMARK 924 INTRA-LIGAND FREE ENERGY PREDICTED BY IDOCK:   -0.38 KCAL/MOL
REMARK 927      BINDING AFFINITY PREDICTED BY RF-SCORE:    0.00 PKD
ROOT
HETATM    1  C   UNL     1      -5.748  19.276  70.233  1.00  0.00    -0.268 C  
HETATM    2  C   UNL     1      -6.656  20.083  69.315  1.00  0.00    -0.346 C  
ENDROOT
BRANCH   2   3
HETATM    3  C   UNL     1      -6.851  19.425  67.933  1.00  0.00    -0.243 C  
BRANCH   3   4
HETATM    4  N   UNL     1      -7.977  18.465  67.798  1.00  0.00    -0.246 NA 
BRANCH   4   5
HETATM    5  C   UNL     1      -7.667  17.375  66.793  1.00  0.00    -0.238 C  
BRANCH   5   6
HETATM    6  C   UNL     1      -8.698  16.246  66.913  1.00  0.00    -0.208 C  
HETATM    7  H   UNL     1     -10.070  15.635  68.121  1.00  0.00     0.000 HD 
HETATM    8  O   UNL     1      -9.431  16.334  68.047  1.00  0.00    -0.219 OA 
BRANCH   6   9
HETATM    9  N   UNL     1      -8.814  15.315  66.032  1.00  0.00    -0.439 NA 
HETATM   10  H   UNL     1      -8.081  15.214  65.330  1.00  0.00     0.000 HD 
BRANCH   9  11
HETATM   11  C   UNL     1      -9.916  14.424  65.993  1.00  0.00    -0.317 A  
HETATM   12  C   UNL     1      -9.989  13.215  66.730  1.00  0.00    -0.250 A  
HETATM   13  C   UNL     1     -11.168  12.448  66.709  1.00  0.00    -0.363 A  
HETATM   14  C   UNL     1      -8.858  12.644  67.534  1.00  0.00    -0.186 C  
HETATM   15  C   UNL     1     -12.296  12.884  66.032  1.00  0.00    -0.330 A  
HETATM   16  C   UNL     1     -12.252  14.081  65.330  1.00  0.00    -0.451 A  
HETATM   17  C   UNL     1     -11.073  14.849  65.293  1.00  0.00    -0.382 A  
HETATM   18  C   UNL     1     -11.089  16.128  64.496  1.00  0.00    -0.236 C  
ENDBRANCH   9  11
ENDBRANCH   6   9
ENDBRANCH   5   6
BRANCH   5  19
HETATM   19  C   UNL     1      -6.265  16.717  66.928  1.00  0.00    -0.222 C  
HETATM   20  C   UNL     1      -6.083  15.788  68.129  1.00  0.00    -0.133 C  
ENDBRANCH   5  19
ENDBRANCH   4   5
BRANCH   4  21
HETATM   21  C   UNL     1      -9.234  19.183  67.455  1.00  0.00    -0.296 C  
HETATM   22  C   UNL     1     -10.107  19.682  68.607  1.00  0.00    -0.547 C  
ENDBRANCH   4  21
ENDBRANCH   3   4
ENDBRANCH   2   3
TORSDOF 8
ENDMDL
MODEL      207
REMARK 921   NORMALIZED FREE ENERGY PREDICTED BY IDOCK:   -3.62 KCAL/MOL
REMARK 922        TOTAL FREE ENERGY PREDICTED BY IDOCK:   -6.28 KCAL/MOL
REMARK 923 INTER-LIGAND FREE ENERGY PREDICTED BY IDOCK:   -5.61 KCAL/MOL
REMARK 924 INTRA-LIGAND FREE ENERGY PREDICTED BY IDOCK:   -0.67 KCAL/MOL
REMARK 927      BINDING AFFINITY PREDICTED BY RF-SCORE:    0.00 PKD
ROOT
HETATM    1  C   UNL     1      -5.752  19.841  68.962  1.00  0.00    -0.255 C  
HETATM    2  C   UNL     1      -7.249  19.631  69.134  1.00  0.00    -0.363 C  
ENDROOT
BRANCH   2   3
HETATM    3  C   UNL     1      -7.990  19.462  67.790  1.00  0.00    -0.286 C  
BRANCH   3   4
HETATM    4  N   UNL     1      -8.972  18.351  67.699  1.00  0.00    -0.271 NA 
BRANCH   4   5
HETATM    5  C   UNL     1      -8.621  17.382  66.589  1.00  0.00    -0.255 C  
BRANCH   5   6
HETATM    6  C   UNL     1      -9.375  16.063  66.789  1.00  0.00    -0.238 C  
HETATM    7  H   UNL     1     -10.404  14.790  65.770  1.00  0.00     0.000 HD 
HETATM    8  O   UNL     1      -9.936  15.608  65.645  1.00  0.00    -0.327 OA 
BRANCH   6   9
HETATM    9  N   UNL     1      -9.471  15.485  67.936  1.00  0.00    -0.200 NA 
HETATM   10  H   UNL     1      -9.057  15.942  68.747  1.00  0.00     0.000 HD 
BRANCH   9  11
HETATM   11  C   UNL     1     -10.127  14.243  68.120  1.00  0.00    -0.232 A  
HETATM   12  C   UNL     1      -9.535  12.982  67.857  1.00  0.00    -0.219 A  
HETATM   13  C   UNL     1     -10.228  11.799  68.172  1.00  0.00    -0.210 A  
HETATM   14  C   UNL     1      -8.192  12.795  67.215  1.00  0.00    -0.181 C  
HETATM   15  C   UNL     1     -11.462  11.835  68.800  1.00  0.00    -0.350 A  
HETATM   16  C   UNL     1     -12.045  13.061  69.092  1.00  0.00    -0.234 A  
HETATM   17  C   UNL     1     -11.398  14.263  68.749  1.00  0.00    -0.303 A  
HETATM   18  C   UNL     1     -12.095  15.559  69.078  1.00  0.00    -0.246 C  
ENDBRANCH   9  11
ENDBRANCH   6   9
ENDBRANCH   5   6
BRANCH   5  19
HETATM   19  C   UNL     1      -7.114  17.021  66.466  1.00  0.00    -0.307 C  
HETATM   20  C   UNL     1      -6.542  16.172  67.602  1.00  0.00    -0.180 C  
ENDBRANCH   5  19
ENDBRANCH   4   5
BRANCH   4  21
HETATM   21  C   UNL     1     -10.351  18.886  67.541  1.00  0.00    -0.426 C  
HETATM   22  C   UNL     1     -10.589  19.932  66.452  1.00  0.00    -0.532 C  
ENDBRANCH   4  21
ENDBRANCH   3   4
ENDBRANCH   2   3
TORSDOF 8
ENDMDL
MODEL      208
REMARK 921   NORMALIZED FREE ENERGY PREDICTED BY IDOCK:   -3.61 KCAL/MOL
REMARK 922        TOTAL FREE ENERGY PREDICTED BY IDOCK:   -6.26 KCAL/MOL
REMARK 923 INTER-LIGAND FREE ENERGY PREDICTED BY IDOCK:   -5.19 KCAL/MOL
REMARK 924 INTRA-LIGAND FREE ENERGY PREDICTED BY IDOCK:   -1.07 KCAL/MOL
REMARK 927      BINDING AFFINITY PREDICTED BY RF-SCORE:    0.00 PKD
ROOT
HETATM    1  C   UNL     1     -11.910  15.639  68.803  1.00  0.00    -0.336 C  
HETATM    2  C   UNL     1     -11.252  14.557  67.958  1.00  0.00    -0.308 C  
ENDROOT
BRANCH   2   3
HETATM    3  C   UNL     1     -10.320  13.639  68.777  1.00  0.00    -0.173 C  
BRANCH   3   4
HETATM    4  N   UNL     1      -9.791  12.433  68.090  1.00  0.00    -0.209 NA 
BRANCH   4   5
HETATM    5  C   UNL     1     -10.272  11.156  68.749  1.00  0.00    -0.206 C  
BRANCH   5   6
HETATM    6  C   UNL     1      -9.935   9.952  67.862  1.00  0.00    -0.160 C  
HETATM    7  H   UNL     1     -10.202   9.342  66.053  1.00  0.00     0.000 HD 
HETATM    8  O   UNL     1     -10.411  10.088  66.602  1.00  0.00    -0.234 OA 
BRANCH   6   9
HETATM    9  N   UNL     1      -9.291   8.927  68.298  1.00  0.00    -0.142 NA 
HETATM   10  H   UNL     1      -8.316   8.811  68.022  1.00  0.00     0.000 HD 
BRANCH   9  11
HETATM   11  C   UNL     1      -9.875   7.953  69.145  1.00  0.00    -0.174 A  
HETATM   12  C   UNL     1     -10.679   6.878  68.688  1.00  0.00    -0.256 A  
HETATM   13  C   UNL     1     -11.127   5.900  69.593  1.00  0.00    -0.414 A  
HETATM   14  C   UNL     1     -11.137   6.708  67.269  1.00  0.00    -0.418 C  
HETATM   15  C   UNL     1     -10.745   5.924  70.925  1.00  0.00    -0.338 A  
HETATM   16  C   UNL     1      -9.934   6.953  71.385  1.00  0.00    -0.190 A  
HETATM   17  C   UNL     1      -9.505   7.972  70.513  1.00  0.00    -0.166 A  
HETATM   18  C   UNL     1      -8.642   9.070  71.083  1.00  0.00    -0.250 C  
ENDBRANCH   9  11
ENDBRANCH   6   9
ENDBRANCH   5   6
BRANCH   5  19
HETATM   19  C   UNL     1     -11.797  11.085  69.039  1.00  0.00    -0.399 C  
HETATM   20  C   UNL     1     -12.182  10.766  70.484  1.00  0.00    -0.457 C  
ENDBRANCH   5  19
ENDBRANCH   4   5
BRANCH   4  21
HETATM   21  C   UNL     1      -8.306  12.484  68.018  1.00  0.00    -0.171 C  
HETATM   22  C   UNL     1      -7.654  13.824  67.674  1.00  0.00    -0.189 C  
ENDBRANCH   4  21
ENDBRANCH   3   4
ENDBRANCH   2   3
TORSDOF 8
ENDMDL
MODEL      209
REMARK 921   NORMALIZED FREE ENERGY PREDICTED BY IDOCK:   -3.60 KCAL/MOL
REMARK 922        TOTAL FREE ENERGY PREDICTED BY IDOCK:   -6.25 KCAL/MOL
REMARK 923 INTER-LIGAND FREE ENERGY PREDICTED BY IDOCK:   -4.94 KCAL/MOL
REMARK 924 INTRA-LIGAND FREE ENERGY PREDICTED BY IDOCK:   -1.31 KCAL/MOL
REMARK 927      BINDING AFFINITY PREDICTED BY RF-SCORE:    0.00 PKD
ROOT
HETATM    1  C   UNL     1      -6.501   5.634  69.118  1.00  0.00    -0.042 C  
HETATM    2  C   UNL     1      -6.897   6.232  67.775  1.00  0.00    -0.066 C  
ENDROOT
BRANCH   2   3
HETATM    3  C   UNL     1      -7.723   7.528  67.914  1.00  0.00    -0.116 C  
BRANCH   3   4
HETATM    4  N   UNL     1      -8.727   7.570  69.008  1.00  0.00    -0.136 NA 
BRANCH   4   5
HETATM    5  C   UNL     1     -10.124   7.823  68.478  1.00  0.00    -0.199 C  
BRANCH   5   6
HETATM    6  C   UNL     1     -10.991   6.574  68.675  1.00  0.00    -0.293 C  
HETATM    7  H   UNL     1     -11.428   4.931  67.765  1.00  0.00     0.000 HD 
HETATM    8  O   UNL     1     -10.891   5.705  67.642  1.00  0.00    -0.225 OA 
BRANCH   6   9
HETATM    9  N   UNL     1     -11.741   6.406  69.708  1.00  0.00    -0.580 NA 
HETATM   10  H   UNL     1     -12.748   6.330  69.570  1.00  0.00     0.000 HD 
BRANCH   9  11
HETATM   11  C   UNL     1     -11.229   6.321  71.027  1.00  0.00    -0.312 A  
HETATM   12  C   UNL     1     -10.313   5.332  71.464  1.00  0.00    -0.287 A  
HETATM   13  C   UNL     1      -9.779   5.392  72.764  1.00  0.00    -0.169 A  
HETATM   14  C   UNL     1      -9.873   4.160  70.636  1.00  0.00    -0.249 C  
HETATM   15  C   UNL     1     -10.079   6.443  73.616  1.00  0.00    -0.256 A  
HETATM   16  C   UNL     1     -10.952   7.437  73.194  1.00  0.00    -0.408 A  
HETATM   17  C   UNL     1     -11.538   7.381  71.915  1.00  0.00    -0.307 A  
HETATM   18  C   UNL     1     -12.492   8.483  71.528  1.00  0.00    -0.353 C  
ENDBRANCH   9  11
ENDBRANCH   6   9
ENDBRANCH   5   6
BRANCH   5  19
HETATM   19  C   UNL     1     -10.211   8.194  66.971  1.00  0.00    -0.378 C  
HETATM   20  C   UNL     1     -10.601   9.642  66.668  1.00  0.00    -0.173 C  
ENDBRANCH   5  19
ENDBRANCH   4   5
BRANCH   4  21
HETATM   21  C   UNL     1      -8.341   8.580  70.031  1.00  0.00    -0.123 C  
HETATM   22  C   UNL     1      -9.335   9.701  70.337  1.00  0.00    -0.268 C  
ENDBRANCH   4  21
ENDBRANCH   3   4
ENDBRANCH   2   3
TORSDOF 8
ENDMDL
MODEL      210
REMARK 921   NORMALIZED FREE ENERGY PREDICTED BY IDOCK:   -3.60 KCAL/MOL
REMARK 922        TOTAL FREE ENERGY PREDICTED BY IDOCK:   -6.25 KCAL/MOL
REMARK 923 INTER-LIGAND FREE ENERGY PREDICTED BY IDOCK:   -6.00 KCAL/MOL
REMARK 924 INTRA-LIGAND FREE ENERGY PREDICTED BY IDOCK:   -0.25 KCAL/MOL
REMARK 927      BINDING AFFINITY PREDICTED BY RF-SCORE:    0.00 PKD
ROOT
HETATM    1  C   UNL     1      -6.956  18.297  68.487  1.00  0.00    -0.261 C  
HETATM    2  C   UNL     1      -7.447  16.890  68.797  1.00  0.00    -0.237 C  
ENDROOT
BRANCH   2   3
HETATM    3  C   UNL     1      -8.678  16.485  67.959  1.00  0.00    -0.189 C  
BRANCH   3   4
HETATM    4  N   UNL     1      -9.961  16.314  68.689  1.00  0.00    -0.224 NA 
BRANCH   4   5
HETATM    5  C   UNL     1     -10.410  14.867  68.702  1.00  0.00    -0.237 C  
BRANCH   5   6
HETATM    6  C   UNL     1     -10.905  14.463  67.308  1.00  0.00    -0.290 C  
HETATM    7  H   UNL     1     -12.559  14.268  66.337  1.00  0.00     0.000 HD 
HETATM    8  O   UNL     1     -12.253  14.519  67.200  1.00  0.00    -0.355 OA 
BRANCH   6   9
HETATM    9  N   UNL     1     -10.107  14.090  66.369  1.00  0.00    -0.286 NA 
HETATM   10  H   UNL     1      -9.432  14.763  66.008  1.00  0.00     0.000 HD 
BRANCH   9  11
HETATM   11  C   UNL     1     -10.125  12.785  65.816  1.00  0.00    -0.286 A  
HETATM   12  C   UNL     1     -10.904  12.407  64.693  1.00  0.00    -0.346 A  
HETATM   13  C   UNL     1     -10.775  11.116  64.150  1.00  0.00    -0.415 A  
HETATM   14  C   UNL     1     -11.919  13.290  64.030  1.00  0.00    -0.525 C  
HETATM   15  C   UNL     1      -9.847  10.215  64.649  1.00  0.00    -0.361 A  
HETATM   16  C   UNL     1      -9.055  10.580  65.730  1.00  0.00    -0.204 A  
HETATM   17  C   UNL     1      -9.191  11.848  66.325  1.00  0.00    -0.218 A  
HETATM   18  C   UNL     1      -8.313  12.171  67.508  1.00  0.00    -0.166 C  
ENDBRANCH   9  11
ENDBRANCH   6   9
ENDBRANCH   5   6
BRANCH   5  19
HETATM   19  C   UNL     1     -11.554  14.530  69.698  1.00  0.00    -0.346 C  
HETATM   20  C   UNL     1     -11.786  13.041  69.960  1.00  0.00    -0.355 C  
ENDBRANCH   5  19
ENDBRANCH   4   5
BRANCH   4  21
HETATM   21  C   UNL     1     -11.007  17.206  68.118  1.00  0.00    -0.231 C  
HETATM   22  C   UNL     1     -10.549  18.490  67.426  1.00  0.00    -0.463 C  
ENDBRANCH   4  21
ENDBRANCH   3   4
ENDBRANCH   2   3
TORSDOF 8
ENDMDL
MODEL      211
REMARK 921   NORMALIZED FREE ENERGY PREDICTED BY IDOCK:   -3.60 KCAL/MOL
REMARK 922        TOTAL FREE ENERGY PREDICTED BY IDOCK:   -6.25 KCAL/MOL
REMARK 923 INTER-LIGAND FREE ENERGY PREDICTED BY IDOCK:   -5.73 KCAL/MOL
REMARK 924 INTRA-LIGAND FREE ENERGY PREDICTED BY IDOCK:   -0.51 KCAL/MOL
REMARK 927      BINDING AFFINITY PREDICTED BY RF-SCORE:    0.00 PKD
ROOT
HETATM    1  C   UNL     1     -11.809  15.921  69.328  1.00  0.00    -0.328 C  
HETATM    2  C   UNL     1     -10.872  14.724  69.390  1.00  0.00    -0.269 C  
ENDROOT
BRANCH   2   3
HETATM    3  C   UNL     1     -10.433  14.231  67.995  1.00  0.00    -0.235 C  
BRANCH   3   4
HETATM    4  N   UNL     1     -11.186  14.761  66.828  1.00  0.00    -0.339 NA 
BRANCH   4   5
HETATM    5  C   UNL     1     -11.687  13.648  65.931  1.00  0.00    -0.354 C  
BRANCH   5   6
HETATM    6  C   UNL     1     -10.874  12.372  66.180  1.00  0.00    -0.273 C  
HETATM    7  H   UNL     1     -11.072  10.644  67.011  1.00  0.00     0.000 HD 
HETATM    8  O   UNL     1     -11.576  11.434  66.858  1.00  0.00    -0.492 OA 
BRANCH   6   9
HETATM    9  N   UNL     1      -9.652  12.242  65.798  1.00  0.00    -0.369 NA 
HETATM   10  H   UNL     1      -9.118  13.083  65.580  1.00  0.00     0.000 HD 
BRANCH   9  11
HETATM   11  C   UNL     1      -9.015  10.983  65.669  1.00  0.00    -0.199 A  
HETATM   12  C   UNL     1      -8.933  10.252  64.457  1.00  0.00    -0.247 A  
HETATM   13  C   UNL     1      -8.188   9.061  64.402  1.00  0.00    -0.165 A  
HETATM   14  C   UNL     1      -9.630  10.639  63.186  1.00  0.00    -0.382 C  
HETATM   15  C   UNL     1      -7.468   8.612  65.498  1.00  0.00    -0.085 A  
HETATM   16  C   UNL     1      -7.512   9.331  66.685  1.00  0.00    -0.093 A  
HETATM   17  C   UNL     1      -8.285  10.503  66.786  1.00  0.00    -0.126 A  
HETATM   18  C   UNL     1      -8.304  11.224  68.110  1.00  0.00    -0.143 C  
ENDBRANCH   9  11
ENDBRANCH   6   9
ENDBRANCH   5   6
BRANCH   5  19
HETATM   19  C   UNL     1     -11.616  13.933  64.405  1.00  0.00    -0.401 C  
HETATM   20  C   UNL     1     -12.292  12.897  63.506  1.00  0.00    -0.521 C  
ENDBRANCH   5  19
ENDBRANCH   4   5
BRANCH   4  21
HETATM   21  C   UNL     1     -10.355  15.738  66.073  1.00  0.00    -0.340 C  
HETATM   22  C   UNL     1      -8.860  15.798  66.390  1.00  0.00    -0.371 C  
ENDBRANCH   4  21
ENDBRANCH   3   4
ENDBRANCH   2   3
TORSDOF 8
ENDMDL
MODEL      212
REMARK 921   NORMALIZED FREE ENERGY PREDICTED BY IDOCK:   -3.59 KCAL/MOL
REMARK 922        TOTAL FREE ENERGY PREDICTED BY IDOCK:   -6.23 KCAL/MOL
REMARK 923 INTER-LIGAND FREE ENERGY PREDICTED BY IDOCK:   -5.43 KCAL/MOL
REMARK 924 INTRA-LIGAND FREE ENERGY PREDICTED BY IDOCK:   -0.81 KCAL/MOL
REMARK 927      BINDING AFFINITY PREDICTED BY RF-SCORE:    0.00 PKD
ROOT
HETATM    1  C   UNL     1      -7.860  15.199  69.430  1.00  0.00    -0.208 C  
HETATM    2  C   UNL     1      -8.140  14.835  67.979  1.00  0.00    -0.140 C  
ENDROOT
BRANCH   2   3
HETATM    3  C   UNL     1      -8.047  13.318  67.711  1.00  0.00    -0.166 C  
BRANCH   3   4
HETATM    4  N   UNL     1      -9.254  12.507  68.015  1.00  0.00    -0.199 NA 
BRANCH   4   5
HETATM    5  C   UNL     1      -9.109  11.081  67.526  1.00  0.00    -0.137 C  
BRANCH   5   6
HETATM    6  C   UNL     1      -9.331  10.105  68.687  1.00  0.00    -0.161 C  
HETATM    7  H   UNL     1      -9.288   8.211  69.042  1.00  0.00     0.000 HD 
HETATM    8  O   UNL     1      -9.150   8.815  68.322  1.00  0.00    -0.140 OA 
BRANCH   6   9
HETATM    9  N   UNL     1      -9.677  10.495  69.864  1.00  0.00    -0.409 NA 
HETATM   10  H   UNL     1      -9.218  11.315  70.260  1.00  0.00     0.000 HD 
BRANCH   9  11
HETATM   11  C   UNL     1     -10.667   9.835  70.635  1.00  0.00    -0.326 A  
HETATM   12  C   UNL     1     -10.385   8.897  71.659  1.00  0.00    -0.416 A  
HETATM   13  C   UNL     1     -11.430   8.373  72.442  1.00  0.00    -0.451 A  
HETATM   14  C   UNL     1      -9.016   8.367  71.970  1.00  0.00    -0.290 C  
HETATM   15  C   UNL     1     -12.737   8.807  72.278  1.00  0.00    -0.466 A  
HETATM   16  C   UNL     1     -13.027   9.748  71.299  1.00  0.00    -0.470 A  
HETATM   17  C   UNL     1     -12.010  10.257  70.469  1.00  0.00    -0.415 A  
HETATM   18  C   UNL     1     -12.398  11.262  69.413  1.00  0.00    -0.216 C  
ENDBRANCH   9  11
ENDBRANCH   6   9
ENDBRANCH   5   6
BRANCH   5  19
HETATM   19  C   UNL     1      -7.732  10.724  66.899  1.00  0.00    -0.130 C  
HETATM   20  C   UNL     1      -7.769  10.247  65.446  1.00  0.00    -0.146 C  
ENDBRANCH   5  19
ENDBRANCH   4   5
BRANCH   4  21
HETATM   21  C   UNL     1     -10.471  13.155  67.457  1.00  0.00    -0.228 C  
HETATM   22  C   UNL     1     -10.998  12.647  66.114  1.00  0.00    -0.313 C  
ENDBRANCH   4  21
ENDBRANCH   3   4
ENDBRANCH   2   3
TORSDOF 8
ENDMDL
MODEL      213
REMARK 921   NORMALIZED FREE ENERGY PREDICTED BY IDOCK:   -3.58 KCAL/MOL
REMARK 922        TOTAL FREE ENERGY PREDICTED BY IDOCK:   -6.23 KCAL/MOL
REMARK 923 INTER-LIGAND FREE ENERGY PREDICTED BY IDOCK:   -5.19 KCAL/MOL
REMARK 924 INTRA-LIGAND FREE ENERGY PREDICTED BY IDOCK:   -1.04 KCAL/MOL
REMARK 927      BINDING AFFINITY PREDICTED BY RF-SCORE:    0.00 PKD
ROOT
HETATM    1  C   UNL     1     -13.021  11.953  63.624  1.00  0.00    -0.317 C  
HETATM    2  C   UNL     1     -11.867  12.933  63.469  1.00  0.00    -0.605 C  
ENDROOT
BRANCH   2   3
HETATM    3  C   UNL     1     -10.672  12.604  64.389  1.00  0.00    -0.359 C  
BRANCH   3   4
HETATM    4  N   UNL     1     -10.960  11.792  65.599  1.00  0.00    -0.300 NA 
BRANCH   4   5
HETATM    5  C   UNL     1     -10.657  12.556  66.872  1.00  0.00    -0.236 C  
BRANCH   5   6
HETATM    6  C   UNL     1     -10.952  11.674  68.092  1.00  0.00    -0.226 C  
HETATM    7  H   UNL     1     -12.424  10.720  68.891  1.00  0.00     0.000 HD 
HETATM    8  O   UNL     1     -12.241  11.266  68.136  1.00  0.00    -0.622 OA 
BRANCH   6   9
HETATM    9  N   UNL     1     -10.060  11.390  68.975  1.00  0.00    -0.379 NA 
HETATM   10  H   UNL     1     -10.184  11.743  69.923  1.00  0.00     0.000 HD 
BRANCH   9  11
HETATM   11  C   UNL     1      -8.913  10.608  68.688  1.00  0.00    -0.170 A  
HETATM   12  C   UNL     1      -7.631  11.146  68.412  1.00  0.00    -0.110 A  
HETATM   13  C   UNL     1      -6.529  10.288  68.243  1.00  0.00    -0.056 A  
HETATM   14  C   UNL     1      -7.344  12.609  68.245  1.00  0.00    -0.116 C  
HETATM   15  C   UNL     1      -6.654   8.917  68.407  1.00  0.00    -0.060 A  
HETATM   16  C   UNL     1      -7.897   8.376  68.707  1.00  0.00    -0.115 A  
HETATM   17  C   UNL     1      -9.028   9.203  68.837  1.00  0.00    -0.139 A  
HETATM   18  C   UNL     1     -10.351   8.547  69.144  1.00  0.00    -0.227 C  
ENDBRANCH   9  11
ENDBRANCH   6   9
ENDBRANCH   5   6
BRANCH   5  19
HETATM   19  C   UNL     1     -11.457  13.874  67.069  1.00  0.00    -0.367 C  
HETATM   20  C   UNL     1     -10.619  15.151  67.145  1.00  0.00    -0.295 C  
ENDBRANCH   5  19
ENDBRANCH   4   5
BRANCH   4  21
HETATM   21  C   UNL     1     -10.220  10.502  65.548  1.00  0.00    -0.256 C  
HETATM   22  C   UNL     1      -8.981  10.425  64.655  1.00  0.00    -0.235 C  
ENDBRANCH   4  21
ENDBRANCH   3   4
ENDBRANCH   2   3
TORSDOF 8
ENDMDL
MODEL      214
REMARK 921   NORMALIZED FREE ENERGY PREDICTED BY IDOCK:   -3.58 KCAL/MOL
REMARK 922        TOTAL FREE ENERGY PREDICTED BY IDOCK:   -6.23 KCAL/MOL
REMARK 923 INTER-LIGAND FREE ENERGY PREDICTED BY IDOCK:   -6.00 KCAL/MOL
REMARK 924 INTRA-LIGAND FREE ENERGY PREDICTED BY IDOCK:   -0.22 KCAL/MOL
REMARK 927      BINDING AFFINITY PREDICTED BY RF-SCORE:    0.00 PKD
ROOT
HETATM    1  C   UNL     1      -7.149   5.511  71.027  1.00  0.00    -0.069 C  
HETATM    2  C   UNL     1      -8.103   6.682  70.841  1.00  0.00    -0.119 C  
ENDROOT
BRANCH   2   3
HETATM    3  C   UNL     1      -8.052   7.278  69.419  1.00  0.00    -0.130 C  
BRANCH   3   4
HETATM    4  N   UNL     1      -9.309   7.869  68.892  1.00  0.00    -0.150 NA 
BRANCH   4   5
HETATM    5  C   UNL     1      -9.299   9.382  68.983  1.00  0.00    -0.153 C  
BRANCH   5   6
HETATM    6  C   UNL     1     -10.355   9.850  69.992  1.00  0.00    -0.272 C  
HETATM    7  H   UNL     1     -10.618   9.956  71.899  1.00  0.00     0.000 HD 
HETATM    8  O   UNL     1      -9.964   9.665  71.274  1.00  0.00    -0.186 OA 
BRANCH   6   9
HETATM    9  N   UNL     1     -11.490  10.339  69.633  1.00  0.00    -0.335 NA 
HETATM   10  H   UNL     1     -11.947   9.952  68.808  1.00  0.00     0.000 HD 
BRANCH   9  11
HETATM   11  C   UNL     1     -12.132  11.391  70.332  1.00  0.00    -0.384 A  
HETATM   12  C   UNL     1     -12.932  11.207  71.488  1.00  0.00    -0.542 A  
HETATM   13  C   UNL     1     -13.442  12.323  72.177  1.00  0.00    -0.431 A  
HETATM   14  C   UNL     1     -13.324   9.869  72.043  1.00  0.00    -0.532 C  
HETATM   15  C   UNL     1     -13.124  13.614  71.786  1.00  0.00    -0.468 A  
HETATM   16  C   UNL     1     -12.318  13.813  70.674  1.00  0.00    -0.445 A  
HETATM   17  C   UNL     1     -11.829  12.718  69.937  1.00  0.00    -0.371 A  
HETATM   18  C   UNL     1     -10.975  13.006  68.727  1.00  0.00    -0.295 C  
ENDBRANCH   9  11
ENDBRANCH   6   9
ENDBRANCH   5   6
BRANCH   5  19
HETATM   19  C   UNL     1      -9.585  10.135  67.654  1.00  0.00    -0.170 C  
HETATM   20  C   UNL     1     -10.020   9.259  66.478  1.00  0.00    -0.344 C  
ENDBRANCH   5  19
ENDBRANCH   4   5
BRANCH   4  21
HETATM   21  C   UNL     1     -10.489   7.288  69.588  1.00  0.00    -0.231 C  
HETATM   22  C   UNL     1     -11.134   6.042  68.980  1.00  0.00    -0.377 C  
ENDBRANCH   4  21
ENDBRANCH   3   4
ENDBRANCH   2   3
TORSDOF 8
ENDMDL
MODEL      215
REMARK 921   NORMALIZED FREE ENERGY PREDICTED BY IDOCK:   -3.58 KCAL/MOL
REMARK 922        TOTAL FREE ENERGY PREDICTED BY IDOCK:   -6.23 KCAL/MOL
REMARK 923 INTER-LIGAND FREE ENERGY PREDICTED BY IDOCK:   -5.62 KCAL/MOL
REMARK 924 INTRA-LIGAND FREE ENERGY PREDICTED BY IDOCK:   -0.60 KCAL/MOL
REMARK 927      BINDING AFFINITY PREDICTED BY RF-SCORE:    0.00 PKD
ROOT
HETATM    1  C   UNL     1      -6.031  18.541  67.312  1.00  0.00    -0.164 C  
HETATM    2  C   UNL     1      -6.888  17.510  68.032  1.00  0.00    -0.190 C  
ENDROOT
BRANCH   2   3
HETATM    3  C   UNL     1      -8.062  16.999  67.172  1.00  0.00    -0.191 C  
BRANCH   3   4
HETATM    4  N   UNL     1      -9.408  17.002  67.802  1.00  0.00    -0.234 NA 
BRANCH   4   5
HETATM    5  C   UNL     1     -10.019  15.615  67.824  1.00  0.00    -0.223 C  
BRANCH   5   6
HETATM    6  C   UNL     1     -10.083  15.051  66.400  1.00  0.00    -0.276 C  
HETATM    7  H   UNL     1     -11.014  15.357  64.740  1.00  0.00     0.000 HD 
HETATM    8  O   UNL     1     -10.975  15.707  65.623  1.00  0.00    -0.323 OA 
BRANCH   6   9
HETATM    9  N   UNL     1      -9.374  14.046  66.020  1.00  0.00    -0.514 NA 
HETATM   10  H   UNL     1      -8.756  14.163  65.217  1.00  0.00     0.000 HD 
BRANCH   9  11
HETATM   11  C   UNL     1      -9.413  12.786  66.667  1.00  0.00    -0.249 A  
HETATM   12  C   UNL     1      -8.518  12.389  67.692  1.00  0.00    -0.169 A  
HETATM   13  C   UNL     1      -8.701  11.159  68.348  1.00  0.00    -0.157 A  
HETATM   14  C   UNL     1      -7.324  13.186  68.130  1.00  0.00    -0.119 C  
HETATM   15  C   UNL     1      -9.785  10.345  68.060  1.00  0.00    -0.166 A  
HETATM   16  C   UNL     1     -10.689  10.732  67.080  1.00  0.00    -0.320 A  
HETATM   17  C   UNL     1     -10.508  11.936  66.373  1.00  0.00    -0.258 A  
HETATM   18  C   UNL     1     -11.516  12.286  65.307  1.00  0.00    -0.399 C  
ENDBRANCH   9  11
ENDBRANCH   6   9
ENDBRANCH   5   6
BRANCH   5  19
HETATM   19  C   UNL     1     -11.458  15.527  68.406  1.00  0.00    -0.370 C  
HETATM   20  C   UNL     1     -11.804  14.220  69.120  1.00  0.00    -0.368 C  
ENDBRANCH   5  19
ENDBRANCH   4   5
BRANCH   4  21
HETATM   21  C   UNL     1     -10.299  17.981  67.123  1.00  0.00    -0.374 C  
HETATM   22  C   UNL     1     -10.462  19.360  67.763  1.00  0.00    -0.556 C  
ENDBRANCH   4  21
ENDBRANCH   3   4
ENDBRANCH   2   3
TORSDOF 8
ENDMDL
MODEL      216
REMARK 921   NORMALIZED FREE ENERGY PREDICTED BY IDOCK:   -3.58 KCAL/MOL
REMARK 922        TOTAL FREE ENERGY PREDICTED BY IDOCK:   -6.22 KCAL/MOL
REMARK 923 INTER-LIGAND FREE ENERGY PREDICTED BY IDOCK:   -5.80 KCAL/MOL
REMARK 924 INTRA-LIGAND FREE ENERGY PREDICTED BY IDOCK:   -0.42 KCAL/MOL
REMARK 927      BINDING AFFINITY PREDICTED BY RF-SCORE:    0.00 PKD
ROOT
HETATM    1  C   UNL     1      -5.903  11.625  70.335  1.00  0.00    -0.156 C  
HETATM    2  C   UNL     1      -6.205  10.379  69.515  1.00  0.00    -0.054 C  
ENDROOT
BRANCH   2   3
HETATM    3  C   UNL     1      -7.573  10.444  68.804  1.00  0.00    -0.097 C  
BRANCH   3   4
HETATM    4  N   UNL     1      -8.536   9.352  69.099  1.00  0.00    -0.134 NA 
BRANCH   4   5
HETATM    5  C   UNL     1      -9.553   9.185  67.988  1.00  0.00    -0.147 C  
BRANCH   5   6
HETATM    6  C   UNL     1     -10.417  10.447  67.879  1.00  0.00    -0.209 C  
HETATM    7  H   UNL     1     -12.121  11.116  68.486  1.00  0.00     0.000 HD 
HETATM    8  O   UNL     1     -11.585  10.334  68.553  1.00  0.00    -0.178 OA 
BRANCH   6   9
HETATM    9  N   UNL     1     -10.060  11.476  67.195  1.00  0.00    -0.195 NA 
HETATM   10  H   UNL     1      -9.290  12.048  67.542  1.00  0.00     0.000 HD 
BRANCH   9  11
HETATM   11  C   UNL     1     -10.687  11.851  65.981  1.00  0.00    -0.285 A  
HETATM   12  C   UNL     1     -10.490  11.187  64.744  1.00  0.00    -0.388 A  
HETATM   13  C   UNL     1     -11.239  11.564  63.615  1.00  0.00    -0.451 A  
HETATM   14  C   UNL     1      -9.487  10.094  64.520  1.00  0.00    -0.364 C  
HETATM   15  C   UNL     1     -12.223  12.537  63.697  1.00  0.00    -0.642 A  
HETATM   16  C   UNL     1     -12.450  13.178  64.908  1.00  0.00    -0.490 A  
HETATM   17  C   UNL     1     -11.687  12.854  66.046  1.00  0.00    -0.456 A  
HETATM   18  C   UNL     1     -11.972  13.602  67.324  1.00  0.00    -0.420 C  
ENDBRANCH   9  11
ENDBRANCH   6   9
ENDBRANCH   5   6
BRANCH   5  19
HETATM   19  C   UNL     1     -10.529   7.986  68.148  1.00  0.00    -0.222 C  
HETATM   20  C   UNL     1     -10.612   7.037  66.952  1.00  0.00    -0.372 C  
ENDBRANCH   5  19
ENDBRANCH   4   5
BRANCH   4  21
HETATM   21  C   UNL     1      -9.196   9.581  70.413  1.00  0.00    -0.253 C  
HETATM   22  C   UNL     1      -8.798   8.674  71.579  1.00  0.00    -0.285 C  
ENDBRANCH   4  21
ENDBRANCH   3   4
ENDBRANCH   2   3
TORSDOF 8
ENDMDL
MODEL      217
REMARK 921   NORMALIZED FREE ENERGY PREDICTED BY IDOCK:   -3.53 KCAL/MOL
REMARK 922        TOTAL FREE ENERGY PREDICTED BY IDOCK:   -6.16 KCAL/MOL
REMARK 923 INTER-LIGAND FREE ENERGY PREDICTED BY IDOCK:   -5.16 KCAL/MOL
REMARK 924 INTRA-LIGAND FREE ENERGY PREDICTED BY IDOCK:   -1.00 KCAL/MOL
REMARK 927      BINDING AFFINITY PREDICTED BY RF-SCORE:    0.00 PKD
ROOT
HETATM    1  C   UNL     1     -10.440  11.279  63.268  1.00  0.00    -0.370 C  
HETATM    2  C   UNL     1      -9.440  10.475  64.088  1.00  0.00    -0.342 C  
ENDROOT
BRANCH   2   3
HETATM    3  C   UNL     1      -9.817  10.393  65.582  1.00  0.00    -0.259 C  
BRANCH   3   4
HETATM    4  N   UNL     1      -9.442   9.149  66.302  1.00  0.00    -0.216 NA 
BRANCH   4   5
HETATM    5  C   UNL     1      -8.598   9.442  67.527  1.00  0.00    -0.122 C  
BRANCH   5   6
HETATM    6  C   UNL     1      -9.413   9.174  68.797  1.00  0.00    -0.147 C  
HETATM    7  H   UNL     1      -9.140   8.919  70.689  1.00  0.00     0.000 HD 
HETATM    8  O   UNL     1      -8.635   9.085  69.902  1.00  0.00    -0.122 OA 
BRANCH   6   9
HETATM    9  N   UNL     1     -10.691   9.029  68.785  1.00  0.00    -0.384 NA 
HETATM   10  H   UNL     1     -11.122   8.577  67.978  1.00  0.00     0.000 HD 
BRANCH   9  11
HETATM   11  C   UNL     1     -11.528   9.467  69.841  1.00  0.00    -0.062 A  
HETATM   12  C   UNL     1     -11.817   8.702  70.999  1.00  0.00    -0.303 A  
HETATM   13  C   UNL     1     -12.572   9.264  72.044  1.00  0.00    -0.465 A  
HETATM   14  C   UNL     1     -11.397   7.275  71.197  1.00  0.00    -0.294 C  
HETATM   15  C   UNL     1     -12.990  10.585  71.999  1.00  0.00    -0.490 A  
HETATM   16  C   UNL     1     -12.690  11.359  70.886  1.00  0.00    -0.397 A  
HETATM   17  C   UNL     1     -11.975  10.812  69.803  1.00  0.00    -0.397 A  
HETATM   18  C   UNL     1     -11.701  11.703  68.617  1.00  0.00    -0.386 C  
ENDBRANCH   9  11
ENDBRANCH   6   9
ENDBRANCH   5   6
BRANCH   5  19
HETATM   19  C   UNL     1      -8.061  10.897  67.637  1.00  0.00    -0.115 C  
HETATM   20  C   UNL     1      -6.617  11.106  67.180  1.00  0.00    -0.098 C  
ENDBRANCH   5  19
ENDBRANCH   4   5
BRANCH   4  21
HETATM   21  C   UNL     1      -8.757   8.201  65.382  1.00  0.00    -0.094 C  
HETATM   22  C   UNL     1      -7.755   7.217  65.988  1.00  0.00    -0.095 C  
ENDBRANCH   4  21
ENDBRANCH   3   4
ENDBRANCH   2   3
TORSDOF 8
ENDMDL
MODEL      218
REMARK 921   NORMALIZED FREE ENERGY PREDICTED BY IDOCK:   -3.52 KCAL/MOL
REMARK 922        TOTAL FREE ENERGY PREDICTED BY IDOCK:   -6.14 KCAL/MOL
REMARK 923 INTER-LIGAND FREE ENERGY PREDICTED BY IDOCK:   -5.21 KCAL/MOL
REMARK 924 INTRA-LIGAND FREE ENERGY PREDICTED BY IDOCK:   -0.93 KCAL/MOL
REMARK 927      BINDING AFFINITY PREDICTED BY RF-SCORE:    0.00 PKD
ROOT
HETATM    1  C   UNL     1      -6.713  17.480  68.940  1.00  0.00    -0.239 C  
HETATM    2  C   UNL     1      -7.628  16.270  69.066  1.00  0.00    -0.219 C  
ENDROOT
BRANCH   2   3
HETATM    3  C   UNL     1      -8.208  15.811  67.711  1.00  0.00    -0.144 C  
BRANCH   3   4
HETATM    4  N   UNL     1      -9.573  15.226  67.728  1.00  0.00    -0.206 NA 
BRANCH   4   5
HETATM    5  C   UNL     1      -9.540  13.719  67.577  1.00  0.00    -0.219 C  
BRANCH   5   6
HETATM    6  C   UNL     1     -10.881  13.121  68.017  1.00  0.00    -0.242 C  
HETATM    7  H   UNL     1     -12.241  13.393  69.357  1.00  0.00     0.000 HD 
HETATM    8  O   UNL     1     -11.409  13.764  69.084  1.00  0.00    -0.255 OA 
BRANCH   6   9
HETATM    9  N   UNL     1     -11.411  12.103  67.435  1.00  0.00    -0.328 NA 
HETATM   10  H   UNL     1     -12.313  12.221  66.973  1.00  0.00     0.000 HD 
BRANCH   9  11
HETATM   11  C   UNL     1     -10.799  10.825  67.407  1.00  0.00    -0.290 A  
HETATM   12  C   UNL     1     -10.713   9.958  68.525  1.00  0.00    -0.260 A  
HETATM   13  C   UNL     1     -10.180   8.665  68.374  1.00  0.00    -0.232 A  
HETATM   14  C   UNL     1     -11.126  10.329  69.919  1.00  0.00    -0.362 C  
HETATM   15  C   UNL     1      -9.794   8.188  67.131  1.00  0.00    -0.281 A  
HETATM   16  C   UNL     1      -9.899   9.013  66.020  1.00  0.00    -0.312 A  
HETATM   17  C   UNL     1     -10.385  10.328  66.145  1.00  0.00    -0.253 A  
HETATM   18  C   UNL     1     -10.455  11.177  64.901  1.00  0.00    -0.372 C  
ENDBRANCH   9  11
ENDBRANCH   6   9
ENDBRANCH   5   6
BRANCH   5  19
HETATM   19  C   UNL     1      -8.435  12.989  68.391  1.00  0.00    -0.118 C  
HETATM   20  C   UNL     1      -7.546  12.035  67.593  1.00  0.00    -0.136 C  
ENDBRANCH   5  19
ENDBRANCH   4   5
BRANCH   4  21
HETATM   21  C   UNL     1     -10.424  15.860  66.684  1.00  0.00    -0.306 C  
HETATM   22  C   UNL     1     -10.466  15.205  65.303  1.00  0.00    -0.434 C  
ENDBRANCH   4  21
ENDBRANCH   3   4
ENDBRANCH   2   3
TORSDOF 8
ENDMDL
MODEL      219
REMARK 921   NORMALIZED FREE ENERGY PREDICTED BY IDOCK:   -3.51 KCAL/MOL
REMARK 922        TOTAL FREE ENERGY PREDICTED BY IDOCK:   -6.13 KCAL/MOL
REMARK 923 INTER-LIGAND FREE ENERGY PREDICTED BY IDOCK:   -5.87 KCAL/MOL
REMARK 924 INTRA-LIGAND FREE ENERGY PREDICTED BY IDOCK:   -0.26 KCAL/MOL
REMARK 927      BINDING AFFINITY PREDICTED BY RF-SCORE:    0.00 PKD
ROOT
HETATM    1  C   UNL     1      -6.855   9.768  66.666  1.00  0.00    -0.084 C  
HETATM    2  C   UNL     1      -7.740  10.594  65.744  1.00  0.00    -0.130 C  
ENDROOT
BRANCH   2   3
HETATM    3  C   UNL     1      -8.690  11.538  66.510  1.00  0.00    -0.183 C  
BRANCH   3   4
HETATM    4  N   UNL     1     -10.139  11.429  66.200  1.00  0.00    -0.223 NA 
BRANCH   4   5
HETATM    5  C   UNL     1     -10.872  10.595  67.231  1.00  0.00    -0.287 C  
BRANCH   5   6
HETATM    6  C   UNL     1     -11.060  11.406  68.519  1.00  0.00    -0.235 C  
HETATM    7  H   UNL     1     -10.031  12.027  70.026  1.00  0.00     0.000 HD 
HETATM    8  O   UNL     1      -9.914  11.525  69.229  1.00  0.00    -0.012 OA 
BRANCH   6   9
HETATM    9  N   UNL     1     -12.199  11.887  68.876  1.00  0.00    -0.265 NA 
HETATM   10  H   UNL     1     -13.028  11.622  68.345  1.00  0.00     0.000 HD 
BRANCH   9  11
HETATM   11  C   UNL     1     -12.353  12.770  69.974  1.00  0.00    -0.112 A  
HETATM   12  C   UNL     1     -12.212  14.178  69.890  1.00  0.00    -0.416 A  
HETATM   13  C   UNL     1     -12.488  14.981  71.011  1.00  0.00    -0.402 A  
HETATM   14  C   UNL     1     -11.742  14.911  68.668  1.00  0.00    -0.358 C  
HETATM   15  C   UNL     1     -12.964  14.430  72.191  1.00  0.00    -0.435 A  
HETATM   16  C   UNL     1     -13.136  13.055  72.281  1.00  0.00    -0.445 A  
HETATM   17  C   UNL     1     -12.826  12.219  71.192  1.00  0.00    -0.302 A  
HETATM   18  C   UNL     1     -13.018  10.734  71.364  1.00  0.00    -0.535 C  
ENDBRANCH   9  11
ENDBRANCH   6   9
ENDBRANCH   5   6
BRANCH   5  19
HETATM   19  C   UNL     1     -10.174   9.267  67.637  1.00  0.00    -0.285 C  
HETATM   20  C   UNL     1     -10.591   8.030  66.839  1.00  0.00    -0.324 C  
ENDBRANCH   5  19
ENDBRANCH   4   5
BRANCH   4  21
HETATM   21  C   UNL     1     -10.339  10.897  64.825  1.00  0.00    -0.323 C  
HETATM   22  C   UNL     1     -11.088  11.776  63.822  1.00  0.00    -0.513 C  
ENDBRANCH   4  21
ENDBRANCH   3   4
ENDBRANCH   2   3
TORSDOF 8
ENDMDL
MODEL      220
REMARK 921   NORMALIZED FREE ENERGY PREDICTED BY IDOCK:   -3.51 KCAL/MOL
REMARK 922        TOTAL FREE ENERGY PREDICTED BY IDOCK:   -6.12 KCAL/MOL
REMARK 923 INTER-LIGAND FREE ENERGY PREDICTED BY IDOCK:   -5.98 KCAL/MOL
REMARK 924 INTRA-LIGAND FREE ENERGY PREDICTED BY IDOCK:   -0.14 KCAL/MOL
REMARK 927      BINDING AFFINITY PREDICTED BY RF-SCORE:    0.00 PKD
ROOT
HETATM    1  C   UNL     1     -11.625  12.083  69.299  1.00  0.00    -0.380 C  
HETATM    2  C   UNL     1     -12.322  11.716  70.601  1.00  0.00    -0.437 C  
ENDROOT
BRANCH   2   3
HETATM    3  C   UNL     1     -12.612  10.205  70.723  1.00  0.00    -0.317 C  
BRANCH   3   4
HETATM    4  N   UNL     1     -12.174   9.536  71.975  1.00  0.00    -0.338 NA 
BRANCH   4   5
HETATM    5  C   UNL     1     -10.722   9.108  71.904  1.00  0.00    -0.264 C  
BRANCH   5   6
HETATM    6  C   UNL     1     -10.371   8.688  70.472  1.00  0.00    -0.202 C  
HETATM    7  H   UNL     1      -9.012   9.002  69.141  1.00  0.00     0.000 HD 
HETATM    8  O   UNL     1      -9.229   9.263  70.028  1.00  0.00    -0.176 OA 
BRANCH   6   9
HETATM    9  N   UNL     1     -11.112   7.894  69.781  1.00  0.00    -0.431 NA 
HETATM   10  H   UNL     1     -12.125   7.984  69.855  1.00  0.00     0.000 HD 
BRANCH   9  11
HETATM   11  C   UNL     1     -10.582   6.900  68.921  1.00  0.00    -0.221 A  
HETATM   12  C   UNL     1     -10.169   7.139  67.586  1.00  0.00    -0.253 A  
HETATM   13  C   UNL     1      -9.557   6.113  66.844  1.00  0.00    -0.164 A  
HETATM   14  C   UNL     1     -10.369   8.435  66.857  1.00  0.00    -0.378 C  
HETATM   15  C   UNL     1      -9.284   4.879  67.413  1.00  0.00    -0.136 A  
HETATM   16  C   UNL     1      -9.655   4.637  68.729  1.00  0.00    -0.229 A  
HETATM   17  C   UNL     1     -10.310   5.628  69.484  1.00  0.00    -0.345 A  
HETATM   18  C   UNL     1     -10.702   5.292  70.901  1.00  0.00    -0.189 C  
ENDBRANCH   9  11
ENDBRANCH   6   9
ENDBRANCH   5   6
BRANCH   5  19
HETATM   19  C   UNL     1     -10.327   7.923  72.828  1.00  0.00    -0.399 C  
HETATM   20  C   UNL     1      -8.849   7.850  73.216  1.00  0.00    -0.311 C  
ENDBRANCH   5  19
ENDBRANCH   4   5
BRANCH   4  21
HETATM   21  C   UNL     1     -13.066   8.387  72.290  1.00  0.00    -0.284 C  
HETATM   22  C   UNL     1     -14.407   8.304  71.560  1.00  0.00    -0.525 C  
ENDBRANCH   4  21
ENDBRANCH   3   4
ENDBRANCH   2   3
TORSDOF 8
ENDMDL
MODEL      221
REMARK 921   NORMALIZED FREE ENERGY PREDICTED BY IDOCK:   -3.50 KCAL/MOL
REMARK 922        TOTAL FREE ENERGY PREDICTED BY IDOCK:   -6.10 KCAL/MOL
REMARK 923 INTER-LIGAND FREE ENERGY PREDICTED BY IDOCK:   -5.00 KCAL/MOL
REMARK 924 INTRA-LIGAND FREE ENERGY PREDICTED BY IDOCK:   -1.11 KCAL/MOL
REMARK 927      BINDING AFFINITY PREDICTED BY RF-SCORE:    0.00 PKD
ROOT
HETATM    1  C   UNL     1     -12.909  13.425  65.132  1.00  0.00    -0.380 C  
HETATM    2  C   UNL     1     -12.079  13.333  63.859  1.00  0.00    -0.531 C  
ENDROOT
BRANCH   2   3
HETATM    3  C   UNL     1     -10.571  13.161  64.136  1.00  0.00    -0.361 C  
BRANCH   3   4
HETATM    4  N   UNL     1     -10.194  12.487  65.406  1.00  0.00    -0.281 NA 
BRANCH   4   5
HETATM    5  C   UNL     1      -9.496  13.435  66.359  1.00  0.00    -0.219 C  
BRANCH   5   6
HETATM    6  C   UNL     1      -9.980  13.185  67.792  1.00  0.00    -0.227 C  
HETATM    7  H   UNL     1     -11.593  13.316  68.840  1.00  0.00     0.000 HD 
HETATM    8  O   UNL     1     -11.293  13.472  67.952  1.00  0.00    -0.261 OA 
BRANCH   6   9
HETATM    9  N   UNL     1      -9.198  12.773  68.727  1.00  0.00    -0.395 NA 
HETATM   10  H   UNL     1      -9.061  13.366  69.545  1.00  0.00     0.000 HD 
BRANCH   9  11
HETATM   11  C   UNL     1      -8.518  11.530  68.670  1.00  0.00    -0.115 A  
HETATM   12  C   UNL     1      -9.098  10.287  69.029  1.00  0.00    -0.187 A  
HETATM   13  C   UNL     1      -8.379   9.094  68.839  1.00  0.00    -0.124 A  
HETATM   14  C   UNL     1     -10.455  10.135  69.650  1.00  0.00    -0.282 C  
HETATM   15  C   UNL     1      -7.128   9.096  68.242  1.00  0.00    -0.077 A  
HETATM   16  C   UNL     1      -6.557  10.301  67.857  1.00  0.00    -0.062 A  
HETATM   17  C   UNL     1      -7.232  11.517  68.075  1.00  0.00    -0.085 A  
HETATM   18  C   UNL     1      -6.545  12.791  67.651  1.00  0.00    -0.150 C  
ENDBRANCH   9  11
ENDBRANCH   6   9
ENDBRANCH   5   6
BRANCH   5  19
HETATM   19  C   UNL     1      -9.707  14.948  66.072  1.00  0.00    -0.358 C  
HETATM   20  C   UNL     1      -8.500  15.848  66.345  1.00  0.00    -0.348 C  
ENDBRANCH   5  19
ENDBRANCH   4   5
BRANCH   4  21
HETATM   21  C   UNL     1      -9.365  11.282  65.129  1.00  0.00    -0.189 C  
HETATM   22  C   UNL     1      -9.964   9.914  65.456  1.00  0.00    -0.363 C  
ENDBRANCH   4  21
ENDBRANCH   3   4
ENDBRANCH   2   3
TORSDOF 8
ENDMDL
MODEL      222
REMARK 921   NORMALIZED FREE ENERGY PREDICTED BY IDOCK:   -3.50 KCAL/MOL
REMARK 922        TOTAL FREE ENERGY PREDICTED BY IDOCK:   -6.10 KCAL/MOL
REMARK 923 INTER-LIGAND FREE ENERGY PREDICTED BY IDOCK:   -5.54 KCAL/MOL
REMARK 924 INTRA-LIGAND FREE ENERGY PREDICTED BY IDOCK:   -0.56 KCAL/MOL
REMARK 927      BINDING AFFINITY PREDICTED BY RF-SCORE:    0.00 PKD
ROOT
HETATM    1  C   UNL     1     -12.315  12.146  63.464  1.00  0.00    -0.682 C  
HETATM    2  C   UNL     1     -12.588  12.939  64.734  1.00  0.00    -0.493 C  
ENDROOT
BRANCH   2   3
HETATM    3  C   UNL     1     -11.461  13.938  65.072  1.00  0.00    -0.339 C  
BRANCH   3   4
HETATM    4  N   UNL     1     -10.887  13.866  66.440  1.00  0.00    -0.289 NA 
BRANCH   4   5
HETATM    5  C   UNL     1      -9.611  13.049  66.472  1.00  0.00    -0.260 C  
BRANCH   5   6
HETATM    6  C   UNL     1      -9.915  11.626  66.955  1.00  0.00    -0.202 C  
HETATM    7  H   UNL     1      -9.740  10.546  68.542  1.00  0.00     0.000 HD 
HETATM    8  O   UNL     1      -9.551  11.427  68.243  1.00  0.00    -0.179 OA 
BRANCH   6   9
HETATM    9  N   UNL     1     -10.437  10.731  66.191  1.00  0.00    -0.239 NA 
HETATM   10  H   UNL     1     -11.446  10.742  66.045  1.00  0.00     0.000 HD 
BRANCH   9  11
HETATM   11  C   UNL     1      -9.671   9.729  65.544  1.00  0.00    -0.312 A  
HETATM   12  C   UNL     1      -8.963   9.926  64.332  1.00  0.00    -0.275 A  
HETATM   13  C   UNL     1      -8.144   8.904  63.820  1.00  0.00    -0.163 A  
HETATM   14  C   UNL     1      -9.044  11.170  63.497  1.00  0.00    -0.132 C  
HETATM   15  C   UNL     1      -7.957   7.718  64.514  1.00  0.00    -0.135 A  
HETATM   16  C   UNL     1      -8.619   7.520  65.718  1.00  0.00    -0.158 A  
HETATM   17  C   UNL     1      -9.482   8.505  66.234  1.00  0.00    -0.299 A  
HETATM   18  C   UNL     1     -10.184   8.216  67.537  1.00  0.00    -0.309 C  
ENDBRANCH   9  11
ENDBRANCH   6   9
ENDBRANCH   5   6
BRANCH   5  19
HETATM   19  C   UNL     1      -8.484  13.601  67.388  1.00  0.00    -0.206 C  
HETATM   20  C   UNL     1      -8.600  15.080  67.761  1.00  0.00    -0.165 C  
ENDBRANCH   5  19
ENDBRANCH   4   5
BRANCH   4  21
HETATM   21  C   UNL     1     -11.895  13.342  67.401  1.00  0.00    -0.366 C  
HETATM   22  C   UNL     1     -12.048  14.064  68.740  1.00  0.00    -0.338 C  
ENDBRANCH   4  21
ENDBRANCH   3   4
ENDBRANCH   2   3
TORSDOF 8
ENDMDL
MODEL      223
REMARK 921   NORMALIZED FREE ENERGY PREDICTED BY IDOCK:   -3.49 KCAL/MOL
REMARK 922        TOTAL FREE ENERGY PREDICTED BY IDOCK:   -6.10 KCAL/MOL
REMARK 923 INTER-LIGAND FREE ENERGY PREDICTED BY IDOCK:   -4.87 KCAL/MOL
REMARK 924 INTRA-LIGAND FREE ENERGY PREDICTED BY IDOCK:   -1.23 KCAL/MOL
REMARK 927      BINDING AFFINITY PREDICTED BY RF-SCORE:    0.00 PKD
ROOT
HETATM    1  C   UNL     1     -12.837  13.958  65.575  1.00  0.00    -0.471 C  
HETATM    2  C   UNL     1     -12.064  12.833  64.902  1.00  0.00    -0.490 C  
ENDROOT
BRANCH   2   3
HETATM    3  C   UNL     1     -10.578  12.795  65.315  1.00  0.00    -0.290 C  
BRANCH   3   4
HETATM    4  N   UNL     1     -10.178  11.750  66.292  1.00  0.00    -0.215 NA 
BRANCH   4   5
HETATM    5  C   UNL     1      -9.599  10.531  65.603  1.00  0.00    -0.226 C  
BRANCH   5   6
HETATM    6  C   UNL     1      -8.333  10.070  66.336  1.00  0.00    -0.126 C  
HETATM    7  H   UNL     1      -6.506  10.625  66.600  1.00  0.00     0.000 HD 
HETATM    8  O   UNL     1      -7.290  10.911  66.145  1.00  0.00    -0.140 OA 
BRANCH   6   9
HETATM    9  N   UNL     1      -8.288   8.986  67.028  1.00  0.00    -0.115 NA 
HETATM   10  H   UNL     1      -7.773   8.190  66.653  1.00  0.00     0.000 HD 
BRANCH   9  11
HETATM   11  C   UNL     1      -8.920   8.850  68.289  1.00  0.00    -0.137 A  
HETATM   12  C   UNL     1      -8.514   9.533  69.463  1.00  0.00    -0.156 A  
HETATM   13  C   UNL     1      -9.269   9.416  70.643  1.00  0.00    -0.303 A  
HETATM   14  C   UNL     1      -7.277  10.377  69.566  1.00  0.00    -0.130 C  
HETATM   15  C   UNL     1     -10.452   8.694  70.671  1.00  0.00    -0.243 A  
HETATM   16  C   UNL     1     -10.881   8.042  69.522  1.00  0.00    -0.135 A  
HETATM   17  C   UNL     1     -10.124   8.103  68.337  1.00  0.00    -0.226 A  
HETATM   18  C   UNL     1     -10.639   7.356  67.132  1.00  0.00    -0.413 C  
ENDBRANCH   9  11
ENDBRANCH   6   9
ENDBRANCH   5   6
BRANCH   5  19
HETATM   19  C   UNL     1      -9.206  10.727  64.112  1.00  0.00    -0.251 C  
HETATM   20  C   UNL     1      -8.753   9.466  63.375  1.00  0.00    -0.219 C  
ENDBRANCH   5  19
ENDBRANCH   4   5
BRANCH   4  21
HETATM   21  C   UNL     1     -11.327  11.388  67.166  1.00  0.00    -0.255 C  
HETATM   22  C   UNL     1     -11.344  11.948  68.589  1.00  0.00    -0.331 C  
ENDBRANCH   4  21
ENDBRANCH   3   4
ENDBRANCH   2   3
TORSDOF 8
ENDMDL
MODEL      224
REMARK 921   NORMALIZED FREE ENERGY PREDICTED BY IDOCK:   -3.47 KCAL/MOL
REMARK 922        TOTAL FREE ENERGY PREDICTED BY IDOCK:   -6.07 KCAL/MOL
REMARK 923 INTER-LIGAND FREE ENERGY PREDICTED BY IDOCK:   -5.25 KCAL/MOL
REMARK 924 INTRA-LIGAND FREE ENERGY PREDICTED BY IDOCK:   -0.82 KCAL/MOL
REMARK 927      BINDING AFFINITY PREDICTED BY RF-SCORE:    0.00 PKD
ROOT
HETATM    1  C   UNL     1      -6.055  21.176  66.357  1.00  0.00    -0.342 C  
HETATM    2  C   UNL     1      -6.435  19.978  67.216  1.00  0.00    -0.228 C  
ENDROOT
BRANCH   2   3
HETATM    3  C   UNL     1      -7.516  19.090  66.565  1.00  0.00    -0.246 C  
BRANCH   3   4
HETATM    4  N   UNL     1      -7.787  17.779  67.209  1.00  0.00    -0.208 NA 
BRANCH   4   5
HETATM    5  C   UNL     1      -8.946  17.861  68.181  1.00  0.00    -0.268 C  
BRANCH   5   6
HETATM    6  C   UNL     1      -9.812  16.601  68.067  1.00  0.00    -0.245 C  
HETATM    7  H   UNL     1     -10.941  15.708  66.786  1.00  0.00     0.000 HD 
HETATM    8  O   UNL     1     -10.405  16.489  66.856  1.00  0.00    -0.295 OA 
BRANCH   6   9
HETATM    9  N   UNL     1      -9.962  15.772  69.040  1.00  0.00    -0.220 NA 
HETATM   10  H   UNL     1      -9.823  16.108  69.992  1.00  0.00     0.000 HD 
BRANCH   9  11
HETATM   11  C   UNL     1     -10.314  14.413  68.846  1.00  0.00    -0.231 A  
HETATM   12  C   UNL     1      -9.458  13.443  68.267  1.00  0.00    -0.209 A  
HETATM   13  C   UNL     1      -9.856  12.095  68.213  1.00  0.00    -0.212 A  
HETATM   14  C   UNL     1      -8.124  13.750  67.651  1.00  0.00    -0.181 C  
HETATM   15  C   UNL     1     -11.050  11.675  68.778  1.00  0.00    -0.283 A  
HETATM   16  C   UNL     1     -11.888  12.607  69.376  1.00  0.00    -0.356 A  
HETATM   17  C   UNL     1     -11.539  13.970  69.406  1.00  0.00    -0.349 A  
HETATM   18  C   UNL     1     -12.504  14.931  70.054  1.00  0.00    -0.320 C  
ENDBRANCH   9  11
ENDBRANCH   6   9
ENDBRANCH   5   6
BRANCH   5  19
HETATM   19  C   UNL     1      -9.895  19.076  67.991  1.00  0.00    -0.414 C  
HETATM   20  C   UNL     1      -9.922  20.082  69.143  1.00  0.00    -0.262 C  
ENDBRANCH   5  19
ENDBRANCH   4   5
BRANCH   4  21
HETATM   21  C   UNL     1      -6.558  17.259  67.866  1.00  0.00    -0.153 C  
HETATM   22  C   UNL     1      -6.608  17.004  69.373  1.00  0.00    -0.225 C  
ENDBRANCH   4  21
ENDBRANCH   3   4
ENDBRANCH   2   3
TORSDOF 8
ENDMDL
MODEL      225
REMARK 921   NORMALIZED FREE ENERGY PREDICTED BY IDOCK:   -3.46 KCAL/MOL
REMARK 922        TOTAL FREE ENERGY PREDICTED BY IDOCK:   -6.05 KCAL/MOL
REMARK 923 INTER-LIGAND FREE ENERGY PREDICTED BY IDOCK:   -5.41 KCAL/MOL
REMARK 924 INTRA-LIGAND FREE ENERGY PREDICTED BY IDOCK:   -0.64 KCAL/MOL
REMARK 927      BINDING AFFINITY PREDICTED BY RF-SCORE:    0.00 PKD
ROOT
HETATM    1  C   UNL     1     -12.444  10.883  71.248  1.00  0.00    -0.493 C  
HETATM    2  C   UNL     1     -11.464  10.219  70.290  1.00  0.00    -0.395 C  
ENDROOT
BRANCH   2   3
HETATM    3  C   UNL     1     -11.674  10.650  68.823  1.00  0.00    -0.188 C  
BRANCH   3   4
HETATM    4  N   UNL     1     -10.455  10.968  68.035  1.00  0.00    -0.181 NA 
BRANCH   4   5
HETATM    5  C   UNL     1     -10.589  12.288  67.303  1.00  0.00    -0.224 C  
BRANCH   5   6
HETATM    6  C   UNL     1      -9.270  13.066  67.385  1.00  0.00    -0.208 C  
HETATM    7  H   UNL     1      -7.827  13.383  68.625  1.00  0.00     0.000 HD 
HETATM    8  O   UNL     1      -8.645  12.901  68.574  1.00  0.00    -0.139 OA 
BRANCH   6   9
HETATM    9  N   UNL     1      -8.839  13.806  66.424  1.00  0.00    -0.455 NA 
HETATM   10  H   UNL     1      -8.093  13.447  65.830  1.00  0.00     0.000 HD 
BRANCH   9  11
HETATM   11  C   UNL     1      -9.357  15.098  66.156  1.00  0.00    -0.311 A  
HETATM   12  C   UNL     1     -10.431  15.357  65.267  1.00  0.00    -0.440 A  
HETATM   13  C   UNL     1     -10.945  16.660  65.146  1.00  0.00    -0.160 A  
HETATM   14  C   UNL     1     -11.068  14.324  64.385  1.00  0.00    -0.235 C  
HETATM   15  C   UNL     1     -10.466  17.698  65.931  1.00  0.00    -0.247 A  
HETATM   16  C   UNL     1      -9.435  17.456  66.828  1.00  0.00    -0.282 A  
HETATM   17  C   UNL     1      -8.868  16.172  66.941  1.00  0.00    -0.246 A  
HETATM   18  C   UNL     1      -7.737  15.983  67.921  1.00  0.00    -0.149 C  
ENDBRANCH   9  11
ENDBRANCH   6   9
ENDBRANCH   5   6
BRANCH   5  19
HETATM   19  C   UNL     1     -11.701  13.237  67.831  1.00  0.00    -0.395 C  
HETATM   20  C   UNL     1     -11.316  14.106  69.029  1.00  0.00    -0.310 C  
ENDBRANCH   5  19
ENDBRANCH   4   5
BRANCH   4  21
HETATM   21  C   UNL     1     -10.135   9.856  67.100  1.00  0.00    -0.215 C  
HETATM   22  C   UNL     1      -8.665   9.468  66.931  1.00  0.00    -0.136 C  
ENDBRANCH   4  21
ENDBRANCH   3   4
ENDBRANCH   2   3
TORSDOF 8
ENDMDL
MODEL      226
REMARK 921   NORMALIZED FREE ENERGY PREDICTED BY IDOCK:   -3.46 KCAL/MOL
REMARK 922        TOTAL FREE ENERGY PREDICTED BY IDOCK:   -6.05 KCAL/MOL
REMARK 923 INTER-LIGAND FREE ENERGY PREDICTED BY IDOCK:   -5.35 KCAL/MOL
REMARK 924 INTRA-LIGAND FREE ENERGY PREDICTED BY IDOCK:   -0.69 KCAL/MOL
REMARK 927      BINDING AFFINITY PREDICTED BY RF-SCORE:    0.00 PKD
ROOT
HETATM    1  C   UNL     1     -10.233  16.649  66.184  1.00  0.00    -0.360 C  
HETATM    2  C   UNL     1      -9.292  15.479  66.436  1.00  0.00    -0.330 C  
ENDROOT
BRANCH   2   3
HETATM    3  C   UNL     1      -9.908  14.119  66.048  1.00  0.00    -0.309 C  
BRANCH   3   4
HETATM    4  N   UNL     1     -11.132  13.702  66.781  1.00  0.00    -0.303 NA 
BRANCH   4   5
HETATM    5  C   UNL     1     -10.871  13.548  68.265  1.00  0.00    -0.259 C  
BRANCH   5   6
HETATM    6  C   UNL     1     -10.831  12.061  68.637  1.00  0.00    -0.237 C  
HETATM    7  H   UNL     1     -12.041  10.589  68.933  1.00  0.00     0.000 HD 
HETATM    8  O   UNL     1     -12.066  11.511  68.703  1.00  0.00    -0.483 OA 
BRANCH   6   9
HETATM    9  N   UNL     1      -9.733  11.435  68.878  1.00  0.00    -0.376 NA 
HETATM   10  H   UNL     1      -9.551  11.120  69.831  1.00  0.00     0.000 HD 
BRANCH   9  11
HETATM   11  C   UNL     1      -8.765  11.163  67.879  1.00  0.00    -0.136 A  
HETATM   12  C   UNL     1      -7.580  11.918  67.691  1.00  0.00    -0.136 A  
HETATM   13  C   UNL     1      -6.627  11.508  66.742  1.00  0.00    -0.119 A  
HETATM   14  C   UNL     1      -7.259  13.187  68.425  1.00  0.00    -0.107 C  
HETATM   15  C   UNL     1      -6.788  10.334  66.023  1.00  0.00    -0.119 A  
HETATM   16  C   UNL     1      -7.929   9.566  66.215  1.00  0.00    -0.107 A  
HETATM   17  C   UNL     1      -8.923   9.973  67.125  1.00  0.00    -0.146 A  
HETATM   18  C   UNL     1     -10.146   9.102  67.271  1.00  0.00    -0.295 C  
ENDBRANCH   9  11
ENDBRANCH   6   9
ENDBRANCH   5   6
BRANCH   5  19
HETATM   19  C   UNL     1     -11.917  14.215  69.201  1.00  0.00    -0.388 C  
HETATM   20  C   UNL     1     -11.691  15.699  69.496  1.00  0.00    -0.382 C  
ENDBRANCH   5  19
ENDBRANCH   4   5
BRANCH   4  21
HETATM   21  C   UNL     1     -11.691  12.455  66.192  1.00  0.00    -0.400 C  
HETATM   22  C   UNL     1     -11.069  11.937  64.895  1.00  0.00    -0.363 C  
ENDBRANCH   4  21
ENDBRANCH   3   4
ENDBRANCH   2   3
TORSDOF 8
ENDMDL
MODEL      227
REMARK 921   NORMALIZED FREE ENERGY PREDICTED BY IDOCK:   -3.46 KCAL/MOL
REMARK 922        TOTAL FREE ENERGY PREDICTED BY IDOCK:   -6.05 KCAL/MOL
REMARK 923 INTER-LIGAND FREE ENERGY PREDICTED BY IDOCK:   -5.11 KCAL/MOL
REMARK 924 INTRA-LIGAND FREE ENERGY PREDICTED BY IDOCK:   -0.94 KCAL/MOL
REMARK 927      BINDING AFFINITY PREDICTED BY RF-SCORE:    0.00 PKD
ROOT
HETATM    1  C   UNL     1      -7.904   7.364  73.435  1.00  0.00    -0.125 C  
HETATM    2  C   UNL     1      -9.250   7.489  74.134  1.00  0.00    -0.211 C  
ENDROOT
BRANCH   2   3
HETATM    3  C   UNL     1     -10.346   6.616  73.487  1.00  0.00    -0.296 C  
BRANCH   3   4
HETATM    4  N   UNL     1     -10.163   6.259  72.056  1.00  0.00    -0.188 NA 
BRANCH   4   5
HETATM    5  C   UNL     1     -11.263   6.838  71.189  1.00  0.00    -0.283 C  
BRANCH   5   6
HETATM    6  C   UNL     1     -10.649   7.667  70.054  1.00  0.00    -0.238 C  
HETATM    7  H   UNL     1      -9.128   8.805  69.724  1.00  0.00     0.000 HD 
HETATM    8  O   UNL     1      -9.508   8.292  70.427  1.00  0.00    -0.164 OA 
BRANCH   6   9
HETATM    9  N   UNL     1     -11.194   7.763  68.892  1.00  0.00    -0.313 NA 
HETATM   10  H   UNL     1     -12.071   7.271  68.723  1.00  0.00     0.000 HD 
BRANCH   9  11
HETATM   11  C   UNL     1     -10.628   8.520  67.836  1.00  0.00    -0.156 A  
HETATM   12  C   UNL     1     -10.721   9.930  67.728  1.00  0.00    -0.332 A  
HETATM   13  C   UNL     1     -10.036  10.605  66.701  1.00  0.00    -0.270 A  
HETATM   14  C   UNL     1     -11.547  10.796  68.633  1.00  0.00    -0.342 C  
HETATM   15  C   UNL     1      -9.211   9.924  65.820  1.00  0.00    -0.228 A  
HETATM   16  C   UNL     1      -9.085   8.545  65.929  1.00  0.00    -0.237 A  
HETATM   17  C   UNL     1      -9.792   7.836  66.918  1.00  0.00    -0.305 A  
HETATM   18  C   UNL     1      -9.624   6.338  66.968  1.00  0.00    -0.162 C  
ENDBRANCH   9  11
ENDBRANCH   6   9
ENDBRANCH   5   6
BRANCH   5  19
HETATM   19  C   UNL     1     -12.276   7.762  71.920  1.00  0.00    -0.341 C  
HETATM   20  C   UNL     1     -13.753   7.477  71.640  1.00  0.00    -0.465 C  
ENDBRANCH   5  19
ENDBRANCH   4   5
BRANCH   4  21
HETATM   21  C   UNL     1     -10.063   4.783  71.896  1.00  0.00    -0.198 C  
HETATM   22  C   UNL     1     -10.427   3.909  73.097  1.00  0.00    -0.254 C  
ENDBRANCH   4  21
ENDBRANCH   3   4
ENDBRANCH   2   3
TORSDOF 8
ENDMDL
MODEL      228
REMARK 921   NORMALIZED FREE ENERGY PREDICTED BY IDOCK:   -3.46 KCAL/MOL
REMARK 922        TOTAL FREE ENERGY PREDICTED BY IDOCK:   -6.04 KCAL/MOL
REMARK 923 INTER-LIGAND FREE ENERGY PREDICTED BY IDOCK:   -5.62 KCAL/MOL
REMARK 924 INTRA-LIGAND FREE ENERGY PREDICTED BY IDOCK:   -0.42 KCAL/MOL
REMARK 927      BINDING AFFINITY PREDICTED BY RF-SCORE:    0.00 PKD
ROOT
HETATM    1  C   UNL     1      -6.631  21.192  67.099  1.00  0.00    -0.424 C  
HETATM    2  C   UNL     1      -6.978  20.249  65.957  1.00  0.00    -0.295 C  
ENDROOT
BRANCH   2   3
HETATM    3  C   UNL     1      -8.299  19.485  66.189  1.00  0.00    -0.321 C  
BRANCH   3   4
HETATM    4  N   UNL     1      -8.389  18.657  67.419  1.00  0.00    -0.258 NA 
BRANCH   4   5
HETATM    5  C   UNL     1      -7.691  17.323  67.250  1.00  0.00    -0.188 C  
BRANCH   5   6
HETATM    6  C   UNL     1      -8.700  16.181  67.425  1.00  0.00    -0.180 C  
HETATM    7  H   UNL     1     -10.146  15.341  66.466  1.00  0.00     0.000 HD 
HETATM    8  O   UNL     1      -9.522  16.049  66.358  1.00  0.00    -0.248 OA 
BRANCH   6   9
HETATM    9  N   UNL     1      -8.755  15.460  68.489  1.00  0.00    -0.170 NA 
HETATM   10  H   UNL     1      -8.049  15.602  69.211  1.00  0.00     0.000 HD 
BRANCH   9  11
HETATM   11  C   UNL     1      -9.754  14.478  68.704  1.00  0.00    -0.221 A  
HETATM   12  C   UNL     1     -11.004  14.734  69.320  1.00  0.00    -0.275 A  
HETATM   13  C   UNL     1     -11.974  13.718  69.393  1.00  0.00    -0.397 A  
HETATM   14  C   UNL     1     -11.383  16.038  69.956  1.00  0.00    -0.353 C  
HETATM   15  C   UNL     1     -11.761  12.477  68.813  1.00  0.00    -0.371 A  
HETATM   16  C   UNL     1     -10.553  12.218  68.179  1.00  0.00    -0.232 A  
HETATM   17  C   UNL     1      -9.544  13.199  68.128  1.00  0.00    -0.227 A  
HETATM   18  C   UNL     1      -8.249  12.845  67.441  1.00  0.00    -0.187 C  
ENDBRANCH   9  11
ENDBRANCH   6   9
ENDBRANCH   5   6
BRANCH   5  19
HETATM   19  C   UNL     1      -6.527  17.046  68.241  1.00  0.00    -0.151 C  
HETATM   20  C   UNL     1      -6.234  18.160  69.248  1.00  0.00    -0.253 C  
ENDBRANCH   5  19
ENDBRANCH   4   5
BRANCH   4  21
HETATM   21  C   UNL     1      -9.810  18.483  67.827  1.00  0.00    -0.312 C  
HETATM   22  C   UNL     1     -10.863  19.343  67.126  1.00  0.00    -0.561 C  
ENDBRANCH   4  21
ENDBRANCH   3   4
ENDBRANCH   2   3
TORSDOF 8
ENDMDL
MODEL      229
REMARK 921   NORMALIZED FREE ENERGY PREDICTED BY IDOCK:   -3.45 KCAL/MOL
REMARK 922        TOTAL FREE ENERGY PREDICTED BY IDOCK:   -6.03 KCAL/MOL
REMARK 923 INTER-LIGAND FREE ENERGY PREDICTED BY IDOCK:   -5.51 KCAL/MOL
REMARK 924 INTRA-LIGAND FREE ENERGY PREDICTED BY IDOCK:   -0.53 KCAL/MOL
REMARK 927      BINDING AFFINITY PREDICTED BY RF-SCORE:    0.00 PKD
ROOT
HETATM    1  C   UNL     1     -11.875  15.896  69.360  1.00  0.00    -0.325 C  
HETATM    2  C   UNL     1     -10.875  14.750  69.420  1.00  0.00    -0.269 C  
ENDROOT
BRANCH   2   3
HETATM    3  C   UNL     1     -10.481  14.224  68.023  1.00  0.00    -0.235 C  
BRANCH   3   4
HETATM    4  N   UNL     1     -11.384  14.569  66.896  1.00  0.00    -0.337 NA 
BRANCH   4   5
HETATM    5  C   UNL     1     -11.852  13.334  66.153  1.00  0.00    -0.390 C  
BRANCH   5   6
HETATM    6  C   UNL     1     -10.893  12.169  66.423  1.00  0.00    -0.271 C  
HETATM    7  H   UNL     1     -10.890  10.434  67.264  1.00  0.00     0.000 HD 
HETATM    8  O   UNL     1     -11.485  11.156  67.097  1.00  0.00    -0.461 OA 
BRANCH   6   9
HETATM    9  N   UNL     1      -9.658  12.188  66.060  1.00  0.00    -0.240 NA 
HETATM   10  H   UNL     1      -9.254  13.072  65.753  1.00  0.00     0.000 HD 
BRANCH   9  11
HETATM   11  C   UNL     1      -8.835  11.034  66.068  1.00  0.00    -0.191 A  
HETATM   12  C   UNL     1      -8.098  10.588  67.194  1.00  0.00    -0.120 A  
HETATM   13  C   UNL     1      -7.393   9.373  67.138  1.00  0.00    -0.087 A  
HETATM   14  C   UNL     1      -7.975  11.350  68.481  1.00  0.00    -0.143 C  
HETATM   15  C   UNL     1      -7.454   8.558  66.018  1.00  0.00    -0.085 A  
HETATM   16  C   UNL     1      -8.194   8.965  64.917  1.00  0.00    -0.161 A  
HETATM   17  C   UNL     1      -8.875  10.197  64.924  1.00  0.00    -0.214 A  
HETATM   18  C   UNL     1      -9.645  10.586  63.687  1.00  0.00    -0.370 C  
ENDBRANCH   9  11
ENDBRANCH   6   9
ENDBRANCH   5   6
BRANCH   5  19
HETATM   19  C   UNL     1     -11.956  13.479  64.609  1.00  0.00    -0.438 C  
HETATM   20  C   UNL     1     -12.773  12.401  63.896  1.00  0.00    -0.457 C  
ENDBRANCH   5  19
ENDBRANCH   4   5
BRANCH   4  21
HETATM   21  C   UNL     1     -10.726  15.540  65.980  1.00  0.00    -0.326 C  
HETATM   22  C   UNL     1      -9.217  15.742  66.120  1.00  0.00    -0.385 C  
ENDBRANCH   4  21
ENDBRANCH   3   4
ENDBRANCH   2   3
TORSDOF 8
ENDMDL
MODEL      230
REMARK 921   NORMALIZED FREE ENERGY PREDICTED BY IDOCK:   -3.45 KCAL/MOL
REMARK 922        TOTAL FREE ENERGY PREDICTED BY IDOCK:   -6.03 KCAL/MOL
REMARK 923 INTER-LIGAND FREE ENERGY PREDICTED BY IDOCK:   -5.13 KCAL/MOL
REMARK 924 INTRA-LIGAND FREE ENERGY PREDICTED BY IDOCK:   -0.90 KCAL/MOL
REMARK 927      BINDING AFFINITY PREDICTED BY RF-SCORE:    0.00 PKD
ROOT
HETATM    1  C   UNL     1     -10.621  12.579  64.948  1.00  0.00    -0.330 C  
HETATM    2  C   UNL     1      -9.901  11.239  64.901  1.00  0.00    -0.310 C  
ENDROOT
BRANCH   2   3
HETATM    3  C   UNL     1     -10.280  10.313  66.075  1.00  0.00    -0.228 C  
BRANCH   3   4
HETATM    4  N   UNL     1      -9.256  10.114  67.133  1.00  0.00    -0.138 NA 
BRANCH   4   5
HETATM    5  C   UNL     1      -9.774  10.516  68.499  1.00  0.00    -0.165 C  
BRANCH   5   6
HETATM    6  C   UNL     1      -9.267   9.532  69.559  1.00  0.00    -0.189 C  
HETATM    7  H   UNL     1      -8.635   7.716  69.694  1.00  0.00     0.000 HD 
HETATM    8  O   UNL     1      -8.949   8.325  69.036  1.00  0.00    -0.146 OA 
BRANCH   6   9
HETATM    9  N   UNL     1      -9.187   9.837  70.807  1.00  0.00    -0.343 NA 
HETATM   10  H   UNL     1      -8.885  10.778  71.060  1.00  0.00     0.000 HD 
BRANCH   9  11
HETATM   11  C   UNL     1      -9.499   8.924  71.845  1.00  0.00    -0.230 A  
HETATM   12  C   UNL     1     -10.817   8.541  72.200  1.00  0.00    -0.427 A  
HETATM   13  C   UNL     1     -11.023   7.547  73.174  1.00  0.00    -0.420 A  
HETATM   14  C   UNL     1     -12.060   9.154  71.626  1.00  0.00    -0.432 C  
HETATM   15  C   UNL     1      -9.957   6.879  73.755  1.00  0.00    -0.345 A  
HETATM   16  C   UNL     1      -8.659   7.221  73.398  1.00  0.00    -0.175 A  
HETATM   17  C   UNL     1      -8.419   8.242  72.460  1.00  0.00    -0.251 A  
HETATM   18  C   UNL     1      -6.985   8.576  72.132  1.00  0.00    -0.096 C  
ENDBRANCH   9  11
ENDBRANCH   6   9
ENDBRANCH   5   6
BRANCH   5  19
HETATM   19  C   UNL     1     -11.321  10.568  68.639  1.00  0.00    -0.315 C  
HETATM   20  C   UNL     1     -11.887  11.848  69.257  1.00  0.00    -0.379 C  
ENDBRANCH   5  19
ENDBRANCH   4   5
BRANCH   4  21
HETATM   21  C   UNL     1      -8.004  10.841  66.788  1.00  0.00    -0.138 C  
HETATM   22  C   UNL     1      -6.709  10.032  66.708  1.00  0.00    -0.076 C  
ENDBRANCH   4  21
ENDBRANCH   3   4
ENDBRANCH   2   3
TORSDOF 8
ENDMDL
MODEL      231
REMARK 921   NORMALIZED FREE ENERGY PREDICTED BY IDOCK:   -3.45 KCAL/MOL
REMARK 922        TOTAL FREE ENERGY PREDICTED BY IDOCK:   -6.03 KCAL/MOL
REMARK 923 INTER-LIGAND FREE ENERGY PREDICTED BY IDOCK:   -5.76 KCAL/MOL
REMARK 924 INTRA-LIGAND FREE ENERGY PREDICTED BY IDOCK:   -0.27 KCAL/MOL
REMARK 927      BINDING AFFINITY PREDICTED BY RF-SCORE:    0.00 PKD
ROOT
HETATM    1  C   UNL     1      -6.758   7.598  70.686  1.00  0.00    -0.042 C  
HETATM    2  C   UNL     1      -7.742   8.737  70.462  1.00  0.00    -0.089 C  
ENDROOT
BRANCH   2   3
HETATM    3  C   UNL     1      -9.128   8.250  69.989  1.00  0.00    -0.150 C  
BRANCH   3   4
HETATM    4  N   UNL     1     -10.150   8.008  71.040  1.00  0.00    -0.185 NA 
BRANCH   4   5
HETATM    5  C   UNL     1     -11.518   8.500  70.615  1.00  0.00    -0.228 C  
BRANCH   5   6
HETATM    6  C   UNL     1     -11.557  10.032  70.654  1.00  0.00    -0.340 C  
HETATM    7  H   UNL     1     -12.522  11.454  71.528  1.00  0.00     0.000 HD 
HETATM    8  O   UNL     1     -12.498  10.505  71.504  1.00  0.00    -0.380 OA 
BRANCH   6   9
HETATM    9  N   UNL     1     -10.786  10.764  69.930  1.00  0.00    -0.443 NA 
HETATM   10  H   UNL     1      -9.781  10.729  70.099  1.00  0.00     0.000 HD 
BRANCH   9  11
HETATM   11  C   UNL     1     -11.270  11.617  68.907  1.00  0.00    -0.246 A  
HETATM   12  C   UNL     1     -11.712  12.947  69.121  1.00  0.00    -0.376 A  
HETATM   13  C   UNL     1     -12.077  13.753  68.028  1.00  0.00    -0.315 A  
HETATM   14  C   UNL     1     -11.863  13.582  70.473  1.00  0.00    -0.254 C  
HETATM   15  C   UNL     1     -11.950  13.296  66.725  1.00  0.00    -0.438 A  
HETATM   16  C   UNL     1     -11.491  12.006  66.495  1.00  0.00    -0.413 A  
HETATM   17  C   UNL     1     -11.161  11.159  67.570  1.00  0.00    -0.369 A  
HETATM   18  C   UNL     1     -10.687   9.764  67.249  1.00  0.00    -0.296 C  
ENDBRANCH   9  11
ENDBRANCH   6   9
ENDBRANCH   5   6
BRANCH   5  19
HETATM   19  C   UNL     1     -12.708   8.000  71.481  1.00  0.00    -0.325 C  
HETATM   20  C   UNL     1     -12.643   6.534  71.913  1.00  0.00    -0.238 C  
ENDBRANCH   5  19
ENDBRANCH   4   5
BRANCH   4  21
HETATM   21  C   UNL     1      -9.725   8.619  72.329  1.00  0.00    -0.286 C  
HETATM   22  C   UNL     1      -9.575   7.697  73.540  1.00  0.00    -0.348 C  
ENDBRANCH   4  21
ENDBRANCH   3   4
ENDBRANCH   2   3
TORSDOF 8
ENDMDL
MODEL      232
REMARK 921   NORMALIZED FREE ENERGY PREDICTED BY IDOCK:   -3.44 KCAL/MOL
REMARK 922        TOTAL FREE ENERGY PREDICTED BY IDOCK:   -6.02 KCAL/MOL
REMARK 923 INTER-LIGAND FREE ENERGY PREDICTED BY IDOCK:   -6.33 KCAL/MOL
REMARK 924 INTRA-LIGAND FREE ENERGY PREDICTED BY IDOCK:    0.31 KCAL/MOL
REMARK 927      BINDING AFFINITY PREDICTED BY RF-SCORE:    0.00 PKD
ROOT
HETATM    1  C   UNL     1     -10.479  20.197  67.244  1.00  0.00    -0.430 C  
HETATM    2  C   UNL     1      -9.540  19.542  68.247  1.00  0.00    -0.464 C  
ENDROOT
BRANCH   2   3
HETATM    3  C   UNL     1     -10.197  18.373  69.010  1.00  0.00    -0.167 C  
BRANCH   3   4
HETATM    4  N   UNL     1      -9.894  17.001  68.527  1.00  0.00    -0.276 NA 
BRANCH   4   5
HETATM    5  C   UNL     1      -8.938  17.018  67.352  1.00  0.00    -0.211 C  
BRANCH   5   6
HETATM    6  C   UNL     1      -9.605  16.381  66.128  1.00  0.00    -0.325 C  
HETATM    7  H   UNL     1     -10.956  16.788  64.813  1.00  0.00     0.000 HD 
HETATM    8  O   UNL     1     -10.543  17.183  65.572  1.00  0.00    -0.563 OA 
BRANCH   6   9
HETATM    9  N   UNL     1      -9.306  15.201  65.710  1.00  0.00    -0.459 NA 
HETATM   10  H   UNL     1      -8.464  15.082  65.148  1.00  0.00     0.000 HD 
BRANCH   9  11
HETATM   11  C   UNL     1     -10.096  14.059  65.997  1.00  0.00    -0.315 A  
HETATM   12  C   UNL     1      -9.746  13.067  66.948  1.00  0.00    -0.238 A  
HETATM   13  C   UNL     1     -10.644  12.025  67.241  1.00  0.00    -0.252 A  
HETATM   14  C   UNL     1      -8.433  13.014  67.672  1.00  0.00    -0.187 C  
HETATM   15  C   UNL     1     -11.904  11.979  66.665  1.00  0.00    -0.239 A  
HETATM   16  C   UNL     1     -12.275  12.959  65.754  1.00  0.00    -0.498 A  
HETATM   17  C   UNL     1     -11.382  13.990  65.405  1.00  0.00    -0.315 A  
HETATM   18  C   UNL     1     -11.842  15.011  64.394  1.00  0.00    -0.349 C  
ENDBRANCH   9  11
ENDBRANCH   6   9
ENDBRANCH   5   6
BRANCH   5  19
HETATM   19  C   UNL     1      -7.594  16.269  67.570  1.00  0.00    -0.170 C  
HETATM   20  C   UNL     1      -7.174  16.074  69.028  1.00  0.00    -0.182 C  
ENDBRANCH   5  19
ENDBRANCH   4   5
BRANCH   4  21
HETATM   21  C   UNL     1     -11.150  16.275  68.199  1.00  0.00    -0.329 C  
HETATM   22  C   UNL     1     -11.720  15.322  69.251  1.00  0.00    -0.359 C  
ENDBRANCH   4  21
ENDBRANCH   3   4
ENDBRANCH   2   3
TORSDOF 8
ENDMDL
MODEL      233
REMARK 921   NORMALIZED FREE ENERGY PREDICTED BY IDOCK:   -3.42 KCAL/MOL
REMARK 922        TOTAL FREE ENERGY PREDICTED BY IDOCK:   -6.00 KCAL/MOL
REMARK 923 INTER-LIGAND FREE ENERGY PREDICTED BY IDOCK:   -5.00 KCAL/MOL
REMARK 924 INTRA-LIGAND FREE ENERGY PREDICTED BY IDOCK:   -1.00 KCAL/MOL
REMARK 927      BINDING AFFINITY PREDICTED BY RF-SCORE:    0.00 PKD
ROOT
HETATM    1  C   UNL     1      -8.372   8.071  65.943  1.00  0.00    -0.136 C  
HETATM    2  C   UNL     1      -9.740   8.237  66.589  1.00  0.00    -0.321 C  
ENDROOT
BRANCH   2   3
HETATM    3  C   UNL     1      -9.692   8.144  68.128  1.00  0.00    -0.161 C  
BRANCH   3   4
HETATM    4  N   UNL     1     -10.413   9.197  68.888  1.00  0.00    -0.222 NA 
BRANCH   4   5
HETATM    5  C   UNL     1      -9.468  10.264  69.402  1.00  0.00    -0.206 C  
BRANCH   5   6
HETATM    6  C   UNL     1      -9.548  11.506  68.507  1.00  0.00    -0.178 C  
HETATM    7  H   UNL     1      -8.423  12.945  67.889  1.00  0.00     0.000 HD 
HETATM    8  O   UNL     1      -8.373  12.176  68.444  1.00  0.00    -0.160 OA 
BRANCH   6   9
HETATM    9  N   UNL     1     -10.631  11.865  67.912  1.00  0.00    -0.195 NA 
HETATM   10  H   UNL     1     -11.469  11.298  68.042  1.00  0.00     0.000 HD 
BRANCH   9  11
HETATM   11  C   UNL     1     -10.713  13.013  67.085  1.00  0.00    -0.254 A  
HETATM   12  C   UNL     1     -10.731  14.345  67.570  1.00  0.00    -0.271 A  
HETATM   13  C   UNL     1     -10.706  15.424  66.668  1.00  0.00    -0.309 A  
HETATM   14  C   UNL     1     -10.811  14.716  69.022  1.00  0.00    -0.252 C  
HETATM   15  C   UNL     1     -10.596  15.215  65.302  1.00  0.00    -0.432 A  
HETATM   16  C   UNL     1     -10.548  13.917  64.810  1.00  0.00    -0.444 A  
HETATM   17  C   UNL     1     -10.616  12.816  65.684  1.00  0.00    -0.297 A  
HETATM   18  C   UNL     1     -10.577  11.434  65.082  1.00  0.00    -0.352 C  
ENDBRANCH   9  11
ENDBRANCH   6   9
ENDBRANCH   5   6
BRANCH   5  19
HETATM   19  C   UNL     1      -7.970   9.856  69.469  1.00  0.00    -0.149 C  
HETATM   20  C   UNL     1      -7.522   9.193  70.773  1.00  0.00    -0.133 C  
ENDBRANCH   5  19
ENDBRANCH   4   5
BRANCH   4  21
HETATM   21  C   UNL     1     -11.206   8.593  69.993  1.00  0.00    -0.094 C  
HETATM   22  C   UNL     1     -11.526   9.469  71.204  1.00  0.00    -0.430 C  
ENDBRANCH   4  21
ENDBRANCH   3   4
ENDBRANCH   2   3
TORSDOF 8
ENDMDL
MODEL      234
REMARK 921   NORMALIZED FREE ENERGY PREDICTED BY IDOCK:   -3.42 KCAL/MOL
REMARK 922        TOTAL FREE ENERGY PREDICTED BY IDOCK:   -5.99 KCAL/MOL
REMARK 923 INTER-LIGAND FREE ENERGY PREDICTED BY IDOCK:   -5.92 KCAL/MOL
REMARK 924 INTRA-LIGAND FREE ENERGY PREDICTED BY IDOCK:   -0.07 KCAL/MOL
REMARK 927      BINDING AFFINITY PREDICTED BY RF-SCORE:    0.00 PKD
ROOT
HETATM    1  C   UNL     1     -14.410   8.653  72.263  1.00  0.00    -0.486 C  
HETATM    2  C   UNL     1     -13.069   8.610  71.545  1.00  0.00    -0.339 C  
ENDROOT
BRANCH   2   3
HETATM    3  C   UNL     1     -12.115   9.740  71.987  1.00  0.00    -0.123 C  
BRANCH   3   4
HETATM    4  N   UNL     1     -11.204  10.294  70.951  1.00  0.00    -0.310 NA 
BRANCH   4   5
HETATM    5  C   UNL     1     -11.972  10.892  69.791  1.00  0.00    -0.351 C  
BRANCH   5   6
HETATM    6  C   UNL     1     -11.092  10.904  68.535  1.00  0.00    -0.256 C  
HETATM    7  H   UNL     1      -9.435  11.667  67.910  1.00  0.00     0.000 HD 
HETATM    8  O   UNL     1      -9.980  11.660  68.688  1.00  0.00    -0.209 OA 
BRANCH   6   9
HETATM    9  N   UNL     1     -11.412  10.277  67.457  1.00  0.00    -0.515 NA 
HETATM   10  H   UNL     1     -12.103   9.529  67.516  1.00  0.00     0.000 HD 
BRANCH   9  11
HETATM   11  C   UNL     1     -10.847  10.578  66.193  1.00  0.00     0.043 A  
HETATM   12  C   UNL     1     -11.051  11.798  65.500  1.00  0.00    -0.336 A  
HETATM   13  C   UNL     1     -10.363  12.049  64.299  1.00  0.00    -0.357 A  
HETATM   14  C   UNL     1     -12.002  12.872  65.938  1.00  0.00    -0.504 C  
HETATM   15  C   UNL     1      -9.429  11.151  63.805  1.00  0.00    -0.258 A  
HETATM   16  C   UNL     1      -9.195   9.964  64.487  1.00  0.00    -0.315 A  
HETATM   17  C   UNL     1      -9.901   9.663  65.667  1.00  0.00    -0.369 A  
HETATM   18  C   UNL     1      -9.612   8.348  66.346  1.00  0.00    -0.307 C  
ENDBRANCH   9  11
ENDBRANCH   6   9
ENDBRANCH   5   6
BRANCH   5  19
HETATM   19  C   UNL     1     -12.473  12.348  69.999  1.00  0.00    -0.037 C  
HETATM   20  C   UNL     1     -12.539  12.824  71.452  1.00  0.00    -0.308 C  
ENDBRANCH   5  19
ENDBRANCH   4   5
BRANCH   4  21
HETATM   21  C   UNL     1     -10.244   9.253  70.493  1.00  0.00    -0.251 C  
HETATM   22  C   UNL     1      -9.214   8.739  71.499  1.00  0.00    -0.332 C  
ENDBRANCH   4  21
ENDBRANCH   3   4
ENDBRANCH   2   3
TORSDOF 8
ENDMDL
MODEL      235
REMARK 921   NORMALIZED FREE ENERGY PREDICTED BY IDOCK:   -3.42 KCAL/MOL
REMARK 922        TOTAL FREE ENERGY PREDICTED BY IDOCK:   -5.99 KCAL/MOL
REMARK 923 INTER-LIGAND FREE ENERGY PREDICTED BY IDOCK:   -5.71 KCAL/MOL
REMARK 924 INTRA-LIGAND FREE ENERGY PREDICTED BY IDOCK:   -0.28 KCAL/MOL
REMARK 927      BINDING AFFINITY PREDICTED BY RF-SCORE:    0.00 PKD
ROOT
HETATM    1  C   UNL     1     -10.859  15.352  65.052  1.00  0.00    -0.462 C  
HETATM    2  C   UNL     1     -10.391  14.734  66.361  1.00  0.00    -0.297 C  
ENDROOT
BRANCH   2   3
HETATM    3  C   UNL     1     -11.457  13.830  67.014  1.00  0.00    -0.346 C  
BRANCH   3   4
HETATM    4  N   UNL     1     -10.971  12.790  67.958  1.00  0.00    -0.229 NA 
BRANCH   4   5
HETATM    5  C   UNL     1     -11.175  11.393  67.408  1.00  0.00    -0.305 C  
BRANCH   5   6
HETATM    6  C   UNL     1     -11.266  10.387  68.562  1.00  0.00    -0.251 C  
HETATM    7  H   UNL     1     -12.526   9.789  69.892  1.00  0.00     0.000 HD 
HETATM    8  O   UNL     1     -12.470  10.413  69.178  1.00  0.00    -0.117 OA 
BRANCH   6   9
HETATM    9  N   UNL     1     -10.281   9.631  68.902  1.00  0.00    -0.193 NA 
HETATM   10  H   UNL     1      -9.339  10.021  68.886  1.00  0.00     0.000 HD 
BRANCH   9  11
HETATM   11  C   UNL     1     -10.448   8.281  69.298  1.00  0.00    -0.210 A  
HETATM   12  C   UNL     1     -10.585   7.196  68.396  1.00  0.00    -0.223 A  
HETATM   13  C   UNL     1     -10.639   5.878  68.882  1.00  0.00    -0.357 A  
HETATM   14  C   UNL     1     -10.716   7.344  66.908  1.00  0.00    -0.324 C  
HETATM   15  C   UNL     1     -10.495   5.604  70.233  1.00  0.00    -0.363 A  
HETATM   16  C   UNL     1     -10.330   6.652  71.129  1.00  0.00    -0.232 A  
HETATM   17  C   UNL     1     -10.317   7.985  70.679  1.00  0.00    -0.211 A  
HETATM   18  C   UNL     1     -10.154   9.076  71.708  1.00  0.00    -0.373 C  
ENDBRANCH   9  11
ENDBRANCH   6   9
ENDBRANCH   5   6
BRANCH   5  19
HETATM   19  C   UNL     1     -10.062  10.880  66.453  1.00  0.00    -0.280 C  
HETATM   20  C   UNL     1     -10.388  10.946  64.960  1.00  0.00    -0.356 C  
ENDBRANCH   5  19
ENDBRANCH   4   5
BRANCH   4  21
HETATM   21  C   UNL     1     -11.616  12.953  69.289  1.00  0.00    -0.310 C  
HETATM   22  C   UNL     1     -12.398  14.241  69.550  1.00  0.00    -0.272 C  
ENDBRANCH   4  21
ENDBRANCH   3   4
ENDBRANCH   2   3
TORSDOF 8
ENDMDL
MODEL      236
REMARK 921   NORMALIZED FREE ENERGY PREDICTED BY IDOCK:   -3.42 KCAL/MOL
REMARK 922        TOTAL FREE ENERGY PREDICTED BY IDOCK:   -5.99 KCAL/MOL
REMARK 923 INTER-LIGAND FREE ENERGY PREDICTED BY IDOCK:   -4.66 KCAL/MOL
REMARK 924 INTRA-LIGAND FREE ENERGY PREDICTED BY IDOCK:   -1.33 KCAL/MOL
REMARK 927      BINDING AFFINITY PREDICTED BY RF-SCORE:    0.00 PKD
ROOT
HETATM    1  C   UNL     1     -12.982  10.367  71.587  1.00  0.00    -0.581 C  
HETATM    2  C   UNL     1     -11.492  10.316  71.281  1.00  0.00    -0.233 C  
ENDROOT
BRANCH   2   3
HETATM    3  C   UNL     1     -11.180   9.662  69.919  1.00  0.00    -0.207 C  
BRANCH   3   4
HETATM    4  N   UNL     1     -10.006   8.754  69.862  1.00  0.00    -0.182 NA 
BRANCH   4   5
HETATM    5  C   UNL     1     -10.252   7.470  70.628  1.00  0.00    -0.202 C  
BRANCH   5   6
HETATM    6  C   UNL     1      -9.217   6.414  70.223  1.00  0.00    -0.155 C  
HETATM    7  H   UNL     1      -8.436   5.660  68.630  1.00  0.00     0.000 HD 
HETATM    8  O   UNL     1      -9.078   6.314  68.881  1.00  0.00    -0.125 OA 
BRANCH   6   9
HETATM    9  N   UNL     1      -8.582   5.698  71.084  1.00  0.00    -0.126 NA 
HETATM   10  H   UNL     1      -7.564   5.670  71.038  1.00  0.00     0.000 HD 
BRANCH   9  11
HETATM   11  C   UNL     1      -9.235   4.948  72.093  1.00  0.00    -0.135 A  
HETATM   12  C   UNL     1      -9.541   5.446  73.385  1.00  0.00    -0.151 A  
HETATM   13  C   UNL     1     -10.287   4.662  74.283  1.00  0.00    -0.311 A  
HETATM   14  C   UNL     1      -9.091   6.779  73.907  1.00  0.00    -0.195 C  
HETATM   15  C   UNL     1     -10.791   3.426  73.911  1.00  0.00    -0.299 A  
HETATM   16  C   UNL     1     -10.526   2.934  72.639  1.00  0.00    -0.180 A  
HETATM   17  C   UNL     1      -9.745   3.675  71.732  1.00  0.00    -0.233 A  
HETATM   18  C   UNL     1      -9.480   3.074  70.375  1.00  0.00    -0.218 C  
ENDBRANCH   9  11
ENDBRANCH   6   9
ENDBRANCH   5   6
BRANCH   5  19
HETATM   19  C   UNL     1     -11.652   6.826  70.423  1.00  0.00    -0.422 C  
HETATM   20  C   UNL     1     -12.499   6.667  71.687  1.00  0.00    -0.353 C  
ENDBRANCH   5  19
ENDBRANCH   4   5
BRANCH   4  21
HETATM   21  C   UNL     1      -8.784   9.452  70.346  1.00  0.00    -0.240 C  
HETATM   22  C   UNL     1      -7.675   9.733  69.331  1.00  0.00    -0.109 C  
ENDBRANCH   4  21
ENDBRANCH   3   4
ENDBRANCH   2   3
TORSDOF 8
ENDMDL
MODEL      237
REMARK 921   NORMALIZED FREE ENERGY PREDICTED BY IDOCK:   -3.41 KCAL/MOL
REMARK 922        TOTAL FREE ENERGY PREDICTED BY IDOCK:   -5.98 KCAL/MOL
REMARK 923 INTER-LIGAND FREE ENERGY PREDICTED BY IDOCK:   -5.26 KCAL/MOL
REMARK 924 INTRA-LIGAND FREE ENERGY PREDICTED BY IDOCK:   -0.72 KCAL/MOL
REMARK 927      BINDING AFFINITY PREDICTED BY RF-SCORE:    0.00 PKD
ROOT
HETATM    1  C   UNL     1     -13.080   9.359  71.301  1.00  0.00    -0.363 C  
HETATM    2  C   UNL     1     -12.837  10.639  70.514  1.00  0.00    -0.356 C  
ENDROOT
BRANCH   2   3
HETATM    3  C   UNL     1     -11.354  10.839  70.137  1.00  0.00    -0.309 C  
BRANCH   3   4
HETATM    4  N   UNL     1     -11.074  11.462  68.817  1.00  0.00    -0.215 NA 
BRANCH   4   5
HETATM    5  C   UNL     1     -11.809  12.776  68.650  1.00  0.00    -0.304 C  
BRANCH   5   6
HETATM    6  C   UNL     1     -11.415  13.428  67.319  1.00  0.00    -0.340 C  
HETATM    7  H   UNL     1     -12.245  14.252  65.786  1.00  0.00     0.000 HD 
HETATM    8  O   UNL     1     -12.489  13.848  66.610  1.00  0.00    -0.407 OA 
BRANCH   6   9
HETATM    9  N   UNL     1     -10.192  13.529  66.930  1.00  0.00    -0.253 NA 
HETATM   10  H   UNL     1      -9.880  12.951  66.151  1.00  0.00     0.000 HD 
BRANCH   9  11
HETATM   11  C   UNL     1      -9.261  14.407  67.538  1.00  0.00    -0.200 A  
HETATM   12  C   UNL     1      -9.417  15.815  67.601  1.00  0.00    -0.218 A  
HETATM   13  C   UNL     1      -8.492  16.595  68.318  1.00  0.00    -0.203 A  
HETATM   14  C   UNL     1     -10.510  16.577  66.912  1.00  0.00    -0.282 C  
HETATM   15  C   UNL     1      -7.456  16.008  69.029  1.00  0.00    -0.202 A  
HETATM   16  C   UNL     1      -7.305  14.628  69.003  1.00  0.00    -0.134 A  
HETATM   17  C   UNL     1      -8.187  13.824  68.257  1.00  0.00    -0.156 A  
HETATM   18  C   UNL     1      -7.954  12.334  68.257  1.00  0.00    -0.163 C  
ENDBRANCH   9  11
ENDBRANCH   6   9
ENDBRANCH   5   6
BRANCH   5  19
HETATM   19  C   UNL     1     -11.551  13.833  69.759  1.00  0.00    -0.324 C  
HETATM   20  C   UNL     1     -12.801  14.413  70.424  1.00  0.00    -0.301 C  
ENDBRANCH   5  19
ENDBRANCH   4   5
BRANCH   4  21
HETATM   21  C   UNL     1     -11.394  10.513  67.716  1.00  0.00    -0.190 C  
HETATM   22  C   UNL     1     -10.471   9.310  67.520  1.00  0.00    -0.338 C  
ENDBRANCH   4  21
ENDBRANCH   3   4
ENDBRANCH   2   3
TORSDOF 8
ENDMDL
MODEL      238
REMARK 921   NORMALIZED FREE ENERGY PREDICTED BY IDOCK:   -3.40 KCAL/MOL
REMARK 922        TOTAL FREE ENERGY PREDICTED BY IDOCK:   -5.97 KCAL/MOL
REMARK 923 INTER-LIGAND FREE ENERGY PREDICTED BY IDOCK:   -5.98 KCAL/MOL
REMARK 924 INTRA-LIGAND FREE ENERGY PREDICTED BY IDOCK:    0.01 KCAL/MOL
REMARK 927      BINDING AFFINITY PREDICTED BY RF-SCORE:    0.00 PKD
ROOT
HETATM    1  C   UNL     1      -6.965  15.145  69.553  1.00  0.00    -0.189 C  
HETATM    2  C   UNL     1      -6.790  15.267  68.046  1.00  0.00    -0.152 C  
ENDROOT
BRANCH   2   3
HETATM    3  C   UNL     1      -8.072  15.738  67.329  1.00  0.00    -0.188 C  
BRANCH   3   4
HETATM    4  N   UNL     1      -8.423  17.177  67.456  1.00  0.00    -0.197 NA 
BRANCH   4   5
HETATM    5  C   UNL     1      -9.919  17.380  67.580  1.00  0.00    -0.300 C  
BRANCH   5   6
HETATM    6  C   UNL     1     -10.656  16.417  66.642  1.00  0.00    -0.239 C  
HETATM    7  H   UNL     1     -10.667  15.896  64.786  1.00  0.00     0.000 HD 
HETATM    8  O   UNL     1     -10.211  16.493  65.367  1.00  0.00    -0.566 OA 
BRANCH   6   9
HETATM    9  N   UNL     1     -11.608  15.649  67.044  1.00  0.00     0.039 NA 
HETATM   10  H   UNL     1     -12.501  16.072  67.298  1.00  0.00     0.000 HD 
BRANCH   9  11
HETATM   11  C   UNL     1     -11.471  14.243  67.150  1.00  0.00    -0.359 A  
HETATM   12  C   UNL     1     -11.576  13.347  66.056  1.00  0.00    -0.375 A  
HETATM   13  C   UNL     1     -11.319  11.977  66.241  1.00  0.00    -0.415 A  
HETATM   14  C   UNL     1     -11.986  13.748  64.670  1.00  0.00    -0.445 C  
HETATM   15  C   UNL     1     -10.898  11.483  67.465  1.00  0.00    -0.285 A  
HETATM   16  C   UNL     1     -10.761  12.351  68.541  1.00  0.00    -0.262 A  
HETATM   17  C   UNL     1     -11.054  13.720  68.400  1.00  0.00    -0.287 A  
HETATM   18  C   UNL     1     -10.903  14.603  69.614  1.00  0.00    -0.211 C  
ENDBRANCH   9  11
ENDBRANCH   6   9
ENDBRANCH   5   6
BRANCH   5  19
HETATM   19  C   UNL     1     -10.431  18.809  67.246  1.00  0.00    -0.489 C  
HETATM   20  C   UNL     1     -10.313  19.835  68.374  1.00  0.00    -0.513 C  
ENDBRANCH   5  19
ENDBRANCH   4   5
BRANCH   4  21
HETATM   21  C   UNL     1      -7.859  17.952  66.318  1.00  0.00    -0.261 C  
HETATM   22  C   UNL     1      -6.354  17.859  66.068  1.00  0.00    -0.288 C  
ENDBRANCH   4  21
ENDBRANCH   3   4
ENDBRANCH   2   3
TORSDOF 8
ENDMDL
MODEL      239
REMARK 921   NORMALIZED FREE ENERGY PREDICTED BY IDOCK:   -3.40 KCAL/MOL
REMARK 922        TOTAL FREE ENERGY PREDICTED BY IDOCK:   -5.96 KCAL/MOL
REMARK 923 INTER-LIGAND FREE ENERGY PREDICTED BY IDOCK:   -5.65 KCAL/MOL
REMARK 924 INTRA-LIGAND FREE ENERGY PREDICTED BY IDOCK:   -0.31 KCAL/MOL
REMARK 927      BINDING AFFINITY PREDICTED BY RF-SCORE:    0.00 PKD
ROOT
HETATM    1  C   UNL     1      -6.745  17.560  66.467  1.00  0.00    -0.276 C  
HETATM    2  C   UNL     1      -7.648  16.357  66.696  1.00  0.00    -0.288 C  
ENDROOT
BRANCH   2   3
HETATM    3  C   UNL     1      -9.121  16.633  66.328  1.00  0.00    -0.298 C  
BRANCH   3   4
HETATM    4  N   UNL     1     -10.155  16.103  67.254  1.00  0.00    -0.259 NA 
BRANCH   4   5
HETATM    5  C   UNL     1     -11.169  15.243  66.529  1.00  0.00    -0.228 C  
BRANCH   5   6
HETATM    6  C   UNL     1     -11.198  13.839  67.145  1.00  0.00    -0.311 C  
HETATM    7  H   UNL     1     -12.202  12.198  67.013  1.00  0.00     0.000 HD 
HETATM    8  O   UNL     1     -12.184  13.068  66.631  1.00  0.00    -0.375 OA 
BRANCH   6   9
HETATM    9  N   UNL     1     -10.380  13.468  68.066  1.00  0.00    -0.235 NA 
HETATM   10  H   UNL     1      -9.821  14.180  68.536  1.00  0.00     0.000 HD 
BRANCH   9  11
HETATM   11  C   UNL     1     -10.221  12.116  68.457  1.00  0.00    -0.207 A  
HETATM   12  C   UNL     1     -11.096  11.433  69.339  1.00  0.00    -0.301 A  
HETATM   13  C   UNL     1     -10.917  10.059  69.585  1.00  0.00    -0.301 A  
HETATM   14  C   UNL     1     -12.221  12.084  70.088  1.00  0.00    -0.309 C  
HETATM   15  C   UNL     1      -9.935   9.334  68.928  1.00  0.00    -0.190 A  
HETATM   16  C   UNL     1      -9.088   9.980  68.039  1.00  0.00    -0.132 A  
HETATM   17  C   UNL     1      -9.212  11.363  67.805  1.00  0.00    -0.159 A  
HETATM   18  C   UNL     1      -8.246  12.005  66.841  1.00  0.00    -0.146 C  
ENDBRANCH   9  11
ENDBRANCH   6   9
ENDBRANCH   5   6
BRANCH   5  19
HETATM   19  C   UNL     1     -10.923  15.058  65.005  1.00  0.00    -0.436 C  
HETATM   20  C   UNL     1     -10.501  13.654  64.569  1.00  0.00    -0.411 C  
ENDBRANCH   5  19
ENDBRANCH   4   5
BRANCH   4  21
HETATM   21  C   UNL     1     -10.812  17.215  67.993  1.00  0.00    -0.317 C  
HETATM   22  C   UNL     1     -10.625  18.636  67.458  1.00  0.00    -0.472 C  
ENDBRANCH   4  21
ENDBRANCH   3   4
ENDBRANCH   2   3
TORSDOF 8
ENDMDL
MODEL      240
REMARK 921   NORMALIZED FREE ENERGY PREDICTED BY IDOCK:   -3.39 KCAL/MOL
REMARK 922        TOTAL FREE ENERGY PREDICTED BY IDOCK:   -5.95 KCAL/MOL
REMARK 923 INTER-LIGAND FREE ENERGY PREDICTED BY IDOCK:   -5.29 KCAL/MOL
REMARK 924 INTRA-LIGAND FREE ENERGY PREDICTED BY IDOCK:   -0.66 KCAL/MOL
REMARK 927      BINDING AFFINITY PREDICTED BY RF-SCORE:    0.00 PKD
ROOT
HETATM    1  C   UNL     1      -6.501   8.936  70.109  1.00  0.00    -0.039 C  
HETATM    2  C   UNL     1      -6.621   7.532  69.534  1.00  0.00    -0.036 C  
ENDROOT
BRANCH   2   3
HETATM    3  C   UNL     1      -7.532   7.469  68.290  1.00  0.00    -0.109 C  
BRANCH   3   4
HETATM    4  N   UNL     1      -8.630   6.467  68.311  1.00  0.00    -0.116 NA 
BRANCH   4   5
HETATM    5  C   UNL     1      -9.989   7.122  68.171  1.00  0.00    -0.151 C  
BRANCH   5   6
HETATM    6  C   UNL     1     -10.625   7.302  69.554  1.00  0.00    -0.234 C  
HETATM    7  H   UNL     1     -11.997   6.510  70.654  1.00  0.00     0.000 HD 
HETATM    8  O   UNL     1     -11.603   6.398  69.796  1.00  0.00    -0.431 OA 
BRANCH   6   9
HETATM    9  N   UNL     1     -10.268   8.234  70.367  1.00  0.00    -0.198 NA 
HETATM   10  H   UNL     1      -9.417   8.105  70.913  1.00  0.00     0.000 HD 
BRANCH   9  11
HETATM   11  C   UNL     1     -11.005   9.433  70.536  1.00  0.00    -0.274 A  
HETATM   12  C   UNL     1     -10.915  10.553  69.672  1.00  0.00    -0.333 A  
HETATM   13  C   UNL     1     -11.765  11.658  69.860  1.00  0.00    -0.414 A  
HETATM   14  C   UNL     1      -9.928  10.678  68.549  1.00  0.00    -0.176 C  
HETATM   15  C   UNL     1     -12.745  11.652  70.840  1.00  0.00    -0.351 A  
HETATM   16  C   UNL     1     -12.867  10.551  71.677  1.00  0.00    -0.581 A  
HETATM   17  C   UNL     1     -12.002   9.448  71.544  1.00  0.00    -0.456 A  
HETATM   18  C   UNL     1     -12.178   8.294  72.499  1.00  0.00    -0.367 C  
ENDBRANCH   9  11
ENDBRANCH   6   9
ENDBRANCH   5   6
BRANCH   5  19
HETATM   19  C   UNL     1     -11.019   6.348  67.302  1.00  0.00    -0.474 C  
HETATM   20  C   UNL     1     -10.441   5.239  66.421  1.00  0.00    -0.347 C  
ENDBRANCH   5  19
ENDBRANCH   4   5
BRANCH   4  21
HETATM   21  C   UNL     1      -8.549   5.632  69.540  1.00  0.00    -0.110 C  
HETATM   22  C   UNL     1      -8.509   4.113  69.369  1.00  0.00    -0.096 C  
ENDBRANCH   4  21
ENDBRANCH   3   4
ENDBRANCH   2   3
TORSDOF 8
ENDMDL
MODEL      241
REMARK 921   NORMALIZED FREE ENERGY PREDICTED BY IDOCK:   -3.39 KCAL/MOL
REMARK 922        TOTAL FREE ENERGY PREDICTED BY IDOCK:   -5.94 KCAL/MOL
REMARK 923 INTER-LIGAND FREE ENERGY PREDICTED BY IDOCK:   -4.83 KCAL/MOL
REMARK 924 INTRA-LIGAND FREE ENERGY PREDICTED BY IDOCK:   -1.12 KCAL/MOL
REMARK 927      BINDING AFFINITY PREDICTED BY RF-SCORE:    0.00 PKD
ROOT
HETATM    1  C   UNL     1     -11.377   6.270  69.327  1.00  0.00    -0.411 C  
HETATM    2  C   UNL     1     -10.636   5.467  70.387  1.00  0.00    -0.350 C  
ENDROOT
BRANCH   2   3
HETATM    3  C   UNL     1      -9.253   6.059  70.731  1.00  0.00    -0.154 C  
BRANCH   3   4
HETATM    4  N   UNL     1      -9.168   7.536  70.866  1.00  0.00    -0.153 NA 
BRANCH   4   5
HETATM    5  C   UNL     1      -8.226   8.140  69.844  1.00  0.00    -0.118 C  
BRANCH   5   6
HETATM    6  C   UNL     1      -8.752   9.508  69.394  1.00  0.00    -0.165 C  
HETATM    7  H   UNL     1      -8.241  11.366  69.444  1.00  0.00     0.000 HD 
HETATM    8  O   UNL     1      -7.915  10.519  69.723  1.00  0.00    -0.127 OA 
BRANCH   6   9
HETATM    9  N   UNL     1      -9.881   9.654  68.792  1.00  0.00    -0.160 NA 
HETATM   10  H   UNL     1     -10.213   8.901  68.190  1.00  0.00     0.000 HD 
BRANCH   9  11
HETATM   11  C   UNL     1     -10.684  10.813  68.931  1.00  0.00    -0.222 A  
HETATM   12  C   UNL     1     -11.555  11.054  70.023  1.00  0.00    -0.427 A  
HETATM   13  C   UNL     1     -12.231  12.283  70.127  1.00  0.00    -0.302 A  
HETATM   14  C   UNL     1     -11.854  10.057  71.103  1.00  0.00    -0.481 C  
HETATM   15  C   UNL     1     -12.015  13.302  69.212  1.00  0.00    -0.354 A  
HETATM   16  C   UNL     1     -11.142  13.094  68.152  1.00  0.00    -0.284 A  
HETATM   17  C   UNL     1     -10.484  11.860  67.995  1.00  0.00    -0.228 A  
HETATM   18  C   UNL     1      -9.565  11.695  66.811  1.00  0.00    -0.207 C  
ENDBRANCH   9  11
ENDBRANCH   6   9
ENDBRANCH   5   6
BRANCH   5  19
HETATM   19  C   UNL     1      -8.007   7.299  68.556  1.00  0.00    -0.124 C  
HETATM   20  C   UNL     1      -6.779   7.671  67.723  1.00  0.00    -0.067 C  
ENDBRANCH   5  19
ENDBRANCH   4   5
BRANCH   4  21
HETATM   21  C   UNL     1      -8.782   7.911  72.253  1.00  0.00    -0.147 C  
HETATM   22  C   UNL     1      -9.832   7.752  73.353  1.00  0.00    -0.346 C  
ENDBRANCH   4  21
ENDBRANCH   3   4
ENDBRANCH   2   3
TORSDOF 8
ENDMDL
MODEL      242
REMARK 921   NORMALIZED FREE ENERGY PREDICTED BY IDOCK:   -3.38 KCAL/MOL
REMARK 922        TOTAL FREE ENERGY PREDICTED BY IDOCK:   -5.94 KCAL/MOL
REMARK 923 INTER-LIGAND FREE ENERGY PREDICTED BY IDOCK:   -5.22 KCAL/MOL
REMARK 924 INTRA-LIGAND FREE ENERGY PREDICTED BY IDOCK:   -0.72 KCAL/MOL
REMARK 927      BINDING AFFINITY PREDICTED BY RF-SCORE:    0.00 PKD
ROOT
HETATM    1  C   UNL     1      -8.280   7.709  65.459  1.00  0.00    -0.135 C  
HETATM    2  C   UNL     1      -9.241   8.191  66.536  1.00  0.00    -0.237 C  
ENDROOT
BRANCH   2   3
HETATM    3  C   UNL     1      -8.846   9.562  67.124  1.00  0.00    -0.131 C  
BRANCH   3   4
HETATM    4  N   UNL     1      -9.779  10.163  68.112  1.00  0.00    -0.139 NA 
BRANCH   4   5
HETATM    5  C   UNL     1     -10.244  11.539  67.679  1.00  0.00    -0.184 C  
BRANCH   5   6
HETATM    6  C   UNL     1      -9.079  12.307  67.045  1.00  0.00    -0.201 C  
HETATM    7  H   UNL     1      -7.395  13.099  67.549  1.00  0.00     0.000 HD 
HETATM    8  O   UNL     1      -8.117  12.623  67.942  1.00  0.00    -0.140 OA 
BRANCH   6   9
HETATM    9  N   UNL     1      -9.055  12.627  65.798  1.00  0.00    -0.418 NA 
HETATM   10  H   UNL     1      -8.156  12.649  65.318  1.00  0.00     0.000 HD 
BRANCH   9  11
HETATM   11  C   UNL     1     -10.223  12.948  65.063  1.00  0.00    -0.269 A  
HETATM   12  C   UNL     1     -10.876  14.205  65.113  1.00  0.00    -0.380 A  
HETATM   13  C   UNL     1     -11.968  14.466  64.266  1.00  0.00    -0.433 A  
HETATM   14  C   UNL     1     -10.507  15.314  66.055  1.00  0.00    -0.328 C  
HETATM   15  C   UNL     1     -12.386  13.538  63.326  1.00  0.00    -0.150 A  
HETATM   16  C   UNL     1     -11.739  12.312  63.241  1.00  0.00    -0.451 A  
HETATM   17  C   UNL     1     -10.672  12.003  64.106  1.00  0.00    -0.405 A  
HETATM   18  C   UNL     1     -10.026  10.646  63.973  1.00  0.00    -0.401 C  
ENDBRANCH   9  11
ENDBRANCH   6   9
ENDBRANCH   5   6
BRANCH   5  19
HETATM   19  C   UNL     1     -10.811  12.441  68.810  1.00  0.00    -0.263 C  
HETATM   20  C   UNL     1     -12.042  13.270  68.441  1.00  0.00    -0.244 C  
ENDBRANCH   5  19
ENDBRANCH   4   5
BRANCH   4  21
HETATM   21  C   UNL     1      -9.155  10.198  69.463  1.00  0.00    -0.195 C  
HETATM   22  C   UNL     1      -7.777   9.556  69.629  1.00  0.00    -0.112 C  
ENDBRANCH   4  21
ENDBRANCH   3   4
ENDBRANCH   2   3
TORSDOF 8
ENDMDL
MODEL      243
REMARK 921   NORMALIZED FREE ENERGY PREDICTED BY IDOCK:   -3.38 KCAL/MOL
REMARK 922        TOTAL FREE ENERGY PREDICTED BY IDOCK:   -5.93 KCAL/MOL
REMARK 923 INTER-LIGAND FREE ENERGY PREDICTED BY IDOCK:   -5.02 KCAL/MOL
REMARK 924 INTRA-LIGAND FREE ENERGY PREDICTED BY IDOCK:   -0.91 KCAL/MOL
REMARK 927      BINDING AFFINITY PREDICTED BY RF-SCORE:    0.00 PKD
ROOT
HETATM    1  C   UNL     1      -6.138  18.565  69.321  1.00  0.00    -0.260 C  
HETATM    2  C   UNL     1      -6.590  17.113  69.385  1.00  0.00    -0.220 C  
ENDROOT
BRANCH   2   3
HETATM    3  C   UNL     1      -7.873  16.848  68.569  1.00  0.00    -0.240 C  
BRANCH   3   4
HETATM    4  N   UNL     1      -8.528  15.527  68.756  1.00  0.00    -0.175 NA 
BRANCH   4   5
HETATM    5  C   UNL     1      -8.954  14.920  67.435  1.00  0.00    -0.189 C  
BRANCH   5   6
HETATM    6  C   UNL     1      -8.050  13.730  67.093  1.00  0.00    -0.075 C  
HETATM    7  H   UNL     1      -6.176  13.285  67.014  1.00  0.00     0.000 HD 
HETATM    8  O   UNL     1      -6.736  14.023  67.226  1.00  0.00    -0.244 OA 
BRANCH   6   9
HETATM    9  N   UNL     1      -8.515  12.596  66.700  1.00  0.00    -0.411 NA 
HETATM   10  H   UNL     1      -8.307  12.286  65.751  1.00  0.00     0.000 HD 
BRANCH   9  11
HETATM   11  C   UNL     1      -9.304  11.758  67.528  1.00  0.00    -0.174 A  
HETATM   12  C   UNL     1      -8.808  11.056  68.655  1.00  0.00    -0.164 A  
HETATM   13  C   UNL     1      -9.689  10.333  69.478  1.00  0.00    -0.235 A  
HETATM   14  C   UNL     1      -7.359  10.989  69.040  1.00  0.00    -0.123 C  
HETATM   15  C   UNL     1     -11.057  10.343  69.251  1.00  0.00    -0.303 A  
HETATM   16  C   UNL     1     -11.564  11.050  68.168  1.00  0.00    -0.345 A  
HETATM   17  C   UNL     1     -10.703  11.746  67.299  1.00  0.00    -0.279 A  
HETATM   18  C   UNL     1     -11.319  12.477  66.132  1.00  0.00    -0.388 C  
ENDBRANCH   9  11
ENDBRANCH   6   9
ENDBRANCH   5   6
BRANCH   5  19
HETATM   19  C   UNL     1      -8.913  15.879  66.213  1.00  0.00    -0.381 C  
HETATM   20  C   UNL     1     -10.083  15.755  65.235  1.00  0.00    -0.257 C  
ENDBRANCH   5  19
ENDBRANCH   4   5
BRANCH   4  21
HETATM   21  C   UNL     1      -9.673  15.643  69.699  1.00  0.00    -0.276 C  
HETATM   22  C   UNL     1     -11.073  15.808  69.104  1.00  0.00    -0.283 C  
ENDBRANCH   4  21
ENDBRANCH   3   4
ENDBRANCH   2   3
TORSDOF 8
ENDMDL
MODEL      244
REMARK 921   NORMALIZED FREE ENERGY PREDICTED BY IDOCK:   -3.38 KCAL/MOL
REMARK 922        TOTAL FREE ENERGY PREDICTED BY IDOCK:   -5.93 KCAL/MOL
REMARK 923 INTER-LIGAND FREE ENERGY PREDICTED BY IDOCK:   -5.65 KCAL/MOL
REMARK 924 INTRA-LIGAND FREE ENERGY PREDICTED BY IDOCK:   -0.28 KCAL/MOL
REMARK 927      BINDING AFFINITY PREDICTED BY RF-SCORE:    0.00 PKD
ROOT
HETATM    1  C   UNL     1      -6.496  15.535  67.638  1.00  0.00    -0.194 C  
HETATM    2  C   UNL     1      -7.198  16.563  66.762  1.00  0.00    -0.260 C  
ENDROOT
BRANCH   2   3
HETATM    3  C   UNL     1      -8.475  16.010  66.095  1.00  0.00    -0.212 C  
BRANCH   3   4
HETATM    4  N   UNL     1      -9.755  16.688  66.429  1.00  0.00    -0.270 NA 
BRANCH   4   5
HETATM    5  C   UNL     1      -9.897  16.913  67.920  1.00  0.00    -0.263 C  
BRANCH   5   6
HETATM    6  C   UNL     1     -10.661  15.745  68.554  1.00  0.00    -0.274 C  
HETATM    7  H   UNL     1     -12.476  15.187  68.888  1.00  0.00     0.000 HD 
HETATM    8  O   UNL     1     -12.003  15.911  68.496  1.00  0.00    -0.306 OA 
BRANCH   6   9
HETATM    9  N   UNL     1     -10.068  14.740  69.097  1.00  0.00    -0.292 NA 
HETATM   10  H   UNL     1      -9.173  14.895  69.561  1.00  0.00     0.000 HD 
BRANCH   9  11
HETATM   11  C   UNL     1     -10.602  13.428  69.079  1.00  0.00    -0.077 A  
HETATM   12  C   UNL     1     -11.695  13.001  69.876  1.00  0.00    -0.326 A  
HETATM   13  C   UNL     1     -12.223  11.708  69.712  1.00  0.00    -0.285 A  
HETATM   14  C   UNL     1     -12.339  13.834  70.945  1.00  0.00    -0.456 C  
HETATM   15  C   UNL     1     -11.740  10.853  68.734  1.00  0.00    -0.355 A  
HETATM   16  C   UNL     1     -10.690  11.265  67.925  1.00  0.00    -0.250 A  
HETATM   17  C   UNL     1     -10.109  12.536  68.094  1.00  0.00    -0.225 A  
HETATM   18  C   UNL     1      -8.959  12.912  67.194  1.00  0.00    -0.219 C  
ENDBRANCH   9  11
ENDBRANCH   6   9
ENDBRANCH   5   6
BRANCH   5  19
HETATM   19  C   UNL     1     -10.644  18.212  68.333  1.00  0.00    -0.215 C  
HETATM   20  C   UNL     1     -10.542  19.376  67.345  1.00  0.00    -0.603 C  
ENDBRANCH   5  19
ENDBRANCH   4   5
BRANCH   4  21
HETATM   21  C   UNL     1     -10.907  15.923  65.880  1.00  0.00    -0.233 C  
HETATM   22  C   UNL     1     -10.630  14.927  64.753  1.00  0.00    -0.336 C  
ENDBRANCH   4  21
ENDBRANCH   3   4
ENDBRANCH   2   3
TORSDOF 8
ENDMDL
MODEL      245
REMARK 921   NORMALIZED FREE ENERGY PREDICTED BY IDOCK:   -3.38 KCAL/MOL
REMARK 922        TOTAL FREE ENERGY PREDICTED BY IDOCK:   -5.93 KCAL/MOL
REMARK 923 INTER-LIGAND FREE ENERGY PREDICTED BY IDOCK:   -4.96 KCAL/MOL
REMARK 924 INTRA-LIGAND FREE ENERGY PREDICTED BY IDOCK:   -0.97 KCAL/MOL
REMARK 927      BINDING AFFINITY PREDICTED BY RF-SCORE:    0.00 PKD
ROOT
HETATM    1  C   UNL     1     -12.302  12.301  63.699  1.00  0.00    -0.664 C  
HETATM    2  C   UNL     1     -12.430  12.914  65.086  1.00  0.00    -0.561 C  
ENDROOT
BRANCH   2   3
HETATM    3  C   UNL     1     -11.070  13.319  65.692  1.00  0.00    -0.282 C  
BRANCH   3   4
HETATM    4  N   UNL     1     -10.696  12.690  66.985  1.00  0.00    -0.243 NA 
BRANCH   4   5
HETATM    5  C   UNL     1     -10.174  11.280  66.794  1.00  0.00    -0.226 C  
BRANCH   5   6
HETATM    6  C   UNL     1      -9.434  10.822  68.056  1.00  0.00    -0.160 C  
HETATM    7  H   UNL     1      -8.258  11.534  69.408  1.00  0.00     0.000 HD 
HETATM    8  O   UNL     1      -8.716  11.818  68.626  1.00  0.00    -0.143 OA 
BRANCH   6   9
HETATM    9  N   UNL     1      -9.486   9.612  68.490  1.00  0.00    -0.141 NA 
HETATM   10  H   UNL     1     -10.143   8.965  68.053  1.00  0.00     0.000 HD 
BRANCH   9  11
HETATM   11  C   UNL     1      -8.670   9.136  69.547  1.00  0.00    -0.140 A  
HETATM   12  C   UNL     1      -7.290   8.838  69.416  1.00  0.00    -0.072 A  
HETATM   13  C   UNL     1      -6.539   8.473  70.548  1.00  0.00    -0.037 A  
HETATM   14  C   UNL     1      -6.541   8.847  68.116  1.00  0.00    -0.061 C  
HETATM   15  C   UNL     1      -7.105   8.461  71.813  1.00  0.00    -0.098 A  
HETATM   16  C   UNL     1      -8.448   8.779  71.964  1.00  0.00    -0.109 A  
HETATM   17  C   UNL     1      -9.238   9.105  70.845  1.00  0.00    -0.326 A  
HETATM   18  C   UNL     1     -10.694   9.421  71.078  1.00  0.00    -0.407 C  
ENDBRANCH   9  11
ENDBRANCH   6   9
ENDBRANCH   5   6
BRANCH   5  19
HETATM   19  C   UNL     1      -9.193  11.086  65.604  1.00  0.00    -0.231 C  
HETATM   20  C   UNL     1      -9.516   9.924  64.663  1.00  0.00    -0.343 C  
ENDBRANCH   5  19
ENDBRANCH   4   5
BRANCH   4  21
HETATM   21  C   UNL     1     -11.844  12.722  67.931  1.00  0.00    -0.339 C  
HETATM   22  C   UNL     1     -11.768  13.691  69.112  1.00  0.00    -0.376 C  
ENDBRANCH   4  21
ENDBRANCH   3   4
ENDBRANCH   2   3
TORSDOF 8
ENDMDL
MODEL      246
REMARK 921   NORMALIZED FREE ENERGY PREDICTED BY IDOCK:   -3.37 KCAL/MOL
REMARK 922        TOTAL FREE ENERGY PREDICTED BY IDOCK:   -5.91 KCAL/MOL
REMARK 923 INTER-LIGAND FREE ENERGY PREDICTED BY IDOCK:   -5.25 KCAL/MOL
REMARK 924 INTRA-LIGAND FREE ENERGY PREDICTED BY IDOCK:   -0.66 KCAL/MOL
REMARK 927      BINDING AFFINITY PREDICTED BY RF-SCORE:    0.00 PKD
ROOT
HETATM    1  C   UNL     1      -8.715   6.947  71.965  1.00  0.00    -0.126 C  
HETATM    2  C   UNL     1      -9.958   7.818  71.855  1.00  0.00    -0.222 C  
ENDROOT
BRANCH   2   3
HETATM    3  C   UNL     1     -10.541   7.855  70.426  1.00  0.00    -0.228 C  
BRANCH   3   4
HETATM    4  N   UNL     1     -11.261   9.092  70.026  1.00  0.00    -0.199 NA 
BRANCH   4   5
HETATM    5  C   UNL     1     -10.500   9.865  68.967  1.00  0.00    -0.210 C  
BRANCH   5   6
HETATM    6  C   UNL     1     -11.132  11.249  68.778  1.00  0.00    -0.233 C  
HETATM    7  H   UNL     1     -12.648  12.065  67.911  1.00  0.00     0.000 HD 
HETATM    8  O   UNL     1     -12.257  11.207  68.028  1.00  0.00    -0.584 OA 
BRANCH   6   9
HETATM    9  N   UNL     1     -10.615  12.321  69.269  1.00  0.00    -0.440 NA 
HETATM   10  H   UNL     1     -10.808  12.553  70.242  1.00  0.00     0.000 HD 
BRANCH   9  11
HETATM   11  C   UNL     1      -9.788  13.192  68.516  1.00  0.00    -0.153 A  
HETATM   12  C   UNL     1      -8.399  12.996  68.312  1.00  0.00    -0.158 A  
HETATM   13  C   UNL     1      -7.683  13.857  67.462  1.00  0.00    -0.192 A  
HETATM   14  C   UNL     1      -7.589  11.924  68.981  1.00  0.00     0.029 C  
HETATM   15  C   UNL     1      -8.322  14.865  66.757  1.00  0.00    -0.158 A  
HETATM   16  C   UNL     1      -9.688  15.054  66.921  1.00  0.00    -0.247 A  
HETATM   17  C   UNL     1     -10.425  14.237  67.800  1.00  0.00    -0.245 A  
HETATM   18  C   UNL     1     -11.901  14.510  67.945  1.00  0.00    -0.370 C  
ENDBRANCH   9  11
ENDBRANCH   6   9
ENDBRANCH   5   6
BRANCH   5  19
HETATM   19  C   UNL     1     -10.447   9.202  67.563  1.00  0.00    -0.335 C  
HETATM   20  C   UNL     1      -9.575   9.915  66.527  1.00  0.00    -0.243 C  
ENDBRANCH   5  19
ENDBRANCH   4   5
BRANCH   4  21
HETATM   21  C   UNL     1     -11.548   9.936  71.217  1.00  0.00    -0.379 C  
HETATM   22  C   UNL     1     -13.008  10.089  71.647  1.00  0.00    -0.554 C  
ENDBRANCH   4  21
ENDBRANCH   3   4
ENDBRANCH   2   3
TORSDOF 8
ENDMDL
MODEL      247
REMARK 921   NORMALIZED FREE ENERGY PREDICTED BY IDOCK:   -3.35 KCAL/MOL
REMARK 922        TOTAL FREE ENERGY PREDICTED BY IDOCK:   -5.89 KCAL/MOL
REMARK 923 INTER-LIGAND FREE ENERGY PREDICTED BY IDOCK:   -5.49 KCAL/MOL
REMARK 924 INTRA-LIGAND FREE ENERGY PREDICTED BY IDOCK:   -0.41 KCAL/MOL
REMARK 927      BINDING AFFINITY PREDICTED BY RF-SCORE:    0.00 PKD
ROOT
HETATM    1  C   UNL     1      -6.399  21.092  65.497  1.00  0.00    -0.115 C  
HETATM    2  C   UNL     1      -5.959  20.705  66.901  1.00  0.00    -0.249 C  
ENDROOT
BRANCH   2   3
HETATM    3  C   UNL     1      -7.146  20.493  67.865  1.00  0.00    -0.275 C  
BRANCH   3   4
HETATM    4  N   UNL     1      -7.491  19.089  68.207  1.00  0.00    -0.281 NA 
BRANCH   4   5
HETATM    5  C   UNL     1      -8.958  18.942  68.559  1.00  0.00    -0.351 C  
BRANCH   5   6
HETATM    6  C   UNL     1      -9.468  17.570  68.104  1.00  0.00    -0.291 C  
HETATM    7  H   UNL     1     -10.839  16.291  68.553  1.00  0.00     0.000 HD 
HETATM    8  O   UNL     1     -10.523  17.141  68.835  1.00  0.00    -0.332 OA 
BRANCH   6   9
HETATM    9  N   UNL     1      -8.920  16.908  67.146  1.00  0.00    -0.203 NA 
HETATM   10  H   UNL     1      -8.324  17.409  66.487  1.00  0.00     0.000 HD 
BRANCH   9  11
HETATM   11  C   UNL     1      -9.108  15.515  66.965  1.00  0.00    -0.230 A  
HETATM   12  C   UNL     1      -9.848  14.943  65.900  1.00  0.00    -0.362 A  
HETATM   13  C   UNL     1      -9.891  13.546  65.744  1.00  0.00    -0.218 A  
HETATM   14  C   UNL     1     -10.651  15.730  64.907  1.00  0.00    -0.311 C  
HETATM   15  C   UNL     1      -9.164  12.707  66.575  1.00  0.00    -0.200 A  
HETATM   16  C   UNL     1      -8.409  13.252  67.605  1.00  0.00    -0.181 A  
HETATM   17  C   UNL     1      -8.382  14.644  67.816  1.00  0.00    -0.168 A  
HETATM   18  C   UNL     1      -7.557  15.168  68.965  1.00  0.00    -0.162 C  
ENDBRANCH   9  11
ENDBRANCH   6   9
ENDBRANCH   5   6
BRANCH   5  19
HETATM   19  C   UNL     1      -9.906  20.003  67.934  1.00  0.00    -0.538 C  
HETATM   20  C   UNL     1     -10.385  19.706  66.512  1.00  0.00    -0.601 C  
ENDBRANCH   5  19
ENDBRANCH   4   5
BRANCH   4  21
HETATM   21  C   UNL     1      -6.614  18.589  69.300  1.00  0.00    -0.250 C  
HETATM   22  C   UNL     1      -5.353  17.819  68.907  1.00  0.00    -0.169 C  
ENDBRANCH   4  21
ENDBRANCH   3   4
ENDBRANCH   2   3
TORSDOF 8
ENDMDL
MODEL      248
REMARK 921   NORMALIZED FREE ENERGY PREDICTED BY IDOCK:   -3.35 KCAL/MOL
REMARK 922        TOTAL FREE ENERGY PREDICTED BY IDOCK:   -5.89 KCAL/MOL
REMARK 923 INTER-LIGAND FREE ENERGY PREDICTED BY IDOCK:   -5.50 KCAL/MOL
REMARK 924 INTRA-LIGAND FREE ENERGY PREDICTED BY IDOCK:   -0.39 KCAL/MOL
REMARK 927      BINDING AFFINITY PREDICTED BY RF-SCORE:    0.00 PKD
ROOT
HETATM    1  C   UNL     1     -14.130  14.880  71.502  1.00  0.00    -0.593 C  
HETATM    2  C   UNL     1     -13.376  13.605  71.852  1.00  0.00    -0.510 C  
ENDROOT
BRANCH   2   3
HETATM    3  C   UNL     1     -12.383  13.174  70.752  1.00  0.00    -0.321 C  
BRANCH   3   4
HETATM    4  N   UNL     1     -12.085  11.722  70.648  1.00  0.00    -0.361 NA 
BRANCH   4   5
HETATM    5  C   UNL     1     -11.897  11.289  69.208  1.00  0.00    -0.354 C  
BRANCH   5   6
HETATM    6  C   UNL     1     -10.638  10.424  69.083  1.00  0.00    -0.228 C  
HETATM    7  H   UNL     1      -9.723   9.344  67.774  1.00  0.00     0.000 HD 
HETATM    8  O   UNL     1     -10.504   9.880  67.851  1.00  0.00    -0.204 OA 
BRANCH   6   9
HETATM    9  N   UNL     1      -9.827  10.233  70.064  1.00  0.00    -0.420 NA 
HETATM   10  H   UNL     1      -9.872  10.864  70.863  1.00  0.00     0.000 HD 
BRANCH   9  11
HETATM   11  C   UNL     1      -8.874   9.184  70.083  1.00  0.00    -0.197 A  
HETATM   12  C   UNL     1      -9.194   7.821  70.307  1.00  0.00    -0.156 A  
HETATM   13  C   UNL     1      -8.195   6.837  70.201  1.00  0.00    -0.133 A  
HETATM   14  C   UNL     1     -10.555   7.323  70.695  1.00  0.00    -0.240 C  
HETATM   15  C   UNL     1      -6.904   7.162  69.815  1.00  0.00    -0.050 A  
HETATM   16  C   UNL     1      -6.580   8.488  69.563  1.00  0.00    -0.040 A  
HETATM   17  C   UNL     1      -7.546   9.503  69.704  1.00  0.00    -0.103 A  
HETATM   18  C   UNL     1      -7.121  10.924  69.433  1.00  0.00    -0.131 C  
ENDBRANCH   9  11
ENDBRANCH   6   9
ENDBRANCH   5   6
BRANCH   5  19
HETATM   19  C   UNL     1     -11.753  12.442  68.176  1.00  0.00    -0.408 C  
HETATM   20  C   UNL     1     -10.389  13.134  68.143  1.00  0.00    -0.247 C  
ENDBRANCH   5  19
ENDBRANCH   4   5
BRANCH   4  21
HETATM   21  C   UNL     1     -13.142  10.923  71.325  1.00  0.00    -0.308 C  
HETATM   22  C   UNL     1     -12.751   9.560  71.896  1.00  0.00    -0.496 C  
ENDBRANCH   4  21
ENDBRANCH   3   4
ENDBRANCH   2   3
TORSDOF 8
ENDMDL
MODEL      249
REMARK 921   NORMALIZED FREE ENERGY PREDICTED BY IDOCK:   -3.35 KCAL/MOL
REMARK 922        TOTAL FREE ENERGY PREDICTED BY IDOCK:   -5.89 KCAL/MOL
REMARK 923 INTER-LIGAND FREE ENERGY PREDICTED BY IDOCK:   -5.66 KCAL/MOL
REMARK 924 INTRA-LIGAND FREE ENERGY PREDICTED BY IDOCK:   -0.23 KCAL/MOL
REMARK 927      BINDING AFFINITY PREDICTED BY RF-SCORE:    0.00 PKD
ROOT
HETATM    1  C   UNL     1     -10.303   8.594  66.602  1.00  0.00    -0.303 C  
HETATM    2  C   UNL     1     -10.581   8.952  68.055  1.00  0.00    -0.226 C  
ENDROOT
BRANCH   2   3
HETATM    3  C   UNL     1     -10.546  10.473  68.316  1.00  0.00    -0.206 C  
BRANCH   3   4
HETATM    4  N   UNL     1     -11.613  11.288  67.679  1.00  0.00    -0.551 NA 
BRANCH   4   5
HETATM    5  C   UNL     1     -11.127  11.948  66.404  1.00  0.00    -0.309 C  
BRANCH   5   6
HETATM    6  C   UNL     1      -9.855  12.755  66.687  1.00  0.00    -0.250 C  
HETATM    7  H   UNL     1      -7.954  12.652  66.382  1.00  0.00     0.000 HD 
HETATM    8  O   UNL     1      -8.742  12.152  66.207  1.00  0.00    -0.117 OA 
BRANCH   6   9
HETATM    9  N   UNL     1      -9.867  13.868  67.334  1.00  0.00    -0.233 NA 
HETATM   10  H   UNL     1     -10.680  14.087  67.909  1.00  0.00     0.000 HD 
BRANCH   9  11
HETATM   11  C   UNL     1      -8.802  14.801  67.282  1.00  0.00    -0.204 A  
HETATM   12  C   UNL     1      -7.539  14.604  67.895  1.00  0.00    -0.151 A  
HETATM   13  C   UNL     1      -6.508  15.540  67.700  1.00  0.00    -0.194 A  
HETATM   14  C   UNL     1      -7.207  13.453  68.799  1.00  0.00    -0.092 C  
HETATM   15  C   UNL     1      -6.676  16.629  66.860  1.00  0.00    -0.247 A  
HETATM   16  C   UNL     1      -7.897  16.823  66.227  1.00  0.00    -0.334 A  
HETATM   17  C   UNL     1      -8.964  15.928  66.438  1.00  0.00    -0.361 A  
HETATM   18  C   UNL     1     -10.268  16.208  65.735  1.00  0.00    -0.397 C  
ENDBRANCH   9  11
ENDBRANCH   6   9
ENDBRANCH   5   6
BRANCH   5  19
HETATM   19  C   UNL     1     -12.133  12.922  65.729  1.00  0.00    -0.513 C  
HETATM   20  C   UNL     1     -12.123  12.929  64.200  1.00  0.00    -0.503 C  
ENDBRANCH   5  19
ENDBRANCH   4   5
BRANCH   4  21
HETATM   21  C   UNL     1     -12.149  12.287  68.641  1.00  0.00    -0.088 C  
HETATM   22  C   UNL     1     -11.902  12.047  70.131  1.00  0.00    -0.383 C  
ENDBRANCH   4  21
ENDBRANCH   3   4
ENDBRANCH   2   3
TORSDOF 8
ENDMDL
MODEL      250
REMARK 921   NORMALIZED FREE ENERGY PREDICTED BY IDOCK:   -3.35 KCAL/MOL
REMARK 922        TOTAL FREE ENERGY PREDICTED BY IDOCK:   -5.89 KCAL/MOL
REMARK 923 INTER-LIGAND FREE ENERGY PREDICTED BY IDOCK:   -4.95 KCAL/MOL
REMARK 924 INTRA-LIGAND FREE ENERGY PREDICTED BY IDOCK:   -0.94 KCAL/MOL
REMARK 927      BINDING AFFINITY PREDICTED BY RF-SCORE:    0.00 PKD
ROOT
HETATM    1  C   UNL     1      -6.433  14.653  70.339  1.00  0.00    -0.110 C  
HETATM    2  C   UNL     1      -6.211  13.378  69.537  1.00  0.00    -0.114 C  
ENDROOT
BRANCH   2   3
HETATM    3  C   UNL     1      -6.560  13.540  68.043  1.00  0.00    -0.137 C  
BRANCH   3   4
HETATM    4  N   UNL     1      -7.992  13.406  67.669  1.00  0.00    -0.160 NA 
BRANCH   4   5
HETATM    5  C   UNL     1      -8.244  12.154  66.855  1.00  0.00    -0.134 C  
BRANCH   5   6
HETATM    6  C   UNL     1      -9.370  11.333  67.495  1.00  0.00    -0.162 C  
HETATM    7  H   UNL     1      -9.601   9.876  68.736  1.00  0.00     0.000 HD 
HETATM    8  O   UNL     1      -8.903  10.385  68.339  1.00  0.00    -0.127 OA 
BRANCH   6   9
HETATM    9  N   UNL     1     -10.613  11.529  67.222  1.00  0.00    -0.218 NA 
HETATM   10  H   UNL     1     -11.315  11.182  67.875  1.00  0.00     0.000 HD 
BRANCH   9  11
HETATM   11  C   UNL     1     -11.049  12.205  66.056  1.00  0.00    -0.313 A  
HETATM   12  C   UNL     1     -10.955  11.673  64.745  1.00  0.00    -0.351 A  
HETATM   13  C   UNL     1     -11.512  12.374  63.660  1.00  0.00    -0.568 A  
HETATM   14  C   UNL     1     -10.255  10.392  64.398  1.00  0.00    -0.245 C  
HETATM   15  C   UNL     1     -12.215  13.552  63.850  1.00  0.00    -0.458 A  
HETATM   16  C   UNL     1     -12.343  14.073  65.131  1.00  0.00    -0.468 A  
HETATM   17  C   UNL     1     -11.758  13.419  66.233  1.00  0.00    -0.405 A  
HETATM   18  C   UNL     1     -11.918  14.049  67.594  1.00  0.00    -0.404 C  
ENDBRANCH   9  11
ENDBRANCH   6   9
ENDBRANCH   5   6
BRANCH   5  19
HETATM   19  C   UNL     1      -7.027  11.199  66.700  1.00  0.00    -0.142 C  
HETATM   20  C   UNL     1      -6.874  10.540  65.328  1.00  0.00    -0.050 C  
ENDBRANCH   5  19
ENDBRANCH   4   5
BRANCH   4  21
HETATM   21  C   UNL     1      -8.460  14.625  66.955  1.00  0.00    -0.210 C  
HETATM   22  C   UNL     1      -8.774  15.866  67.793  1.00  0.00    -0.173 C  
ENDBRANCH   4  21
ENDBRANCH   3   4
ENDBRANCH   2   3
TORSDOF 8
ENDMDL
MODEL      251
REMARK 921   NORMALIZED FREE ENERGY PREDICTED BY IDOCK:   -3.33 KCAL/MOL
REMARK 922        TOTAL FREE ENERGY PREDICTED BY IDOCK:   -5.86 KCAL/MOL
REMARK 923 INTER-LIGAND FREE ENERGY PREDICTED BY IDOCK:   -5.03 KCAL/MOL
REMARK 924 INTRA-LIGAND FREE ENERGY PREDICTED BY IDOCK:   -0.83 KCAL/MOL
REMARK 927      BINDING AFFINITY PREDICTED BY RF-SCORE:    0.00 PKD
ROOT
HETATM    1  C   UNL     1     -10.269  16.721  66.424  1.00  0.00    -0.329 C  
HETATM    2  C   UNL     1     -10.775  15.309  66.166  1.00  0.00    -0.322 C  
ENDROOT
BRANCH   2   3
HETATM    3  C   UNL     1      -9.891  14.225  66.820  1.00  0.00    -0.270 C  
BRANCH   3   4
HETATM    4  N   UNL     1     -10.580  13.215  67.664  1.00  0.00    -0.226 NA 
BRANCH   4   5
HETATM    5  C   UNL     1     -10.670  11.871  66.969  1.00  0.00    -0.240 C  
BRANCH   5   6
HETATM    6  C   UNL     1     -10.048  10.785  67.854  1.00  0.00    -0.172 C  
HETATM    7  H   UNL     1      -9.795   8.873  67.872  1.00  0.00     0.000 HD 
HETATM    8  O   UNL     1     -10.181   9.547  67.324  1.00  0.00    -0.203 OA 
BRANCH   6   9
HETATM    9  N   UNL     1      -9.489  11.045  68.984  1.00  0.00    -0.362 NA 
HETATM   10  H   UNL     1      -9.394  12.020  69.267  1.00  0.00     0.000 HD 
BRANCH   9  11
HETATM   11  C   UNL     1      -9.002  10.037  69.853  1.00  0.00    -0.146 A  
HETATM   12  C   UNL     1      -9.804   9.333  70.786  1.00  0.00    -0.350 A  
HETATM   13  C   UNL     1      -9.253   8.275  71.531  1.00  0.00    -0.231 A  
HETATM   14  C   UNL     1     -11.240   9.655  71.081  1.00  0.00    -0.454 C  
HETATM   15  C   UNL     1      -7.948   7.856  71.327  1.00  0.00    -0.094 A  
HETATM   16  C   UNL     1      -7.156   8.515  70.396  1.00  0.00    -0.038 A  
HETATM   17  C   UNL     1      -7.664   9.607  69.667  1.00  0.00    -0.124 A  
HETATM   18  C   UNL     1      -6.744  10.289  68.686  1.00  0.00    -0.053 C  
ENDBRANCH   9  11
ENDBRANCH   6   9
ENDBRANCH   5   6
BRANCH   5  19
HETATM   19  C   UNL     1      -9.962  11.783  65.588  1.00  0.00    -0.271 C  
HETATM   20  C   UNL     1     -10.889  11.714  64.373  1.00  0.00    -0.399 C  
ENDBRANCH   5  19
ENDBRANCH   4   5
BRANCH   4  21
HETATM   21  C   UNL     1     -11.923  13.708  68.074  1.00  0.00    -0.350 C  
HETATM   22  C   UNL     1     -12.127  14.082  69.543  1.00  0.00    -0.397 C  
ENDBRANCH   4  21
ENDBRANCH   3   4
ENDBRANCH   2   3
TORSDOF 8
ENDMDL
MODEL      252
REMARK 921   NORMALIZED FREE ENERGY PREDICTED BY IDOCK:   -3.33 KCAL/MOL
REMARK 922        TOTAL FREE ENERGY PREDICTED BY IDOCK:   -5.86 KCAL/MOL
REMARK 923 INTER-LIGAND FREE ENERGY PREDICTED BY IDOCK:   -5.36 KCAL/MOL
REMARK 924 INTRA-LIGAND FREE ENERGY PREDICTED BY IDOCK:   -0.50 KCAL/MOL
REMARK 927      BINDING AFFINITY PREDICTED BY RF-SCORE:    0.00 PKD
ROOT
HETATM    1  C   UNL     1     -12.234  12.301  63.589  1.00  0.00    -0.665 C  
HETATM    2  C   UNL     1     -11.640  13.166  64.691  1.00  0.00    -0.384 C  
ENDROOT
BRANCH   2   3
HETATM    3  C   UNL     1     -11.877  12.588  66.102  1.00  0.00    -0.397 C  
BRANCH   3   4
HETATM    4  N   UNL     1     -10.916  11.561  66.578  1.00  0.00    -0.293 NA 
BRANCH   4   5
HETATM    5  C   UNL     1     -10.747  11.605  68.083  1.00  0.00    -0.213 C  
BRANCH   5   6
HETATM    6  C   UNL     1     -10.799  10.183  68.655  1.00  0.00    -0.235 C  
HETATM    7  H   UNL     1     -11.795   9.158  69.948  1.00  0.00     0.000 HD 
HETATM    8  O   UNL     1     -11.763  10.038  69.594  1.00  0.00    -0.158 OA 
BRANCH   6   9
HETATM    9  N   UNL     1      -9.987   9.256  68.285  1.00  0.00    -0.166 NA 
HETATM   10  H   UNL     1      -9.397   9.421  67.470  1.00  0.00     0.000 HD 
BRANCH   9  11
HETATM   11  C   UNL     1      -9.876   8.014  68.960  1.00  0.00    -0.178 A  
HETATM   12  C   UNL     1     -10.402   6.792  68.471  1.00  0.00    -0.210 A  
HETATM   13  C   UNL     1     -10.150   5.592  69.160  1.00  0.00    -0.286 A  
HETATM   14  C   UNL     1     -11.267   6.669  67.252  1.00  0.00    -0.304 C  
HETATM   15  C   UNL     1      -9.336   5.564  70.282  1.00  0.00    -0.194 A  
HETATM   16  C   UNL     1      -8.788   6.748  70.758  1.00  0.00    -0.150 A  
HETATM   17  C   UNL     1      -9.059   7.972  70.117  1.00  0.00    -0.151 A  
HETATM   18  C   UNL     1      -8.448   9.223  70.698  1.00  0.00    -0.258 C  
ENDBRANCH   9  11
ENDBRANCH   6   9
ENDBRANCH   5   6
BRANCH   5  19
HETATM   19  C   UNL     1     -11.811  12.437  68.852  1.00  0.00    -0.350 C  
HETATM   20  C   UNL     1     -11.321  13.766  69.428  1.00  0.00    -0.306 C  
ENDBRANCH   5  19
ENDBRANCH   4   5
BRANCH   4  21
HETATM   21  C   UNL     1      -9.611  11.705  65.877  1.00  0.00    -0.229 C  
HETATM   22  C   UNL     1      -9.113  10.521  65.047  1.00  0.00    -0.231 C  
ENDBRANCH   4  21
ENDBRANCH   3   4
ENDBRANCH   2   3
TORSDOF 8
ENDMDL
MODEL      253
REMARK 921   NORMALIZED FREE ENERGY PREDICTED BY IDOCK:   -3.33 KCAL/MOL
REMARK 922        TOTAL FREE ENERGY PREDICTED BY IDOCK:   -5.86 KCAL/MOL
REMARK 923 INTER-LIGAND FREE ENERGY PREDICTED BY IDOCK:   -5.51 KCAL/MOL
REMARK 924 INTRA-LIGAND FREE ENERGY PREDICTED BY IDOCK:   -0.35 KCAL/MOL
REMARK 927      BINDING AFFINITY PREDICTED BY RF-SCORE:    0.00 PKD
ROOT
HETATM    1  C   UNL     1     -14.353  14.983  71.677  1.00  0.00    -0.680 C  
HETATM    2  C   UNL     1     -13.603  13.676  71.894  1.00  0.00    -0.512 C  
ENDROOT
BRANCH   2   3
HETATM    3  C   UNL     1     -12.470  13.456  70.869  1.00  0.00    -0.359 C  
BRANCH   3   4
HETATM    4  N   UNL     1     -12.076  12.051  70.594  1.00  0.00    -0.347 NA 
BRANCH   4   5
HETATM    5  C   UNL     1     -11.991  11.772  69.107  1.00  0.00    -0.293 C  
BRANCH   5   6
HETATM    6  C   UNL     1     -10.713  10.984  68.797  1.00  0.00    -0.203 C  
HETATM    7  H   UNL     1     -10.107   9.569  67.636  1.00  0.00     0.000 HD 
HETATM    8  O   UNL     1     -10.899  10.057  67.828  1.00  0.00    -0.264 OA 
BRANCH   6   9
HETATM    9  N   UNL     1      -9.605  11.184  69.421  1.00  0.00    -0.408 NA 
HETATM   10  H   UNL     1      -9.564  11.930  70.113  1.00  0.00     0.000 HD 
BRANCH   9  11
HETATM   11  C   UNL     1      -8.440  10.411  69.188  1.00  0.00    -0.164 A  
HETATM   12  C   UNL     1      -7.429  10.755  68.255  1.00  0.00    -0.092 A  
HETATM   13  C   UNL     1      -6.257   9.982  68.170  1.00  0.00    -0.053 A  
HETATM   14  C   UNL     1      -7.522  11.899  67.289  1.00  0.00    -0.151 C  
HETATM   15  C   UNL     1      -6.033   8.919  69.031  1.00  0.00    -0.043 A  
HETATM   16  C   UNL     1      -7.000   8.586  69.971  1.00  0.00    -0.043 A  
HETATM   17  C   UNL     1      -8.203   9.312  70.051  1.00  0.00    -0.160 A  
HETATM   18  C   UNL     1      -9.217   8.885  71.082  1.00  0.00    -0.324 C  
ENDBRANCH   9  11
ENDBRANCH   6   9
ENDBRANCH   5   6
BRANCH   5  19
HETATM   19  C   UNL     1     -11.976  13.027  68.191  1.00  0.00    -0.322 C  
HETATM   20  C   UNL     1     -10.628  13.741  68.067  1.00  0.00    -0.258 C  
ENDBRANCH   5  19
ENDBRANCH   4   5
BRANCH   4  21
HETATM   21  C   UNL     1     -13.004  11.107  71.274  1.00  0.00    -0.357 C  
HETATM   22  C   UNL     1     -12.533   9.667  71.481  1.00  0.00    -0.476 C  
ENDBRANCH   4  21
ENDBRANCH   3   4
ENDBRANCH   2   3
TORSDOF 8
ENDMDL
MODEL      254
REMARK 921   NORMALIZED FREE ENERGY PREDICTED BY IDOCK:   -3.33 KCAL/MOL
REMARK 922        TOTAL FREE ENERGY PREDICTED BY IDOCK:   -5.86 KCAL/MOL
REMARK 923 INTER-LIGAND FREE ENERGY PREDICTED BY IDOCK:   -5.16 KCAL/MOL
REMARK 924 INTRA-LIGAND FREE ENERGY PREDICTED BY IDOCK:   -0.70 KCAL/MOL
REMARK 927      BINDING AFFINITY PREDICTED BY RF-SCORE:    0.00 PKD
ROOT
HETATM    1  C   UNL     1      -7.015  11.057  67.427  1.00  0.00    -0.086 C  
HETATM    2  C   UNL     1      -7.564  10.219  66.282  1.00  0.00    -0.117 C  
ENDROOT
BRANCH   2   3
HETATM    3  C   UNL     1      -8.612   9.184  66.743  1.00  0.00    -0.127 C  
BRANCH   3   4
HETATM    4  N   UNL     1     -10.041   9.564  66.600  1.00  0.00    -0.243 NA 
BRANCH   4   5
HETATM    5  C   UNL     1     -10.195  10.974  66.068  1.00  0.00    -0.252 C  
BRANCH   5   6
HETATM    6  C   UNL     1     -10.972  11.830  67.076  1.00  0.00    -0.285 C  
HETATM    7  H   UNL     1     -12.766  12.462  67.390  1.00  0.00     0.000 HD 
HETATM    8  O   UNL     1     -12.285  11.932  66.765  1.00  0.00    -0.489 OA 
BRANCH   6   9
HETATM    9  N   UNL     1     -10.408  12.399  68.084  1.00  0.00    -0.220 NA 
HETATM   10  H   UNL     1      -9.891  11.818  68.744  1.00  0.00     0.000 HD 
BRANCH   9  11
HETATM   11  C   UNL     1     -10.473  13.795  68.316  1.00  0.00    -0.248 A  
HETATM   12  C   UNL     1      -9.849  14.769  67.498  1.00  0.00    -0.218 A  
HETATM   13  C   UNL     1     -10.059  16.138  67.747  1.00  0.00    -0.250 A  
HETATM   14  C   UNL     1      -8.921  14.453  66.363  1.00  0.00    -0.122 C  
HETATM   15  C   UNL     1     -10.922  16.562  68.745  1.00  0.00    -0.330 A  
HETATM   16  C   UNL     1     -11.565  15.621  69.538  1.00  0.00    -0.366 A  
HETATM   17  C   UNL     1     -11.342  14.245  69.343  1.00  0.00    -0.325 A  
HETATM   18  C   UNL     1     -12.058  13.278  70.252  1.00  0.00    -0.405 C  
ENDBRANCH   9  11
ENDBRANCH   6   9
ENDBRANCH   5   6
BRANCH   5  19
HETATM   19  C   UNL     1     -10.938  11.099  64.709  1.00  0.00    -0.218 C  
HETATM   20  C   UNL     1     -10.127  11.713  63.566  1.00  0.00    -0.455 C  
ENDBRANCH   5  19
ENDBRANCH   4   5
BRANCH   4  21
HETATM   21  C   UNL     1     -10.759   9.386  67.892  1.00  0.00    -0.210 C  
HETATM   22  C   UNL     1      -9.961   8.855  69.084  1.00  0.00    -0.192 C  
ENDBRANCH   4  21
ENDBRANCH   3   4
ENDBRANCH   2   3
TORSDOF 8
ENDMDL
MODEL      255
REMARK 921   NORMALIZED FREE ENERGY PREDICTED BY IDOCK:   -3.31 KCAL/MOL
REMARK 922        TOTAL FREE ENERGY PREDICTED BY IDOCK:   -5.83 KCAL/MOL
REMARK 923 INTER-LIGAND FREE ENERGY PREDICTED BY IDOCK:   -4.77 KCAL/MOL
REMARK 924 INTRA-LIGAND FREE ENERGY PREDICTED BY IDOCK:   -1.07 KCAL/MOL
REMARK 927      BINDING AFFINITY PREDICTED BY RF-SCORE:    0.00 PKD
ROOT
HETATM    1  C   UNL     1      -7.895  14.349  68.417  1.00  0.00    -0.138 C  
HETATM    2  C   UNL     1      -8.316  13.414  67.292  1.00  0.00    -0.183 C  
ENDROOT
BRANCH   2   3
HETATM    3  C   UNL     1      -9.774  13.636  66.840  1.00  0.00    -0.262 C  
BRANCH   3   4
HETATM    4  N   UNL     1     -10.825  12.867  67.556  1.00  0.00    -0.232 NA 
BRANCH   4   5
HETATM    5  C   UNL     1     -11.377  11.743  66.704  1.00  0.00    -0.316 C  
BRANCH   5   6
HETATM    6  C   UNL     1     -10.658  10.431  67.041  1.00  0.00    -0.245 C  
HETATM    7  H   UNL     1     -10.095   9.421  68.583  1.00  0.00     0.000 HD 
HETATM    8  O   UNL     1     -10.540  10.233  68.374  1.00  0.00    -0.191 OA 
BRANCH   6   9
HETATM    9  N   UNL     1     -10.203   9.637  66.137  1.00  0.00    -0.245 NA 
HETATM   10  H   UNL     1     -10.541   9.742  65.181  1.00  0.00     0.000 HD 
BRANCH   9  11
HETATM   11  C   UNL     1      -9.252   8.621  66.410  1.00  0.00    -0.193 A  
HETATM   12  C   UNL     1      -9.587   7.282  66.731  1.00  0.00    -0.240 A  
HETATM   13  C   UNL     1      -8.573   6.319  66.883  1.00  0.00    -0.113 A  
HETATM   14  C   UNL     1     -10.986   6.792  66.967  1.00  0.00    -0.439 C  
HETATM   15  C   UNL     1      -7.242   6.637  66.658  1.00  0.00    -0.073 A  
HETATM   16  C   UNL     1      -6.898   7.937  66.313  1.00  0.00    -0.058 A  
HETATM   17  C   UNL     1      -7.886   8.934  66.198  1.00  0.00    -0.102 A  
HETATM   18  C   UNL     1      -7.441  10.330  65.840  1.00  0.00    -0.135 C  
ENDBRANCH   9  11
ENDBRANCH   6   9
ENDBRANCH   5   6
BRANCH   5  19
HETATM   19  C   UNL     1     -11.248  11.942  65.168  1.00  0.00    -0.346 C  
HETATM   20  C   UNL     1     -12.498  12.468  64.461  1.00  0.00    -0.539 C  
ENDBRANCH   5  19
ENDBRANCH   4   5
BRANCH   4  21
HETATM   21  C   UNL     1     -11.905  13.776  68.027  1.00  0.00    -0.373 C  
HETATM   22  C   UNL     1     -11.580  15.265  68.153  1.00  0.00    -0.344 C  
ENDBRANCH   4  21
ENDBRANCH   3   4
ENDBRANCH   2   3
TORSDOF 8
ENDMDL
MODEL      256
REMARK 921   NORMALIZED FREE ENERGY PREDICTED BY IDOCK:   -3.30 KCAL/MOL
REMARK 922        TOTAL FREE ENERGY PREDICTED BY IDOCK:   -5.82 KCAL/MOL
REMARK 923 INTER-LIGAND FREE ENERGY PREDICTED BY IDOCK:   -5.75 KCAL/MOL
REMARK 924 INTRA-LIGAND FREE ENERGY PREDICTED BY IDOCK:   -0.07 KCAL/MOL
REMARK 927      BINDING AFFINITY PREDICTED BY RF-SCORE:    0.00 PKD
ROOT
HETATM    1  C   UNL     1      -9.813   8.744  66.397  1.00  0.00    -0.352 C  
HETATM    2  C   UNL     1      -8.828   9.763  66.952  1.00  0.00    -0.150 C  
ENDROOT
BRANCH   2   3
HETATM    3  C   UNL     1      -9.454  11.161  67.142  1.00  0.00    -0.172 C  
BRANCH   3   4
HETATM    4  N   UNL     1     -10.834  11.355  66.626  1.00  0.00    -0.280 NA 
BRANCH   4   5
HETATM    5  C   UNL     1     -10.882  12.409  65.539  1.00  0.00    -0.281 C  
BRANCH   5   6
HETATM    6  C   UNL     1     -10.499  13.776  66.119  1.00  0.00    -0.297 C  
HETATM    7  H   UNL     1     -11.162  15.071  67.384  1.00  0.00     0.000 HD 
HETATM    8  O   UNL     1     -11.400  14.224  67.024  1.00  0.00    -0.314 OA 
BRANCH   6   9
HETATM    9  N   UNL     1      -9.445  14.416  65.751  1.00  0.00    -0.533 NA 
HETATM   10  H   UNL     1      -8.888  14.037  64.985  1.00  0.00     0.000 HD 
BRANCH   9  11
HETATM   11  C   UNL     1      -9.025  15.624  66.361  1.00  0.00    -0.326 A  
HETATM   12  C   UNL     1      -9.676  16.871  66.191  1.00  0.00    -0.296 A  
HETATM   13  C   UNL     1      -9.248  17.994  66.922  1.00  0.00    -0.271 A  
HETATM   14  C   UNL     1     -10.807  17.113  65.235  1.00  0.00    -0.043 C  
HETATM   15  C   UNL     1      -8.236  17.896  67.864  1.00  0.00    -0.246 A  
HETATM   16  C   UNL     1      -7.606  16.674  68.065  1.00  0.00    -0.171 A  
HETATM   17  C   UNL     1      -7.981  15.542  67.317  1.00  0.00    -0.233 A  
HETATM   18  C   UNL     1      -7.242  14.252  67.572  1.00  0.00    -0.197 C  
ENDBRANCH   9  11
ENDBRANCH   6   9
ENDBRANCH   5   6
BRANCH   5  19
HETATM   19  C   UNL     1     -12.259  12.589  64.841  1.00  0.00    -0.534 C  
HETATM   20  C   UNL     1     -12.217  13.199  63.439  1.00  0.00    -0.521 C  
ENDBRANCH   5  19
ENDBRANCH   4   5
BRANCH   4  21
HETATM   21  C   UNL     1     -11.766  11.677  67.740  1.00  0.00    -0.245 C  
HETATM   22  C   UNL     1     -11.813  10.718  68.930  1.00  0.00    -0.287 C  
ENDBRANCH   4  21
ENDBRANCH   3   4
ENDBRANCH   2   3
TORSDOF 8
ENDMDL
MODEL      257
REMARK 921   NORMALIZED FREE ENERGY PREDICTED BY IDOCK:   -3.30 KCAL/MOL
REMARK 922        TOTAL FREE ENERGY PREDICTED BY IDOCK:   -5.81 KCAL/MOL
REMARK 923 INTER-LIGAND FREE ENERGY PREDICTED BY IDOCK:   -5.32 KCAL/MOL
REMARK 924 INTRA-LIGAND FREE ENERGY PREDICTED BY IDOCK:   -0.49 KCAL/MOL
REMARK 927      BINDING AFFINITY PREDICTED BY RF-SCORE:    0.00 PKD
ROOT
HETATM    1  C   UNL     1      -6.522   8.667  67.381  1.00  0.00    -0.058 C  
HETATM    2  C   UNL     1      -7.598   9.331  66.533  1.00  0.00    -0.093 C  
ENDROOT
BRANCH   2   3
HETATM    3  C   UNL     1      -7.931  10.763  67.000  1.00  0.00    -0.124 C  
BRANCH   3   4
HETATM    4  N   UNL     1      -9.289  11.275  66.681  1.00  0.00    -0.176 NA 
BRANCH   4   5
HETATM    5  C   UNL     1     -10.092  11.555  67.935  1.00  0.00    -0.189 C  
BRANCH   5   6
HETATM    6  C   UNL     1     -10.042  10.339  68.868  1.00  0.00    -0.204 C  
HETATM    7  H   UNL     1      -8.900   9.570  70.218  1.00  0.00     0.000 HD 
HETATM    8  O   UNL     1      -8.931  10.324  69.640  1.00  0.00    -0.190 OA 
BRANCH   6   9
HETATM    9  N   UNL     1     -10.957   9.434  68.878  1.00  0.00    -0.422 NA 
HETATM   10  H   UNL     1     -11.566   9.347  68.064  1.00  0.00     0.000 HD 
BRANCH   9  11
HETATM   11  C   UNL     1     -11.156   8.551  69.968  1.00  0.00    -0.151 A  
HETATM   12  C   UNL     1     -10.507   7.298  70.109  1.00  0.00    -0.229 A  
HETATM   13  C   UNL     1     -10.687   6.539  71.279  1.00  0.00    -0.280 A  
HETATM   14  C   UNL     1      -9.636   6.674  69.059  1.00  0.00    -0.133 C  
HETATM   15  C   UNL     1     -11.440   7.020  72.339  1.00  0.00    -0.300 A  
HETATM   16  C   UNL     1     -12.059   8.258  72.231  1.00  0.00    -0.439 A  
HETATM   17  C   UNL     1     -11.935   9.022  71.055  1.00  0.00    -0.323 A  
HETATM   18  C   UNL     1     -12.649  10.349  70.997  1.00  0.00    -0.491 C  
ENDBRANCH   9  11
ENDBRANCH   6   9
ENDBRANCH   5   6
BRANCH   5  19
HETATM   19  C   UNL     1     -11.594  11.884  67.710  1.00  0.00    -0.393 C  
HETATM   20  C   UNL     1     -11.897  13.315  67.263  1.00  0.00    -0.421 C  
ENDBRANCH   5  19
ENDBRANCH   4   5
BRANCH   4  21
HETATM   21  C   UNL     1     -10.001  10.333  65.776  1.00  0.00    -0.271 C  
HETATM   22  C   UNL     1     -10.273  10.790  64.341  1.00  0.00    -0.432 C  
ENDBRANCH   4  21
ENDBRANCH   3   4
ENDBRANCH   2   3
TORSDOF 8
ENDMDL
MODEL      258
REMARK 921   NORMALIZED FREE ENERGY PREDICTED BY IDOCK:   -3.30 KCAL/MOL
REMARK 922        TOTAL FREE ENERGY PREDICTED BY IDOCK:   -5.81 KCAL/MOL
REMARK 923 INTER-LIGAND FREE ENERGY PREDICTED BY IDOCK:   -4.77 KCAL/MOL
REMARK 924 INTRA-LIGAND FREE ENERGY PREDICTED BY IDOCK:   -1.04 KCAL/MOL
REMARK 927      BINDING AFFINITY PREDICTED BY RF-SCORE:    0.00 PKD
ROOT
HETATM    1  C   UNL     1     -10.991   6.439  67.871  1.00  0.00    -0.416 C  
HETATM    2  C   UNL     1     -11.285   6.115  69.328  1.00  0.00    -0.438 C  
ENDROOT
BRANCH   2   3
HETATM    3  C   UNL     1     -10.243   5.164  69.954  1.00  0.00    -0.291 C  
BRANCH   3   4
HETATM    4  N   UNL     1      -9.623   5.596  71.234  1.00  0.00    -0.158 NA 
BRANCH   4   5
HETATM    5  C   UNL     1      -8.168   5.976  71.052  1.00  0.00    -0.123 C  
BRANCH   5   6
HETATM    6  C   UNL     1      -7.873   7.281  71.802  1.00  0.00    -0.091 C  
HETATM    7  H   UNL     1      -6.364   8.298  72.439  1.00  0.00     0.000 HD 
HETATM    8  O   UNL     1      -6.547   7.490  71.974  1.00  0.00    -0.049 OA 
BRANCH   6   9
HETATM    9  N   UNL     1      -8.802   8.060  72.231  1.00  0.00    -0.148 NA 
HETATM   10  H   UNL     1      -8.993   8.085  73.233  1.00  0.00     0.000 HD 
BRANCH   9  11
HETATM   11  C   UNL     1      -9.572   8.887  71.375  1.00  0.00    -0.289 A  
HETATM   12  C   UNL     1      -9.038   9.624  70.288  1.00  0.00    -0.272 A  
HETATM   13  C   UNL     1      -9.897  10.333  69.429  1.00  0.00    -0.247 A  
HETATM   14  C   UNL     1      -7.574   9.746  69.985  1.00  0.00    -0.169 C  
HETATM   15  C   UNL     1     -11.273  10.274  69.580  1.00  0.00    -0.322 A  
HETATM   16  C   UNL     1     -11.815   9.532  70.621  1.00  0.00    -0.301 A  
HETATM   17  C   UNL     1     -10.981   8.849  71.526  1.00  0.00    -0.398 A  
HETATM   18  C   UNL     1     -11.635   8.078  72.645  1.00  0.00    -0.448 C  
ENDBRANCH   9  11
ENDBRANCH   6   9
ENDBRANCH   5   6
BRANCH   5  19
HETATM   19  C   UNL     1      -7.711   6.192  69.582  1.00  0.00    -0.098 C  
HETATM   20  C   UNL     1      -6.580   5.281  69.100  1.00  0.00    -0.051 C  
ENDBRANCH   5  19
ENDBRANCH   4   5
BRANCH   4  21
HETATM   21  C   UNL     1      -9.786   4.542  72.273  1.00  0.00    -0.170 C  
HETATM   22  C   UNL     1     -10.429   4.944  73.601  1.00  0.00    -0.291 C  
ENDBRANCH   4  21
ENDBRANCH   3   4
ENDBRANCH   2   3
TORSDOF 8
ENDMDL
MODEL      259
REMARK 921   NORMALIZED FREE ENERGY PREDICTED BY IDOCK:   -3.29 KCAL/MOL
REMARK 922        TOTAL FREE ENERGY PREDICTED BY IDOCK:   -5.80 KCAL/MOL
REMARK 923 INTER-LIGAND FREE ENERGY PREDICTED BY IDOCK:   -5.19 KCAL/MOL
REMARK 924 INTRA-LIGAND FREE ENERGY PREDICTED BY IDOCK:   -0.61 KCAL/MOL
REMARK 927      BINDING AFFINITY PREDICTED BY RF-SCORE:    0.00 PKD
ROOT
HETATM    1  C   UNL     1      -6.318   9.074  65.876  1.00  0.00    -0.056 C  
HETATM    2  C   UNL     1      -6.585  10.371  66.627  1.00  0.00    -0.082 C  
ENDROOT
BRANCH   2   3
HETATM    3  C   UNL     1      -8.073  10.559  66.990  1.00  0.00    -0.118 C  
BRANCH   3   4
HETATM    4  N   UNL     1      -8.789  11.681  66.332  1.00  0.00    -0.191 NA 
BRANCH   4   5
HETATM    5  C   UNL     1      -9.057  12.819  67.296  1.00  0.00    -0.200 C  
BRANCH   5   6
HETATM    6  C   UNL     1     -10.156  13.729  66.736  1.00  0.00    -0.265 C  
HETATM    7  H   UNL     1     -10.370  15.158  65.460  1.00  0.00     0.000 HD 
HETATM    8  O   UNL     1      -9.689  14.594  65.807  1.00  0.00    -0.323 OA 
BRANCH   6   9
HETATM    9  N   UNL     1     -11.377  13.674  67.141  1.00  0.00    -0.306 NA 
HETATM   10  H   UNL     1     -12.117  13.588  66.446  1.00  0.00     0.000 HD 
BRANCH   9  11
HETATM   11  C   UNL     1     -11.737  13.726  68.511  1.00  0.00    -0.356 A  
HETATM   12  C   UNL     1     -11.980  12.584  69.316  1.00  0.00    -0.304 A  
HETATM   13  C   UNL     1     -12.228  12.733  70.692  1.00  0.00    -0.374 A  
HETATM   14  C   UNL     1     -12.029  11.178  68.796  1.00  0.00    -0.337 C  
HETATM   15  C   UNL     1     -12.176  13.976  71.302  1.00  0.00    -0.392 A  
HETATM   16  C   UNL     1     -11.911  15.103  70.534  1.00  0.00    -0.361 A  
HETATM   17  C   UNL     1     -11.703  14.993  69.146  1.00  0.00    -0.345 A  
HETATM   18  C   UNL     1     -11.438  16.259  68.370  1.00  0.00    -0.243 C  
ENDBRANCH   9  11
ENDBRANCH   6   9
ENDBRANCH   5   6
BRANCH   5  19
HETATM   19  C   UNL     1      -7.839  13.730  67.612  1.00  0.00    -0.185 C  
HETATM   20  C   UNL     1      -7.144  13.466  68.949  1.00  0.00    -0.084 C  
ENDBRANCH   5  19
ENDBRANCH   4   5
BRANCH   4  21
HETATM   21  C   UNL     1     -10.045  11.197  65.696  1.00  0.00    -0.253 C  
HETATM   22  C   UNL     1      -9.962  10.671  64.263  1.00  0.00    -0.413 C  
ENDBRANCH   4  21
ENDBRANCH   3   4
ENDBRANCH   2   3
TORSDOF 8
ENDMDL
MODEL      260
REMARK 921   NORMALIZED FREE ENERGY PREDICTED BY IDOCK:   -3.29 KCAL/MOL
REMARK 922        TOTAL FREE ENERGY PREDICTED BY IDOCK:   -5.80 KCAL/MOL
REMARK 923 INTER-LIGAND FREE ENERGY PREDICTED BY IDOCK:   -5.37 KCAL/MOL
REMARK 924 INTRA-LIGAND FREE ENERGY PREDICTED BY IDOCK:   -0.43 KCAL/MOL
REMARK 927      BINDING AFFINITY PREDICTED BY RF-SCORE:    0.00 PKD
ROOT
HETATM    1  C   UNL     1      -9.112   5.560  70.412  1.00  0.00    -0.164 C  
HETATM    2  C   UNL     1      -8.868   7.060  70.316  1.00  0.00    -0.148 C  
ENDROOT
BRANCH   2   3
HETATM    3  C   UNL     1      -8.448   7.510  68.901  1.00  0.00    -0.129 C  
BRANCH   3   4
HETATM    4  N   UNL     1      -9.215   8.630  68.297  1.00  0.00    -0.138 NA 
BRANCH   4   5
HETATM    5  C   UNL     1      -9.267   9.834  69.216  1.00  0.00    -0.192 C  
BRANCH   5   6
HETATM    6  C   UNL     1     -10.240  10.877  68.654  1.00  0.00    -0.189 C  
HETATM    7  H   UNL     1     -12.061  11.465  68.895  1.00  0.00     0.000 HD 
HETATM    8  O   UNL     1     -11.458  10.818  69.243  1.00  0.00    -0.254 OA 
BRANCH   6   9
HETATM    9  N   UNL     1      -9.918  11.689  67.710  1.00  0.00    -0.178 NA 
HETATM   10  H   UNL     1      -8.961  12.039  67.673  1.00  0.00     0.000 HD 
BRANCH   9  11
HETATM   11  C   UNL     1     -10.835  12.120  66.718  1.00  0.00    -0.248 A  
HETATM   12  C   UNL     1     -11.715  13.220  66.870  1.00  0.00    -0.437 A  
HETATM   13  C   UNL     1     -12.514  13.638  65.790  1.00  0.00    -0.524 A  
HETATM   14  C   UNL     1     -11.901  13.986  68.147  1.00  0.00    -0.402 C  
HETATM   15  C   UNL     1     -12.412  13.036  64.546  1.00  0.00    -0.427 A  
HETATM   16  C   UNL     1     -11.532  11.975  64.370  1.00  0.00    -0.413 A  
HETATM   17  C   UNL     1     -10.753  11.504  65.443  1.00  0.00    -0.335 A  
HETATM   18  C   UNL     1      -9.833  10.337  65.188  1.00  0.00    -0.389 C  
ENDBRANCH   9  11
ENDBRANCH   6   9
ENDBRANCH   5   6
BRANCH   5  19
HETATM   19  C   UNL     1      -7.913  10.562  69.443  1.00  0.00    -0.146 C  
HETATM   20  C   UNL     1      -6.923  10.499  68.278  1.00  0.00    -0.073 C  
ENDBRANCH   5  19
ENDBRANCH   4   5
BRANCH   4  21
HETATM   21  C   UNL     1     -10.579   8.179  67.911  1.00  0.00    -0.147 C  
HETATM   22  C   UNL     1     -10.698   6.899  67.081  1.00  0.00    -0.436 C  
ENDBRANCH   4  21
ENDBRANCH   3   4
ENDBRANCH   2   3
TORSDOF 8
ENDMDL
MODEL      261
REMARK 921   NORMALIZED FREE ENERGY PREDICTED BY IDOCK:   -3.29 KCAL/MOL
REMARK 922        TOTAL FREE ENERGY PREDICTED BY IDOCK:   -5.80 KCAL/MOL
REMARK 923 INTER-LIGAND FREE ENERGY PREDICTED BY IDOCK:   -4.89 KCAL/MOL
REMARK 924 INTRA-LIGAND FREE ENERGY PREDICTED BY IDOCK:   -0.91 KCAL/MOL
REMARK 927      BINDING AFFINITY PREDICTED BY RF-SCORE:    0.00 PKD
ROOT
HETATM    1  C   UNL     1     -12.458  12.409  63.573  1.00  0.00    -0.605 C  
HETATM    2  C   UNL     1     -12.086  13.852  63.882  1.00  0.00    -0.387 C  
ENDROOT
BRANCH   2   3
HETATM    3  C   UNL     1     -11.793  14.089  65.379  1.00  0.00    -0.359 C  
BRANCH   3   4
HETATM    4  N   UNL     1     -10.388  13.904  65.825  1.00  0.00    -0.306 NA 
BRANCH   4   5
HETATM    5  C   UNL     1     -10.307  13.083  67.097  1.00  0.00    -0.243 C  
BRANCH   5   6
HETATM    6  C   UNL     1      -9.615  11.745  66.811  1.00  0.00    -0.200 C  
HETATM    7  H   UNL     1      -9.034  10.685  65.309  1.00  0.00     0.000 HD 
HETATM    8  O   UNL     1      -9.463  11.514  65.486  1.00  0.00    -0.224 OA 
BRANCH   6   9
HETATM    9  N   UNL     1      -9.251  10.939  67.745  1.00  0.00    -0.151 NA 
HETATM   10  H   UNL     1      -9.560  11.126  68.698  1.00  0.00     0.000 HD 
BRANCH   9  11
HETATM   11  C   UNL     1      -8.440   9.801  67.508  1.00  0.00    -0.122 A  
HETATM   12  C   UNL     1      -8.934   8.549  67.061  1.00  0.00    -0.157 A  
HETATM   13  C   UNL     1      -8.040   7.509  66.751  1.00  0.00    -0.123 A  
HETATM   14  C   UNL     1     -10.390   8.216  66.917  1.00  0.00    -0.401 C  
HETATM   15  C   UNL     1      -6.668   7.700  66.810  1.00  0.00    -0.066 A  
HETATM   16  C   UNL     1      -6.166   8.929  67.217  1.00  0.00    -0.059 A  
HETATM   17  C   UNL     1      -7.035   9.976  67.577  1.00  0.00    -0.086 A  
HETATM   18  C   UNL     1      -6.423  11.278  68.029  1.00  0.00    -0.057 C  
ENDBRANCH   9  11
ENDBRANCH   6   9
ENDBRANCH   5   6
BRANCH   5  19
HETATM   19  C   UNL     1     -11.670  12.748  67.765  1.00  0.00    -0.412 C  
HETATM   20  C   UNL     1     -11.871  13.307  69.175  1.00  0.00    -0.378 C  
ENDBRANCH   5  19
ENDBRANCH   4   5
BRANCH   4  21
HETATM   21  C   UNL     1      -9.714  15.221  65.982  1.00  0.00    -0.335 C  
HETATM   22  C   UNL     1      -9.431  15.713  67.402  1.00  0.00    -0.217 C  
ENDBRANCH   4  21
ENDBRANCH   3   4
ENDBRANCH   2   3
TORSDOF 8
ENDMDL
MODEL      262
REMARK 921   NORMALIZED FREE ENERGY PREDICTED BY IDOCK:   -3.29 KCAL/MOL
REMARK 922        TOTAL FREE ENERGY PREDICTED BY IDOCK:   -5.80 KCAL/MOL
REMARK 923 INTER-LIGAND FREE ENERGY PREDICTED BY IDOCK:   -6.00 KCAL/MOL
REMARK 924 INTRA-LIGAND FREE ENERGY PREDICTED BY IDOCK:    0.20 KCAL/MOL
REMARK 927      BINDING AFFINITY PREDICTED BY RF-SCORE:    0.00 PKD
ROOT
HETATM    1  C   UNL     1     -11.306  12.957  64.432  1.00  0.00    -0.402 C  
HETATM    2  C   UNL     1     -10.181  12.089  64.979  1.00  0.00    -0.308 C  
ENDROOT
BRANCH   2   3
HETATM    3  C   UNL     1     -10.556  11.383  66.299  1.00  0.00    -0.263 C  
BRANCH   3   4
HETATM    4  N   UNL     1      -9.460  11.167  67.279  1.00  0.00    -0.164 NA 
BRANCH   4   5
HETATM    5  C   UNL     1      -9.949  11.307  68.707  1.00  0.00    -0.193 C  
BRANCH   5   6
HETATM    6  C   UNL     1     -10.124   9.921  69.337  1.00  0.00    -0.212 C  
HETATM    7  H   UNL     1      -9.906   8.061  68.877  1.00  0.00     0.000 HD 
HETATM    8  O   UNL     1      -9.799   8.920  68.486  1.00  0.00    -0.159 OA 
BRANCH   6   9
HETATM    9  N   UNL     1     -10.557   9.754  70.537  1.00  0.00    -0.296 NA 
HETATM   10  H   UNL     1     -10.066  10.217  71.302  1.00  0.00     0.000 HD 
BRANCH   9  11
HETATM   11  C   UNL     1     -11.687   8.955  70.844  1.00  0.00    -0.267 A  
HETATM   12  C   UNL     1     -11.700   7.538  70.790  1.00  0.00    -0.281 A  
HETATM   13  C   UNL     1     -12.837   6.828  71.216  1.00  0.00    -0.260 A  
HETATM   14  C   UNL     1     -10.571   6.701  70.265  1.00  0.00    -0.265 C  
HETATM   15  C   UNL     1     -13.933   7.483  71.754  1.00  0.00    -0.473 A  
HETATM   16  C   UNL     1     -13.926   8.869  71.843  1.00  0.00    -0.476 A  
HETATM   17  C   UNL     1     -12.822   9.611  71.384  1.00  0.00    -0.471 A  
HETATM   18  C   UNL     1     -12.888  11.114  71.491  1.00  0.00    -0.542 C  
ENDBRANCH   9  11
ENDBRANCH   6   9
ENDBRANCH   5   6
BRANCH   5  19
HETATM   19  C   UNL     1     -11.303  12.051  68.881  1.00  0.00    -0.333 C  
HETATM   20  C   UNL     1     -11.303  13.528  68.480  1.00  0.00    -0.327 C  
ENDBRANCH   5  19
ENDBRANCH   4   5
BRANCH   4  21
HETATM   21  C   UNL     1      -8.323  12.084  66.999  1.00  0.00    -0.178 C  
HETATM   22  C   UNL     1      -6.939  11.464  66.798  1.00  0.00    -0.128 C  
ENDBRANCH   4  21
ENDBRANCH   3   4
ENDBRANCH   2   3
TORSDOF 8
ENDMDL
MODEL      263
REMARK 921   NORMALIZED FREE ENERGY PREDICTED BY IDOCK:   -3.28 KCAL/MOL
REMARK 922        TOTAL FREE ENERGY PREDICTED BY IDOCK:   -5.79 KCAL/MOL
REMARK 923 INTER-LIGAND FREE ENERGY PREDICTED BY IDOCK:   -4.81 KCAL/MOL
REMARK 924 INTRA-LIGAND FREE ENERGY PREDICTED BY IDOCK:   -0.98 KCAL/MOL
REMARK 927      BINDING AFFINITY PREDICTED BY RF-SCORE:    0.00 PKD
ROOT
HETATM    1  C   UNL     1     -10.692   7.213  67.474  1.00  0.00    -0.344 C  
HETATM    2  C   UNL     1      -9.434   7.076  66.628  1.00  0.00    -0.210 C  
ENDROOT
BRANCH   2   3
HETATM    3  C   UNL     1      -8.138   7.242  67.449  1.00  0.00    -0.113 C  
BRANCH   3   4
HETATM    4  N   UNL     1      -8.293   7.520  68.900  1.00  0.00    -0.128 NA 
BRANCH   4   5
HETATM    5  C   UNL     1      -7.829   8.918  69.256  1.00  0.00    -0.096 C  
BRANCH   5   6
HETATM    6  C   UNL     1      -9.041   9.814  69.539  1.00  0.00    -0.216 C  
HETATM    7  H   UNL     1     -10.323  10.891  68.585  1.00  0.00     0.000 HD 
HETATM    8  O   UNL     1      -9.572  10.337  68.410  1.00  0.00    -0.143 OA 
BRANCH   6   9
HETATM    9  N   UNL     1      -9.469  10.046  70.730  1.00  0.00    -0.245 NA 
HETATM   10  H   UNL     1      -8.840  10.492  71.396  1.00  0.00     0.000 HD 
BRANCH   9  11
HETATM   11  C   UNL     1     -10.778   9.709  71.157  1.00  0.00    -0.294 A  
HETATM   12  C   UNL     1     -11.940  10.451  70.828  1.00  0.00    -0.462 A  
HETATM   13  C   UNL     1     -13.209   9.980  71.209  1.00  0.00    -0.469 A  
HETATM   14  C   UNL     1     -11.928  11.767  70.107  1.00  0.00    -0.421 C  
HETATM   15  C   UNL     1     -13.359   8.760  71.850  1.00  0.00    -0.432 A  
HETATM   16  C   UNL     1     -12.234   8.005  72.154  1.00  0.00    -0.377 A  
HETATM   17  C   UNL     1     -10.947   8.470  71.826  1.00  0.00    -0.376 A  
HETATM   18  C   UNL     1      -9.767   7.609  72.203  1.00  0.00    -0.220 C  
ENDBRANCH   9  11
ENDBRANCH   6   9
ENDBRANCH   5   6
BRANCH   5  19
HETATM   19  C   UNL     1      -6.983   9.640  68.170  1.00  0.00    -0.077 C  
HETATM   20  C   UNL     1      -5.576  10.061  68.599  1.00  0.00    -0.038 C  
ENDBRANCH   5  19
ENDBRANCH   4   5
BRANCH   4  21
HETATM   21  C   UNL     1      -7.585   6.489  69.706  1.00  0.00    -0.097 C  
HETATM   22  C   UNL     1      -6.415   6.944  70.579  1.00  0.00    -0.051 C  
ENDBRANCH   4  21
ENDBRANCH   3   4
ENDBRANCH   2   3
TORSDOF 8
ENDMDL
MODEL      264
REMARK 921   NORMALIZED FREE ENERGY PREDICTED BY IDOCK:   -3.28 KCAL/MOL
REMARK 922        TOTAL FREE ENERGY PREDICTED BY IDOCK:   -5.79 KCAL/MOL
REMARK 923 INTER-LIGAND FREE ENERGY PREDICTED BY IDOCK:   -4.94 KCAL/MOL
REMARK 924 INTRA-LIGAND FREE ENERGY PREDICTED BY IDOCK:   -0.85 KCAL/MOL
REMARK 927      BINDING AFFINITY PREDICTED BY RF-SCORE:    0.00 PKD
ROOT
HETATM    1  C   UNL     1     -13.216  15.425  70.961  1.00  0.00    -0.560 C  
HETATM    2  C   UNL     1     -12.527  14.088  70.723  1.00  0.00    -0.442 C  
ENDROOT
BRANCH   2   3
HETATM    3  C   UNL     1     -11.502  14.138  69.571  1.00  0.00    -0.281 C  
BRANCH   3   4
HETATM    4  N   UNL     1     -10.984  12.836  69.076  1.00  0.00    -0.226 NA 
BRANCH   4   5
HETATM    5  C   UNL     1     -10.662  12.887  67.596  1.00  0.00    -0.223 C  
BRANCH   5   6
HETATM    6  C   UNL     1      -9.143  12.847  67.391  1.00  0.00    -0.197 C  
HETATM    7  H   UNL     1      -7.723  13.963  66.717  1.00  0.00     0.000 HD 
HETATM    8  O   UNL     1      -8.664  13.988  66.844  1.00  0.00    -0.220 OA 
BRANCH   6   9
HETATM    9  N   UNL     1      -8.429  11.819  67.692  1.00  0.00    -0.142 NA 
HETATM   10  H   UNL     1      -8.475  11.456  68.643  1.00  0.00     0.000 HD 
BRANCH   9  11
HETATM   11  C   UNL     1      -7.582  11.170  66.759  1.00  0.00    -0.146 A  
HETATM   12  C   UNL     1      -8.045  10.375  65.681  1.00  0.00    -0.156 A  
HETATM   13  C   UNL     1      -7.132   9.858  64.744  1.00  0.00    -0.133 A  
HETATM   14  C   UNL     1      -9.480   9.994  65.465  1.00  0.00    -0.296 C  
HETATM   15  C   UNL     1      -5.782  10.165  64.812  1.00  0.00    -0.117 A  
HETATM   16  C   UNL     1      -5.315  10.968  65.844  1.00  0.00    -0.143 A  
HETATM   17  C   UNL     1      -6.196  11.463  66.823  1.00  0.00    -0.141 A  
HETATM   18  C   UNL     1      -5.619  12.313  67.927  1.00  0.00    -0.075 C  
ENDBRANCH   9  11
ENDBRANCH   6   9
ENDBRANCH   5   6
BRANCH   5  19
HETATM   19  C   UNL     1     -11.183  14.141  66.840  1.00  0.00    -0.326 C  
HETATM   20  C   UNL     1     -12.534  13.980  66.142  1.00  0.00    -0.467 C  
ENDBRANCH   5  19
ENDBRANCH   4   5
BRANCH   4  21
HETATM   21  C   UNL     1     -11.942  11.742  69.389  1.00  0.00    -0.298 C  
HETATM   22  C   UNL     1     -11.367  10.368  69.735  1.00  0.00    -0.353 C  
ENDBRANCH   4  21
ENDBRANCH   3   4
ENDBRANCH   2   3
TORSDOF 8
ENDMDL
MODEL      265
REMARK 921   NORMALIZED FREE ENERGY PREDICTED BY IDOCK:   -3.27 KCAL/MOL
REMARK 922        TOTAL FREE ENERGY PREDICTED BY IDOCK:   -5.78 KCAL/MOL
REMARK 923 INTER-LIGAND FREE ENERGY PREDICTED BY IDOCK:   -5.02 KCAL/MOL
REMARK 924 INTRA-LIGAND FREE ENERGY PREDICTED BY IDOCK:   -0.76 KCAL/MOL
REMARK 927      BINDING AFFINITY PREDICTED BY RF-SCORE:    0.00 PKD
ROOT
HETATM    1  C   UNL     1     -11.008   6.530  67.085  1.00  0.00    -0.480 C  
HETATM    2  C   UNL     1     -10.513   7.468  68.178  1.00  0.00    -0.233 C  
ENDROOT
BRANCH   2   3
HETATM    3  C   UNL     1      -9.510   8.519  67.658  1.00  0.00    -0.145 C  
BRANCH   3   4
HETATM    4  N   UNL     1      -9.944   9.939  67.699  1.00  0.00    -0.163 NA 
BRANCH   4   5
HETATM    5  C   UNL     1      -8.887  10.865  67.132  1.00  0.00    -0.135 C  
BRANCH   5   6
HETATM    6  C   UNL     1      -9.437  11.592  65.900  1.00  0.00    -0.228 C  
HETATM    7  H   UNL     1     -10.468  11.218  64.314  1.00  0.00     0.000 HD 
HETATM    8  O   UNL     1     -10.127  10.768  65.077  1.00  0.00    -0.272 OA 
BRANCH   6   9
HETATM    9  N   UNL     1      -9.231  12.844  65.682  1.00  0.00    -0.388 NA 
HETATM   10  H   UNL     1      -8.570  13.109  64.952  1.00  0.00     0.000 HD 
BRANCH   9  11
HETATM   11  C   UNL     1      -9.881  13.870  66.412  1.00  0.00    -0.295 A  
HETATM   12  C   UNL     1     -11.286  14.055  66.449  1.00  0.00    -0.321 A  
HETATM   13  C   UNL     1     -11.845  15.036  67.286  1.00  0.00    -0.163 A  
HETATM   14  C   UNL     1     -12.263  13.284  65.611  1.00  0.00    -0.514 C  
HETATM   15  C   UNL     1     -11.053  15.793  68.136  1.00  0.00    -0.341 A  
HETATM   16  C   UNL     1      -9.677  15.605  68.135  1.00  0.00    -0.204 A  
HETATM   17  C   UNL     1      -9.082  14.662  67.275  1.00  0.00    -0.215 A  
HETATM   18  C   UNL     1      -7.581  14.523  67.311  1.00  0.00    -0.150 C  
ENDBRANCH   9  11
ENDBRANCH   6   9
ENDBRANCH   5   6
BRANCH   5  19
HETATM   19  C   UNL     1      -7.562  10.181  66.694  1.00  0.00    -0.107 C  
HETATM   20  C   UNL     1      -6.318  11.070  66.718  1.00  0.00    -0.114 C  
ENDBRANCH   5  19
ENDBRANCH   4   5
BRANCH   4  21
HETATM   21  C   UNL     1     -10.323  10.328  69.085  1.00  0.00    -0.223 C  
HETATM   22  C   UNL     1     -11.799  10.616  69.366  1.00  0.00    -0.325 C  
ENDBRANCH   4  21
ENDBRANCH   3   4
ENDBRANCH   2   3
TORSDOF 8
ENDMDL
MODEL      266
REMARK 921   NORMALIZED FREE ENERGY PREDICTED BY IDOCK:   -3.25 KCAL/MOL
REMARK 922        TOTAL FREE ENERGY PREDICTED BY IDOCK:   -5.75 KCAL/MOL
REMARK 923 INTER-LIGAND FREE ENERGY PREDICTED BY IDOCK:   -5.30 KCAL/MOL
REMARK 924 INTRA-LIGAND FREE ENERGY PREDICTED BY IDOCK:   -0.45 KCAL/MOL
REMARK 927      BINDING AFFINITY PREDICTED BY RF-SCORE:    0.00 PKD
ROOT
HETATM    1  C   UNL     1     -12.537  14.356  71.181  1.00  0.00    -0.422 C  
HETATM    2  C   UNL     1     -12.384  14.306  69.668  1.00  0.00    -0.312 C  
ENDROOT
BRANCH   2   3
HETATM    3  C   UNL     1     -11.558  15.484  69.108  1.00  0.00    -0.362 C  
BRANCH   3   4
HETATM    4  N   UNL     1     -10.551  15.162  68.065  1.00  0.00    -0.253 NA 
BRANCH   4   5
HETATM    5  C   UNL     1     -11.192  14.553  66.835  1.00  0.00    -0.336 C  
BRANCH   5   6
HETATM    6  C   UNL     1     -10.652  13.136  66.613  1.00  0.00    -0.279 C  
HETATM    7  H   UNL     1     -11.126  11.307  66.997  1.00  0.00     0.000 HD 
HETATM    8  O   UNL     1     -11.461  12.185  67.135  1.00  0.00    -0.313 OA 
BRANCH   6   9
HETATM    9  N   UNL     1      -9.536  12.904  66.014  1.00  0.00    -0.438 NA 
HETATM   10  H   UNL     1      -8.925  13.692  65.800  1.00  0.00     0.000 HD 
BRANCH   9  11
HETATM   11  C   UNL     1      -9.118  11.603  65.639  1.00  0.00    -0.080 A  
HETATM   12  C   UNL     1      -8.468  10.693  66.511  1.00  0.00    -0.144 A  
HETATM   13  C   UNL     1      -8.187   9.384  66.079  1.00  0.00    -0.111 A  
HETATM   14  C   UNL     1      -8.007  11.031  67.898  1.00  0.00    -0.112 C  
HETATM   15  C   UNL     1      -8.592   8.936  64.832  1.00  0.00    -0.198 A  
HETATM   16  C   UNL     1      -9.255   9.805  63.976  1.00  0.00    -0.267 A  
HETATM   17  C   UNL     1      -9.512  11.135  64.361  1.00  0.00    -0.251 A  
HETATM   18  C   UNL     1     -10.220  12.030  63.375  1.00  0.00    -0.457 C  
ENDBRANCH   9  11
ENDBRANCH   6   9
ENDBRANCH   5   6
BRANCH   5  19
HETATM   19  C   UNL     1     -10.968  15.331  65.508  1.00  0.00    -0.365 C  
HETATM   20  C   UNL     1     -10.537  16.791  65.661  1.00  0.00    -0.258 C  
ENDBRANCH   5  19
ENDBRANCH   4   5
BRANCH   4  21
HETATM   21  C   UNL     1      -9.489  14.280  68.621  1.00  0.00    -0.178 C  
HETATM   22  C   UNL     1      -8.089  14.870  68.794  1.00  0.00    -0.162 C  
ENDBRANCH   4  21
ENDBRANCH   3   4
ENDBRANCH   2   3
TORSDOF 8
ENDMDL
MODEL      267
REMARK 921   NORMALIZED FREE ENERGY PREDICTED BY IDOCK:   -3.25 KCAL/MOL
REMARK 922        TOTAL FREE ENERGY PREDICTED BY IDOCK:   -5.74 KCAL/MOL
REMARK 923 INTER-LIGAND FREE ENERGY PREDICTED BY IDOCK:   -4.44 KCAL/MOL
REMARK 924 INTRA-LIGAND FREE ENERGY PREDICTED BY IDOCK:   -1.30 KCAL/MOL
REMARK 927      BINDING AFFINITY PREDICTED BY RF-SCORE:    0.00 PKD
ROOT
HETATM    1  C   UNL     1      -6.369  10.366  66.080  1.00  0.00    -0.106 C  
HETATM    2  C   UNL     1      -7.805  10.848  65.934  1.00  0.00    -0.090 C  
ENDROOT
BRANCH   2   3
HETATM    3  C   UNL     1      -8.573  10.863  67.272  1.00  0.00    -0.128 C  
BRANCH   3   4
HETATM    4  N   UNL     1      -9.682   9.885  67.421  1.00  0.00    -0.157 NA 
BRANCH   4   5
HETATM    5  C   UNL     1      -9.442   8.937  68.579  1.00  0.00    -0.147 C  
BRANCH   5   6
HETATM    6  C   UNL     1     -10.702   8.848  69.448  1.00  0.00    -0.181 C  
HETATM    7  H   UNL     1     -11.808   9.979  70.550  1.00  0.00     0.000 HD 
HETATM    8  O   UNL     1     -11.028  10.034  70.011  1.00  0.00    -0.256 OA 
BRANCH   6   9
HETATM    9  N   UNL     1     -11.345   7.748  69.627  1.00  0.00    -0.446 NA 
HETATM   10  H   UNL     1     -12.117   7.527  68.998  1.00  0.00     0.000 HD 
BRANCH   9  11
HETATM   11  C   UNL     1     -11.029   6.829  70.659  1.00  0.00    -0.267 A  
HETATM   12  C   UNL     1     -11.375   7.011  72.022  1.00  0.00    -0.300 A  
HETATM   13  C   UNL     1     -11.111   5.994  72.957  1.00  0.00    -0.271 A  
HETATM   14  C   UNL     1     -11.991   8.260  72.579  1.00  0.00    -0.420 C  
HETATM   15  C   UNL     1     -10.576   4.778  72.564  1.00  0.00    -0.262 A  
HETATM   16  C   UNL     1     -10.258   4.570  71.228  1.00  0.00    -0.167 A  
HETATM   17  C   UNL     1     -10.468   5.585  70.275  1.00  0.00    -0.365 A  
HETATM   18  C   UNL     1     -10.083   5.300  68.845  1.00  0.00    -0.254 C  
ENDBRANCH   9  11
ENDBRANCH   6   9
ENDBRANCH   5   6
BRANCH   5  19
HETATM   19  C   UNL     1      -8.271   9.319  69.525  1.00  0.00    -0.121 C  
HETATM   20  C   UNL     1      -7.744   8.192  70.415  1.00  0.00    -0.085 C  
ENDBRANCH   5  19
ENDBRANCH   4   5
BRANCH   4  21
HETATM   21  C   UNL     1      -9.900   9.147  66.147  1.00  0.00    -0.293 C  
HETATM   22  C   UNL     1      -9.530   7.664  66.110  1.00  0.00    -0.117 C  
ENDBRANCH   4  21
ENDBRANCH   3   4
ENDBRANCH   2   3
TORSDOF 8
ENDMDL
MODEL      268
REMARK 921   NORMALIZED FREE ENERGY PREDICTED BY IDOCK:   -3.25 KCAL/MOL
REMARK 922        TOTAL FREE ENERGY PREDICTED BY IDOCK:   -5.74 KCAL/MOL
REMARK 923 INTER-LIGAND FREE ENERGY PREDICTED BY IDOCK:   -4.80 KCAL/MOL
REMARK 924 INTRA-LIGAND FREE ENERGY PREDICTED BY IDOCK:   -0.94 KCAL/MOL
REMARK 927      BINDING AFFINITY PREDICTED BY RF-SCORE:    0.00 PKD
ROOT
HETATM    1  C   UNL     1      -6.925  11.386  66.869  1.00  0.00    -0.140 C  
HETATM    2  C   UNL     1      -8.364  11.245  67.346  1.00  0.00    -0.137 C  
ENDROOT
BRANCH   2   3
HETATM    3  C   UNL     1      -8.469  10.898  68.846  1.00  0.00    -0.141 C  
BRANCH   3   4
HETATM    4  N   UNL     1      -8.643   9.464  69.193  1.00  0.00    -0.134 NA 
BRANCH   4   5
HETATM    5  C   UNL     1     -10.048   9.171  69.678  1.00  0.00    -0.198 C  
BRANCH   5   6
HETATM    6  C   UNL     1     -10.753   8.229  68.695  1.00  0.00    -0.027 C  
HETATM    7  H   UNL     1     -11.067   8.052  66.801  1.00  0.00     0.000 HD 
HETATM    8  O   UNL     1     -10.630   8.635  67.410  1.00  0.00    -0.274 OA 
BRANCH   6   9
HETATM    9  N   UNL     1     -11.406   7.188  69.077  1.00  0.00    -0.472 NA 
HETATM   10  H   UNL     1     -12.403   7.280  69.267  1.00  0.00     0.000 HD 
BRANCH   9  11
HETATM   11  C   UNL     1     -10.800   5.918  69.246  1.00  0.00    -0.344 A  
HETATM   12  C   UNL     1     -10.320   5.116  68.180  1.00  0.00    -0.140 A  
HETATM   13  C   UNL     1      -9.637   3.917  68.452  1.00  0.00    -0.179 A  
HETATM   14  C   UNL     1     -10.516   5.434  66.726  1.00  0.00    -0.347 C  
HETATM   15  C   UNL     1      -9.360   3.528  69.754  1.00  0.00    -0.244 A  
HETATM   16  C   UNL     1      -9.797   4.316  70.810  1.00  0.00    -0.265 A  
HETATM   17  C   UNL     1     -10.522   5.499  70.571  1.00  0.00    -0.347 A  
HETATM   18  C   UNL     1     -10.983   6.297  71.765  1.00  0.00    -0.305 C  
ENDBRANCH   9  11
ENDBRANCH   6   9
ENDBRANCH   5   6
BRANCH   5  19
HETATM   19  C   UNL     1     -10.970  10.410  69.849  1.00  0.00    -0.364 C  
HETATM   20  C   UNL     1     -12.086  10.268  70.886  1.00  0.00    -0.468 C  
ENDBRANCH   5  19
ENDBRANCH   4   5
BRANCH   4  21
HETATM   21  C   UNL     1      -7.622   9.042  70.191  1.00  0.00    -0.082 C  
HETATM   22  C   UNL     1      -8.116   8.557  71.555  1.00  0.00    -0.191 C  
ENDBRANCH   4  21
ENDBRANCH   3   4
ENDBRANCH   2   3
TORSDOF 8
ENDMDL
MODEL      269
REMARK 921   NORMALIZED FREE ENERGY PREDICTED BY IDOCK:   -3.25 KCAL/MOL
REMARK 922        TOTAL FREE ENERGY PREDICTED BY IDOCK:   -5.73 KCAL/MOL
REMARK 923 INTER-LIGAND FREE ENERGY PREDICTED BY IDOCK:   -4.84 KCAL/MOL
REMARK 924 INTRA-LIGAND FREE ENERGY PREDICTED BY IDOCK:   -0.90 KCAL/MOL
REMARK 927      BINDING AFFINITY PREDICTED BY RF-SCORE:    0.00 PKD
ROOT
HETATM    1  C   UNL     1      -7.008   6.983  65.290  1.00  0.00    -0.056 C  
HETATM    2  C   UNL     1      -8.008   8.071  65.653  1.00  0.00    -0.114 C  
ENDROOT
BRANCH   2   3
HETATM    3  C   UNL     1      -8.463   8.000  67.126  1.00  0.00    -0.124 C  
BRANCH   3   4
HETATM    4  N   UNL     1      -9.869   8.387  67.415  1.00  0.00    -0.175 NA 
BRANCH   4   5
HETATM    5  C   UNL     1      -9.963   9.294  68.625  1.00  0.00    -0.178 C  
BRANCH   5   6
HETATM    6  C   UNL     1     -10.435  10.688  68.196  1.00  0.00    -0.185 C  
HETATM    7  H   UNL     1     -11.660  11.505  66.950  1.00  0.00     0.000 HD 
HETATM    8  O   UNL     1     -11.367  10.641  67.216  1.00  0.00    -0.380 OA 
BRANCH   6   9
HETATM    9  N   UNL     1      -9.962  11.770  68.709  1.00  0.00    -0.367 NA 
HETATM   10  H   UNL     1      -9.019  11.753  69.096  1.00  0.00     0.000 HD 
BRANCH   9  11
HETATM   11  C   UNL     1     -10.693  12.983  68.760  1.00  0.00    -0.221 A  
HETATM   12  C   UNL     1     -11.731  13.250  69.688  1.00  0.00    -0.369 A  
HETATM   13  C   UNL     1     -12.327  14.523  69.731  1.00  0.00    -0.317 A  
HETATM   14  C   UNL     1     -12.292  12.239  70.645  1.00  0.00    -0.375 C  
HETATM   15  C   UNL     1     -11.876  15.555  68.923  1.00  0.00    -0.357 A  
HETATM   16  C   UNL     1     -10.841  15.320  68.028  1.00  0.00    -0.288 A  
HETATM   17  C   UNL     1     -10.253  14.044  67.930  1.00  0.00    -0.240 A  
HETATM   18  C   UNL     1      -9.147  13.853  66.923  1.00  0.00    -0.257 C  
ENDBRANCH   9  11
ENDBRANCH   6   9
ENDBRANCH   5   6
BRANCH   5  19
HETATM   19  C   UNL     1      -8.642   9.493  69.418  1.00  0.00    -0.159 C  
HETATM   20  C   UNL     1      -8.626   8.915  70.834  1.00  0.00    -0.242 C  
ENDBRANCH   5  19
ENDBRANCH   4   5
BRANCH   4  21
HETATM   21  C   UNL     1     -10.720   7.177  67.571  1.00  0.00    -0.274 C  
HETATM   22  C   UNL     1     -10.025   5.850  67.880  1.00  0.00    -0.157 C  
ENDBRANCH   4  21
ENDBRANCH   3   4
ENDBRANCH   2   3
TORSDOF 8
ENDMDL
MODEL      270
REMARK 921   NORMALIZED FREE ENERGY PREDICTED BY IDOCK:   -3.24 KCAL/MOL
REMARK 922        TOTAL FREE ENERGY PREDICTED BY IDOCK:   -5.73 KCAL/MOL
REMARK 923 INTER-LIGAND FREE ENERGY PREDICTED BY IDOCK:   -5.63 KCAL/MOL
REMARK 924 INTRA-LIGAND FREE ENERGY PREDICTED BY IDOCK:   -0.10 KCAL/MOL
REMARK 927      BINDING AFFINITY PREDICTED BY RF-SCORE:    0.00 PKD
ROOT
HETATM    1  C   UNL     1      -9.390   9.753  64.643  1.00  0.00    -0.318 C  
HETATM    2  C   UNL     1     -10.261  10.925  64.216  1.00  0.00    -0.430 C  
ENDROOT
BRANCH   2   3
HETATM    3  C   UNL     1     -10.763  11.766  65.409  1.00  0.00    -0.283 C  
BRANCH   3   4
HETATM    4  N   UNL     1     -10.608  13.240  65.305  1.00  0.00    -0.304 NA 
BRANCH   4   5
HETATM    5  C   UNL     1      -9.709  13.788  66.395  1.00  0.00    -0.294 C  
BRANCH   5   6
HETATM    6  C   UNL     1     -10.359  13.570  67.766  1.00  0.00    -0.241 C  
HETATM    7  H   UNL     1     -11.964  14.049  68.722  1.00  0.00     0.000 HD 
HETATM    8  O   UNL     1     -11.561  14.183  67.872  1.00  0.00    -0.299 OA 
BRANCH   6   9
HETATM    9  N   UNL     1      -9.792  12.896  68.705  1.00  0.00    -0.401 NA 
HETATM   10  H   UNL     1      -9.292  13.403  69.434  1.00  0.00     0.000 HD 
BRANCH   9  11
HETATM   11  C   UNL     1      -9.832  11.481  68.769  1.00  0.00    -0.141 A  
HETATM   12  C   UNL     1      -8.818  10.631  68.261  1.00  0.00    -0.139 A  
HETATM   13  C   UNL     1      -8.895   9.242  68.466  1.00  0.00    -0.129 A  
HETATM   14  C   UNL     1      -7.639  11.103  67.461  1.00  0.00    -0.108 C  
HETATM   15  C   UNL     1      -9.916   8.682  69.218  1.00  0.00    -0.195 A  
HETATM   16  C   UNL     1     -10.903   9.503  69.749  1.00  0.00    -0.264 A  
HETATM   17  C   UNL     1     -10.878  10.892  69.523  1.00  0.00    -0.286 A  
HETATM   18  C   UNL     1     -11.991  11.722  70.112  1.00  0.00    -0.421 C  
ENDBRANCH   9  11
ENDBRANCH   6   9
ENDBRANCH   5   6
BRANCH   5  19
HETATM   19  C   UNL     1      -9.377  15.302  66.292  1.00  0.00    -0.345 C  
HETATM   20  C   UNL     1      -8.061  15.738  66.938  1.00  0.00    -0.292 C  
ENDBRANCH   5  19
ENDBRANCH   4   5
BRANCH   4  21
HETATM   21  C   UNL     1     -11.939  13.905  65.310  1.00  0.00    -0.375 C  
HETATM   22  C   UNL     1     -12.228  14.931  64.214  1.00  0.00    -0.365 C  
ENDBRANCH   4  21
ENDBRANCH   3   4
ENDBRANCH   2   3
TORSDOF 8
ENDMDL
MODEL      271
REMARK 921   NORMALIZED FREE ENERGY PREDICTED BY IDOCK:   -3.24 KCAL/MOL
REMARK 922        TOTAL FREE ENERGY PREDICTED BY IDOCK:   -5.73 KCAL/MOL
REMARK 923 INTER-LIGAND FREE ENERGY PREDICTED BY IDOCK:   -5.01 KCAL/MOL
REMARK 924 INTRA-LIGAND FREE ENERGY PREDICTED BY IDOCK:   -0.72 KCAL/MOL
REMARK 927      BINDING AFFINITY PREDICTED BY RF-SCORE:    0.00 PKD
ROOT
HETATM    1  C   UNL     1      -5.824  15.678  70.110  1.00  0.00    -0.152 C  
HETATM    2  C   UNL     1      -5.590  14.374  69.362  1.00  0.00    -0.090 C  
ENDROOT
BRANCH   2   3
HETATM    3  C   UNL     1      -6.150  14.398  67.924  1.00  0.00    -0.150 C  
BRANCH   3   4
HETATM    4  N   UNL     1      -7.628  14.359  67.777  1.00  0.00    -0.147 NA 
BRANCH   4   5
HETATM    5  C   UNL     1      -8.098  13.043  67.191  1.00  0.00    -0.107 C  
BRANCH   5   6
HETATM    6  C   UNL     1      -9.470  12.676  67.768  1.00  0.00    -0.198 C  
HETATM    7  H   UNL     1     -10.568  13.063  69.305  1.00  0.00     0.000 HD 
HETATM    8  O   UNL     1      -9.717  13.290  68.948  1.00  0.00    -0.033 OA 
BRANCH   6   9
HETATM    9  N   UNL     1     -10.270  11.851  67.186  1.00  0.00    -0.207 NA 
HETATM   10  H   UNL     1     -10.454  10.954  67.634  1.00  0.00     0.000 HD 
BRANCH   9  11
HETATM   11  C   UNL     1     -10.906  12.135  65.952  1.00  0.00    -0.278 A  
HETATM   12  C   UNL     1     -11.830  13.192  65.757  1.00  0.00    -0.442 A  
HETATM   13  C   UNL     1     -12.329  13.462  64.470  1.00  0.00    -0.415 A  
HETATM   14  C   UNL     1     -12.369  14.060  66.856  1.00  0.00    -0.321 C  
HETATM   15  C   UNL     1     -11.884  12.755  63.364  1.00  0.00    -0.591 A  
HETATM   16  C   UNL     1     -10.956  11.735  63.532  1.00  0.00    -0.499 A  
HETATM   17  C   UNL     1     -10.472  11.411  64.813  1.00  0.00    -0.366 A  
HETATM   18  C   UNL     1      -9.481  10.280  64.927  1.00  0.00    -0.337 C  
ENDBRANCH   9  11
ENDBRANCH   6   9
ENDBRANCH   5   6
BRANCH   5  19
HETATM   19  C   UNL     1      -7.166  11.825  67.444  1.00  0.00    -0.133 C  
HETATM   20  C   UNL     1      -7.343  11.125  68.793  1.00  0.00    -0.114 C  
ENDBRANCH   5  19
ENDBRANCH   4   5
BRANCH   4  21
HETATM   21  C   UNL     1      -8.102  15.516  66.971  1.00  0.00    -0.237 C  
HETATM   22  C   UNL     1      -8.304  16.851  67.690  1.00  0.00    -0.192 C  
ENDBRANCH   4  21
ENDBRANCH   3   4
ENDBRANCH   2   3
TORSDOF 8
ENDMDL
MODEL      272
REMARK 921   NORMALIZED FREE ENERGY PREDICTED BY IDOCK:   -3.24 KCAL/MOL
REMARK 922        TOTAL FREE ENERGY PREDICTED BY IDOCK:   -5.73 KCAL/MOL
REMARK 923 INTER-LIGAND FREE ENERGY PREDICTED BY IDOCK:   -5.32 KCAL/MOL
REMARK 924 INTRA-LIGAND FREE ENERGY PREDICTED BY IDOCK:   -0.41 KCAL/MOL
REMARK 927      BINDING AFFINITY PREDICTED BY RF-SCORE:    0.00 PKD
ROOT
HETATM    1  C   UNL     1      -6.105  11.478  69.984  1.00  0.00    -0.151 C  
HETATM    2  C   UNL     1      -6.356  10.275  69.086  1.00  0.00    -0.045 C  
ENDROOT
BRANCH   2   3
HETATM    3  C   UNL     1      -7.566  10.469  68.148  1.00  0.00    -0.091 C  
BRANCH   3   4
HETATM    4  N   UNL     1      -8.724   9.560  68.350  1.00  0.00    -0.123 NA 
BRANCH   4   5
HETATM    5  C   UNL     1      -9.522   9.377  67.075  1.00  0.00    -0.155 C  
BRANCH   5   6
HETATM    6  C   UNL     1     -10.210  10.693  66.695  1.00  0.00    -0.231 C  
HETATM    7  H   UNL     1     -11.841  11.654  67.057  1.00  0.00     0.000 HD 
HETATM    8  O   UNL     1     -11.416  10.838  67.292  1.00  0.00    -0.436 OA 
BRANCH   6   9
HETATM    9  N   UNL     1      -9.687  11.539  65.878  1.00  0.00    -0.225 NA 
HETATM   10  H   UNL     1      -8.919  11.230  65.282  1.00  0.00     0.000 HD 
BRANCH   9  11
HETATM   11  C   UNL     1     -10.131  12.880  65.769  1.00  0.00    -0.287 A  
HETATM   12  C   UNL     1      -9.608  13.958  66.527  1.00  0.00    -0.299 A  
HETATM   13  C   UNL     1     -10.038  15.272  66.273  1.00  0.00    -0.297 A  
HETATM   14  C   UNL     1      -8.619  13.804  67.646  1.00  0.00    -0.187 C  
HETATM   15  C   UNL     1     -10.923  15.552  65.244  1.00  0.00    -0.391 A  
HETATM   16  C   UNL     1     -11.423  14.513  64.471  1.00  0.00    -0.349 A  
HETATM   17  C   UNL     1     -11.047  13.181  64.729  1.00  0.00    -0.351 A  
HETATM   18  C   UNL     1     -11.643  12.099  63.864  1.00  0.00    -0.532 C  
ENDBRANCH   9  11
ENDBRANCH   6   9
ENDBRANCH   5   6
BRANCH   5  19
HETATM   19  C   UNL     1     -10.633   8.291  67.130  1.00  0.00    -0.340 C  
HETATM   20  C   UNL     1     -10.144   6.852  67.307  1.00  0.00    -0.256 C  
ENDBRANCH   5  19
ENDBRANCH   4   5
BRANCH   4  21
HETATM   21  C   UNL     1      -9.581  10.048  69.464  1.00  0.00    -0.230 C  
HETATM   22  C   UNL     1      -9.539   9.279  70.786  1.00  0.00    -0.341 C  
ENDBRANCH   4  21
ENDBRANCH   3   4
ENDBRANCH   2   3
TORSDOF 8
ENDMDL
MODEL      273
REMARK 921   NORMALIZED FREE ENERGY PREDICTED BY IDOCK:   -3.23 KCAL/MOL
REMARK 922        TOTAL FREE ENERGY PREDICTED BY IDOCK:   -5.72 KCAL/MOL
REMARK 923 INTER-LIGAND FREE ENERGY PREDICTED BY IDOCK:   -5.79 KCAL/MOL
REMARK 924 INTRA-LIGAND FREE ENERGY PREDICTED BY IDOCK:    0.07 KCAL/MOL
REMARK 927      BINDING AFFINITY PREDICTED BY RF-SCORE:    0.00 PKD
ROOT
HETATM    1  C   UNL     1      -7.573  10.167  63.659  1.00  0.00    -0.139 C  
HETATM    2  C   UNL     1      -8.998  10.592  63.988  1.00  0.00    -0.235 C  
ENDROOT
BRANCH   2   3
HETATM    3  C   UNL     1      -9.105  11.346  65.330  1.00  0.00    -0.074 C  
BRANCH   3   4
HETATM    4  N   UNL     1     -10.050  12.491  65.383  1.00  0.00    -0.279 NA 
BRANCH   4   5
HETATM    5  C   UNL     1      -9.593  13.551  66.365  1.00  0.00    -0.259 C  
BRANCH   5   6
HETATM    6  C   UNL     1     -10.285  13.342  67.717  1.00  0.00    -0.235 C  
HETATM    7  H   UNL     1     -10.070  12.312  69.332  1.00  0.00     0.000 HD 
HETATM    8  O   UNL     1      -9.641  12.441  68.495  1.00  0.00    -0.197 OA 
BRANCH   6   9
HETATM    9  N   UNL     1     -11.371  13.951  68.042  1.00  0.00    -0.273 NA 
HETATM   10  H   UNL     1     -12.043  14.174  67.308  1.00  0.00     0.000 HD 
BRANCH   9  11
HETATM   11  C   UNL     1     -11.676  14.324  69.375  1.00  0.00    -0.316 A  
HETATM   12  C   UNL     1     -12.133  13.424  70.370  1.00  0.00    -0.405 A  
HETATM   13  C   UNL     1     -12.308  13.867  71.694  1.00  0.00    -0.270 A  
HETATM   14  C   UNL     1     -12.493  11.990  70.114  1.00  0.00    -0.122 C  
HETATM   15  C   UNL     1     -11.978  15.160  72.068  1.00  0.00    -0.479 A  
HETATM   16  C   UNL     1     -11.501  16.047  71.113  1.00  0.00    -0.470 A  
HETATM   17  C   UNL     1     -11.357  15.648  69.770  1.00  0.00    -0.327 A  
HETATM   18  C   UNL     1     -10.852  16.668  68.781  1.00  0.00    -0.331 C  
ENDBRANCH   9  11
ENDBRANCH   6   9
ENDBRANCH   5   6
BRANCH   5  19
HETATM   19  C   UNL     1      -9.871  15.020  65.942  1.00  0.00    -0.369 C  
HETATM   20  C   UNL     1     -10.560  15.201  64.589  1.00  0.00    -0.167 C  
ENDBRANCH   5  19
ENDBRANCH   4   5
BRANCH   4  21
HETATM   21  C   UNL     1     -11.426  12.017  65.694  1.00  0.00    -0.316 C  
HETATM   22  C   UNL     1     -12.582  12.598  64.878  1.00  0.00    -0.525 C  
ENDBRANCH   4  21
ENDBRANCH   3   4
ENDBRANCH   2   3
TORSDOF 8
ENDMDL
MODEL      274
REMARK 921   NORMALIZED FREE ENERGY PREDICTED BY IDOCK:   -3.23 KCAL/MOL
REMARK 922        TOTAL FREE ENERGY PREDICTED BY IDOCK:   -5.71 KCAL/MOL
REMARK 923 INTER-LIGAND FREE ENERGY PREDICTED BY IDOCK:   -5.23 KCAL/MOL
REMARK 924 INTRA-LIGAND FREE ENERGY PREDICTED BY IDOCK:   -0.48 KCAL/MOL
REMARK 927      BINDING AFFINITY PREDICTED BY RF-SCORE:    0.00 PKD
ROOT
HETATM    1  C   UNL     1      -9.259  17.002  66.100  1.00  0.00    -0.244 C  
HETATM    2  C   UNL     1      -8.623  15.775  66.736  1.00  0.00    -0.306 C  
ENDROOT
BRANCH   2   3
HETATM    3  C   UNL     1      -9.063  14.455  66.068  1.00  0.00     0.098 C  
BRANCH   3   4
HETATM    4  N   UNL     1      -9.836  13.502  66.905  1.00  0.00    -0.250 NA 
BRANCH   4   5
HETATM    5  C   UNL     1     -11.301  13.881  66.978  1.00  0.00    -0.326 C  
BRANCH   5   6
HETATM    6  C   UNL     1     -11.977  13.130  68.131  1.00  0.00    -0.294 C  
HETATM    7  H   UNL     1     -12.086  11.348  68.859  1.00  0.00     0.000 HD 
HETATM    8  O   UNL     1     -11.667  11.813  68.144  1.00  0.00    -0.365 OA 
BRANCH   6   9
HETATM    9  N   UNL     1     -12.768  13.707  68.966  1.00  0.00     0.092 NA 
HETATM   10  H   UNL     1     -13.769  13.703  68.772  1.00  0.00     0.000 HD 
BRANCH   9  11
HETATM   11  C   UNL     1     -12.311  14.349  70.144  1.00  0.00    -0.348 A  
HETATM   12  C   UNL     1     -11.807  15.673  70.186  1.00  0.00    -0.381 A  
HETATM   13  C   UNL     1     -11.476  16.262  71.420  1.00  0.00    -0.361 A  
HETATM   14  C   UNL     1     -11.556  16.522  68.975  1.00  0.00    -0.027 C  
HETATM   15  C   UNL     1     -11.693  15.595  72.616  1.00  0.00    -0.555 A  
HETATM   16  C   UNL     1     -12.213  14.308  72.595  1.00  0.00    -0.033 A  
HETATM   17  C   UNL     1     -12.513  13.674  71.374  1.00  0.00    -0.374 A  
HETATM   18  C   UNL     1     -13.057  12.268  71.424  1.00  0.00    -0.285 C  
ENDBRANCH   9  11
ENDBRANCH   6   9
ENDBRANCH   5   6
BRANCH   5  19
HETATM   19  C   UNL     1     -12.134  13.582  65.700  1.00  0.00    -0.467 C  
HETATM   20  C   UNL     1     -12.146  14.689  64.644  1.00  0.00    -0.466 C  
ENDBRANCH   5  19
ENDBRANCH   4   5
BRANCH   4  21
HETATM   21  C   UNL     1      -9.233  13.393  68.261  1.00  0.00    -0.198 C  
HETATM   22  C   UNL     1      -7.970  12.544  68.413  1.00  0.00    -0.139 C  
ENDBRANCH   4  21
ENDBRANCH   3   4
ENDBRANCH   2   3
TORSDOF 8
ENDMDL
MODEL      275
REMARK 921   NORMALIZED FREE ENERGY PREDICTED BY IDOCK:   -3.22 KCAL/MOL
REMARK 922        TOTAL FREE ENERGY PREDICTED BY IDOCK:   -5.70 KCAL/MOL
REMARK 923 INTER-LIGAND FREE ENERGY PREDICTED BY IDOCK:   -4.99 KCAL/MOL
REMARK 924 INTRA-LIGAND FREE ENERGY PREDICTED BY IDOCK:   -0.71 KCAL/MOL
REMARK 927      BINDING AFFINITY PREDICTED BY RF-SCORE:    0.00 PKD
ROOT
HETATM    1  C   UNL     1     -12.713  11.851  63.449  1.00  0.00    -0.496 C  
HETATM    2  C   UNL     1     -12.348  13.323  63.579  1.00  0.00    -0.442 C  
ENDROOT
BRANCH   2   3
HETATM    3  C   UNL     1     -12.070  13.748  65.036  1.00  0.00    -0.403 C  
BRANCH   3   4
HETATM    4  N   UNL     1     -10.656  14.020  65.399  1.00  0.00    -0.322 NA 
BRANCH   4   5
HETATM    5  C   UNL     1     -10.203  13.170  66.570  1.00  0.00    -0.277 C  
BRANCH   5   6
HETATM    6  C   UNL     1      -9.534  11.890  66.057  1.00  0.00    -0.229 C  
HETATM    7  H   UNL     1     -10.005  10.230  65.197  1.00  0.00     0.000 HD 
HETATM    8  O   UNL     1     -10.420  11.023  65.515  1.00  0.00    -0.262 OA 
BRANCH   6   9
HETATM    9  N   UNL     1      -8.269  11.677  66.165  1.00  0.00    -0.378 NA 
HETATM   10  H   UNL     1      -7.682  11.803  65.341  1.00  0.00     0.000 HD 
BRANCH   9  11
HETATM   11  C   UNL     1      -7.656  11.276  67.378  1.00  0.00    -0.120 A  
HETATM   12  C   UNL     1      -7.089  12.171  68.319  1.00  0.00    -0.084 A  
HETATM   13  C   UNL     1      -6.598  11.687  69.545  1.00  0.00    -0.111 A  
HETATM   14  C   UNL     1      -6.932  13.647  68.095  1.00  0.00    -0.119 C  
HETATM   15  C   UNL     1      -6.715  10.350  69.888  1.00  0.00    -0.134 A  
HETATM   16  C   UNL     1      -7.295   9.462  68.991  1.00  0.00    -0.072 A  
HETATM   17  C   UNL     1      -7.755   9.908  67.737  1.00  0.00    -0.091 A  
HETATM   18  C   UNL     1      -8.356   8.887  66.803  1.00  0.00    -0.111 C  
ENDBRANCH   9  11
ENDBRANCH   6   9
ENDBRANCH   5   6
BRANCH   5  19
HETATM   19  C   UNL     1     -11.326  12.727  67.548  1.00  0.00    -0.361 C  
HETATM   20  C   UNL     1     -11.307  13.395  68.924  1.00  0.00    -0.331 C  
ENDBRANCH   5  19
ENDBRANCH   4   5
BRANCH   4  21
HETATM   21  C   UNL     1     -10.457  15.470  65.668  1.00  0.00    -0.374 C  
HETATM   22  C   UNL     1      -9.382  15.866  66.681  1.00  0.00    -0.274 C  
ENDBRANCH   4  21
ENDBRANCH   3   4
ENDBRANCH   2   3
TORSDOF 8
ENDMDL
MODEL      276
REMARK 921   NORMALIZED FREE ENERGY PREDICTED BY IDOCK:   -3.21 KCAL/MOL
REMARK 922        TOTAL FREE ENERGY PREDICTED BY IDOCK:   -5.69 KCAL/MOL
REMARK 923 INTER-LIGAND FREE ENERGY PREDICTED BY IDOCK:   -4.91 KCAL/MOL
REMARK 924 INTRA-LIGAND FREE ENERGY PREDICTED BY IDOCK:   -0.78 KCAL/MOL
REMARK 927      BINDING AFFINITY PREDICTED BY RF-SCORE:    0.00 PKD
ROOT
HETATM    1  C   UNL     1     -10.009   6.957  72.302  1.00  0.00    -0.176 C  
HETATM    2  C   UNL     1     -10.544   8.336  71.942  1.00  0.00    -0.350 C  
ENDROOT
BRANCH   2   3
HETATM    3  C   UNL     1     -10.997   8.439  70.470  1.00  0.00    -0.242 C  
BRANCH   3   4
HETATM    4  N   UNL     1     -11.326   9.796  69.962  1.00  0.00    -0.239 NA 
BRANCH   4   5
HETATM    5  C   UNL     1     -10.169  10.404  69.196  1.00  0.00    -0.222 C  
BRANCH   5   6
HETATM    6  C   UNL     1     -10.702  11.257  68.039  1.00  0.00    -0.203 C  
HETATM    7  H   UNL     1     -12.325  11.515  67.032  1.00  0.00     0.000 HD 
HETATM    8  O   UNL     1     -11.996  10.987  67.748  1.00  0.00    -0.609 OA 
BRANCH   6   9
HETATM    9  N   UNL     1      -9.971  12.111  67.412  1.00  0.00    -0.198 NA 
HETATM   10  H   UNL     1      -9.762  11.945  66.428  1.00  0.00     0.000 HD 
BRANCH   9  11
HETATM   11  C   UNL     1      -9.444  13.273  68.029  1.00  0.00    -0.219 A  
HETATM   12  C   UNL     1     -10.234  14.276  68.647  1.00  0.00    -0.246 A  
HETATM   13  C   UNL     1      -9.615  15.341  69.326  1.00  0.00    -0.249 A  
HETATM   14  C   UNL     1     -11.733  14.317  68.606  1.00  0.00    -0.380 C  
HETATM   15  C   UNL     1      -8.237  15.400  69.465  1.00  0.00    -0.207 A  
HETATM   16  C   UNL     1      -7.449  14.411  68.892  1.00  0.00    -0.132 A  
HETATM   17  C   UNL     1      -8.035  13.357  68.167  1.00  0.00    -0.150 A  
HETATM   18  C   UNL     1      -7.120  12.327  67.554  1.00  0.00    -0.142 C  
ENDBRANCH   9  11
ENDBRANCH   6   9
ENDBRANCH   5   6
BRANCH   5  19
HETATM   19  C   UNL     1      -9.167   9.389  68.579  1.00  0.00    -0.131 C  
HETATM   20  C   UNL     1      -7.836   9.241  69.318  1.00  0.00    -0.085 C  
ENDBRANCH   5  19
ENDBRANCH   4   5
BRANCH   4  21
HETATM   21  C   UNL     1     -11.765  10.677  71.078  1.00  0.00    -0.233 C  
HETATM   22  C   UNL     1     -13.196  10.516  71.593  1.00  0.00    -0.493 C  
ENDBRANCH   4  21
ENDBRANCH   3   4
ENDBRANCH   2   3
TORSDOF 8
ENDMDL
MODEL      277
REMARK 921   NORMALIZED FREE ENERGY PREDICTED BY IDOCK:   -3.21 KCAL/MOL
REMARK 922        TOTAL FREE ENERGY PREDICTED BY IDOCK:   -5.68 KCAL/MOL
REMARK 923 INTER-LIGAND FREE ENERGY PREDICTED BY IDOCK:   -4.17 KCAL/MOL
REMARK 924 INTRA-LIGAND FREE ENERGY PREDICTED BY IDOCK:   -1.51 KCAL/MOL
REMARK 927      BINDING AFFINITY PREDICTED BY RF-SCORE:    0.00 PKD
ROOT
HETATM    1  C   UNL     1      -7.085   5.392  69.657  1.00  0.00    -0.063 C  
HETATM    2  C   UNL     1      -6.564   6.378  68.620  1.00  0.00    -0.051 C  
ENDROOT
BRANCH   2   3
HETATM    3  C   UNL     1      -6.558   7.835  69.127  1.00  0.00    -0.040 C  
BRANCH   3   4
HETATM    4  N   UNL     1      -7.795   8.320  69.792  1.00  0.00    -0.098 NA 
BRANCH   4   5
HETATM    5  C   UNL     1      -8.473   9.412  68.989  1.00  0.00    -0.129 C  
BRANCH   5   6
HETATM    6  C   UNL     1      -9.612   8.815  68.154  1.00  0.00    -0.146 C  
HETATM    7  H   UNL     1      -9.892   7.975  66.442  1.00  0.00     0.000 HD 
HETATM    8  O   UNL     1      -9.186   8.345  66.959  1.00  0.00    -0.140 OA 
BRANCH   6   9
HETATM    9  N   UNL     1     -10.833   8.797  68.559  1.00  0.00    -0.442 NA 
HETATM   10  H   UNL     1     -11.554   9.185  67.950  1.00  0.00     0.000 HD 
BRANCH   9  11
HETATM   11  C   UNL     1     -11.222   8.262  69.812  1.00  0.00     0.036 A  
HETATM   12  C   UNL     1     -11.134   6.890  70.155  1.00  0.00    -0.344 A  
HETATM   13  C   UNL     1     -11.444   6.469  71.461  1.00  0.00    -0.351 A  
HETATM   14  C   UNL     1     -10.754   5.800  69.196  1.00  0.00    -0.370 C  
HETATM   15  C   UNL     1     -11.775   7.381  72.451  1.00  0.00    -0.306 A  
HETATM   16  C   UNL     1     -11.838   8.733  72.140  1.00  0.00    -0.436 A  
HETATM   17  C   UNL     1     -11.577   9.182  70.831  1.00  0.00    -0.350 A  
HETATM   18  C   UNL     1     -11.682  10.661  70.558  1.00  0.00    -0.451 C  
ENDBRANCH   9  11
ENDBRANCH   6   9
ENDBRANCH   5   6
BRANCH   5  19
HETATM   19  C   UNL     1      -7.554  10.186  68.003  1.00  0.00    -0.088 C  
HETATM   20  C   UNL     1      -7.730  11.706  67.989  1.00  0.00    -0.121 C  
ENDBRANCH   5  19
ENDBRANCH   4   5
BRANCH   4  21
HETATM   21  C   UNL     1      -7.499   8.768  71.180  1.00  0.00    -0.101 C  
HETATM   22  C   UNL     1      -8.113   7.972  72.333  1.00  0.00    -0.175 C  
ENDBRANCH   4  21
ENDBRANCH   3   4
ENDBRANCH   2   3
TORSDOF 8
ENDMDL
MODEL      278
REMARK 921   NORMALIZED FREE ENERGY PREDICTED BY IDOCK:   -3.20 KCAL/MOL
REMARK 922        TOTAL FREE ENERGY PREDICTED BY IDOCK:   -5.67 KCAL/MOL
REMARK 923 INTER-LIGAND FREE ENERGY PREDICTED BY IDOCK:   -4.77 KCAL/MOL
REMARK 924 INTRA-LIGAND FREE ENERGY PREDICTED BY IDOCK:   -0.90 KCAL/MOL
REMARK 927      BINDING AFFINITY PREDICTED BY RF-SCORE:    0.00 PKD
ROOT
HETATM    1  C   UNL     1      -5.220   6.703  68.351  1.00  0.00    -0.011 C  
HETATM    2  C   UNL     1      -5.982   7.964  67.970  1.00  0.00    -0.041 C  
ENDROOT
BRANCH   2   3
HETATM    3  C   UNL     1      -7.456   7.688  67.605  1.00  0.00    -0.104 C  
BRANCH   3   4
HETATM    4  N   UNL     1      -7.901   8.094  66.247  1.00  0.00    -0.093 NA 
BRANCH   4   5
HETATM    5  C   UNL     1      -9.385   8.397  66.210  1.00  0.00    -0.219 C  
BRANCH   5   6
HETATM    6  C   UNL     1      -9.606   9.913  66.154  1.00  0.00    -0.218 C  
HETATM    7  H   UNL     1      -8.588  11.549  66.219  1.00  0.00     0.000 HD 
HETATM    8  O   UNL     1      -8.451  10.609  66.254  1.00  0.00    -0.144 OA 
BRANCH   6   9
HETATM    9  N   UNL     1     -10.776  10.440  66.051  1.00  0.00    -0.055 NA 
HETATM   10  H   UNL     1     -11.577   9.825  65.914  1.00  0.00     0.000 HD 
BRANCH   9  11
HETATM   11  C   UNL     1     -11.000  11.838  66.118  1.00  0.00    -0.307 A  
HETATM   12  C   UNL     1     -10.818  12.728  65.030  1.00  0.00    -0.319 A  
HETATM   13  C   UNL     1     -11.168  14.084  65.162  1.00  0.00    -0.329 A  
HETATM   14  C   UNL     1     -10.229  12.337  63.706  1.00  0.00    -0.427 C  
HETATM   15  C   UNL     1     -11.754  14.564  66.323  1.00  0.00    -0.364 A  
HETATM   16  C   UNL     1     -11.968  13.700  67.389  1.00  0.00    -0.413 A  
HETATM   17  C   UNL     1     -11.587  12.348  67.304  1.00  0.00    -0.435 A  
HETATM   18  C   UNL     1     -11.830  11.469  68.505  1.00  0.00    -0.365 C  
ENDBRANCH   9  11
ENDBRANCH   6   9
ENDBRANCH   5   6
BRANCH   5  19
HETATM   19  C   UNL     1     -10.207   7.868  67.418  1.00  0.00    -0.320 C  
HETATM   20  C   UNL     1     -11.042   6.614  67.152  1.00  0.00    -0.427 C  
ENDBRANCH   5  19
ENDBRANCH   4   5
BRANCH   4  21
HETATM   21  C   UNL     1      -7.529   7.058  65.246  1.00  0.00    -0.092 C  
HETATM   22  C   UNL     1      -7.622   5.591  65.670  1.00  0.00    -0.083 C  
ENDBRANCH   4  21
ENDBRANCH   3   4
ENDBRANCH   2   3
TORSDOF 8
ENDMDL
MODEL      279
REMARK 921   NORMALIZED FREE ENERGY PREDICTED BY IDOCK:   -3.19 KCAL/MOL
REMARK 922        TOTAL FREE ENERGY PREDICTED BY IDOCK:   -5.66 KCAL/MOL
REMARK 923 INTER-LIGAND FREE ENERGY PREDICTED BY IDOCK:   -5.15 KCAL/MOL
REMARK 924 INTRA-LIGAND FREE ENERGY PREDICTED BY IDOCK:   -0.51 KCAL/MOL
REMARK 927      BINDING AFFINITY PREDICTED BY RF-SCORE:    0.00 PKD
ROOT
HETATM    1  C   UNL     1     -12.835  12.675  64.757  1.00  0.00    -0.349 C  
HETATM    2  C   UNL     1     -11.845  12.770  65.908  1.00  0.00    -0.490 C  
ENDROOT
BRANCH   2   3
HETATM    3  C   UNL     1     -12.202  13.882  66.917  1.00  0.00    -0.377 C  
BRANCH   3   4
HETATM    4  N   UNL     1     -11.894  13.617  68.346  1.00  0.00    -0.358 NA 
BRANCH   4   5
HETATM    5  C   UNL     1     -10.543  14.177  68.743  1.00  0.00    -0.253 C  
BRANCH   5   6
HETATM    6  C   UNL     1     -10.608  15.708  68.794  1.00  0.00    -0.238 C  
HETATM    7  H   UNL     1     -11.711  17.106  69.531  1.00  0.00     0.000 HD 
HETATM    8  O   UNL     1     -11.671  16.157  69.499  1.00  0.00    -0.294 OA 
BRANCH   6   9
HETATM    9  N   UNL     1      -9.747  16.459  68.202  1.00  0.00    -0.225 NA 
HETATM   10  H   UNL     1      -8.755  16.288  68.367  1.00  0.00     0.000 HD 
BRANCH   9  11
HETATM   11  C   UNL     1     -10.115  17.514  67.330  1.00  0.00    -0.325 A  
HETATM   12  C   UNL     1     -10.580  17.327  66.004  1.00  0.00    -0.217 A  
HETATM   13  C   UNL     1     -11.023  18.429  65.251  1.00  0.00     0.664 A  
HETATM   14  C   UNL     1     -10.609  16.004  65.296  1.00  0.00    -0.424 C  
HETATM   15  C   UNL     1     -11.079  19.700  65.802  1.00  0.00    -0.082 A  
HETATM   16  C   UNL     1     -10.656  19.897  67.109  1.00  0.00    -0.527 A  
HETATM   17  C   UNL     1     -10.164  18.822  67.875  1.00  0.00    -0.448 A  
HETATM   18  C   UNL     1      -9.703  19.111  69.281  1.00  0.00    -0.253 C  
ENDBRANCH   9  11
ENDBRANCH   6   9
ENDBRANCH   5   6
BRANCH   5  19
HETATM   19  C   UNL     1      -9.363  13.810  67.799  1.00  0.00    -0.213 C  
HETATM   20  C   UNL     1      -8.170  13.124  68.467  1.00  0.00    -0.076 C  
ENDBRANCH   5  19
ENDBRANCH   4   5
BRANCH   4  21
HETATM   21  C   UNL     1     -11.988  12.161  68.638  1.00  0.00    -0.237 C  
HETATM   22  C   UNL     1     -11.854  11.714  70.094  1.00  0.00    -0.428 C  
ENDBRANCH   4  21
ENDBRANCH   3   4
ENDBRANCH   2   3
TORSDOF 8
ENDMDL
MODEL      280
REMARK 921   NORMALIZED FREE ENERGY PREDICTED BY IDOCK:   -3.19 KCAL/MOL
REMARK 922        TOTAL FREE ENERGY PREDICTED BY IDOCK:   -5.66 KCAL/MOL
REMARK 923 INTER-LIGAND FREE ENERGY PREDICTED BY IDOCK:   -4.64 KCAL/MOL
REMARK 924 INTRA-LIGAND FREE ENERGY PREDICTED BY IDOCK:   -1.02 KCAL/MOL
REMARK 927      BINDING AFFINITY PREDICTED BY RF-SCORE:    0.00 PKD
ROOT
HETATM    1  C   UNL     1      -6.709   8.637  62.916  1.00  0.00    -0.090 C  
HETATM    2  C   UNL     1      -7.911   8.891  63.815  1.00  0.00    -0.138 C  
ENDROOT
BRANCH   2   3
HETATM    3  C   UNL     1      -7.623   9.924  64.925  1.00  0.00    -0.135 C  
BRANCH   3   4
HETATM    4  N   UNL     1      -8.798  10.583  65.550  1.00  0.00    -0.177 NA 
BRANCH   4   5
HETATM    5  C   UNL     1      -9.105  10.005  66.917  1.00  0.00    -0.139 C  
BRANCH   5   6
HETATM    6  C   UNL     1      -8.435  10.852  68.004  1.00  0.00    -0.130 C  
HETATM    7  H   UNL     1      -6.677  11.220  68.704  1.00  0.00     0.000 HD 
HETATM    8  O   UNL     1      -7.091  10.695  68.030  1.00  0.00    -0.082 OA 
BRANCH   6   9
HETATM    9  N   UNL     1      -9.103  11.604  68.808  1.00  0.00    -0.374 NA 
HETATM   10  H   UNL     1      -9.058  11.408  69.808  1.00  0.00     0.000 HD 
BRANCH   9  11
HETATM   11  C   UNL     1      -9.897  12.691  68.366  1.00  0.00    -0.200 A  
HETATM   12  C   UNL     1      -9.377  13.862  67.759  1.00  0.00    -0.204 A  
HETATM   13  C   UNL     1     -10.252  14.842  67.256  1.00  0.00    -0.241 A  
HETATM   14  C   UNL     1      -7.915  14.173  67.633  1.00  0.00    -0.187 C  
HETATM   15  C   UNL     1     -11.626  14.659  67.280  1.00  0.00    -0.404 A  
HETATM   16  C   UNL     1     -12.152  13.505  67.844  1.00  0.00    -0.304 A  
HETATM   17  C   UNL     1     -11.304  12.526  68.397  1.00  0.00    -0.333 A  
HETATM   18  C   UNL     1     -11.943  11.305  69.011  1.00  0.00    -0.393 C  
ENDBRANCH   9  11
ENDBRANCH   6   9
ENDBRANCH   5   6
BRANCH   5  19
HETATM   19  C   UNL     1      -8.641   8.539  67.143  1.00  0.00    -0.123 C  
HETATM   20  C   UNL     1      -9.741   7.478  67.071  1.00  0.00    -0.257 C  
ENDBRANCH   5  19
ENDBRANCH   4   5
BRANCH   4  21
HETATM   21  C   UNL     1      -9.979  10.508  64.648  1.00  0.00    -0.347 C  
HETATM   22  C   UNL     1     -10.898  11.728  64.573  1.00  0.00    -0.377 C  
ENDBRANCH   4  21
ENDBRANCH   3   4
ENDBRANCH   2   3
TORSDOF 8
ENDMDL
MODEL      281
REMARK 921   NORMALIZED FREE ENERGY PREDICTED BY IDOCK:   -3.19 KCAL/MOL
REMARK 922        TOTAL FREE ENERGY PREDICTED BY IDOCK:   -5.66 KCAL/MOL
REMARK 923 INTER-LIGAND FREE ENERGY PREDICTED BY IDOCK:   -4.94 KCAL/MOL
REMARK 924 INTRA-LIGAND FREE ENERGY PREDICTED BY IDOCK:   -0.72 KCAL/MOL
REMARK 927      BINDING AFFINITY PREDICTED BY RF-SCORE:    0.00 PKD
ROOT
HETATM    1  C   UNL     1     -12.401  12.713  64.328  1.00  0.00    -0.517 C  
HETATM    2  C   UNL     1     -11.886  13.891  65.142  1.00  0.00    -0.370 C  
ENDROOT
BRANCH   2   3
HETATM    3  C   UNL     1     -11.854  13.607  66.658  1.00  0.00    -0.409 C  
BRANCH   3   4
HETATM    4  N   UNL     1     -10.828  12.645  67.140  1.00  0.00    -0.248 NA 
BRANCH   4   5
HETATM    5  C   UNL     1     -11.047  12.272  68.592  1.00  0.00    -0.249 C  
BRANCH   5   6
HETATM    6  C   UNL     1     -11.632  10.858  68.684  1.00  0.00    -0.303 C  
HETATM    7  H   UNL     1     -13.246   9.972  69.256  1.00  0.00     0.000 HD 
HETATM    8  O   UNL     1     -12.883  10.848  69.200  1.00  0.00    -0.137 OA 
BRANCH   6   9
HETATM    9  N   UNL     1     -10.976   9.810  68.327  1.00  0.00    -0.444 NA 
HETATM   10  H   UNL     1     -11.208   9.370  67.437  1.00  0.00     0.000 HD 
BRANCH   9  11
HETATM   11  C   UNL     1      -9.944   9.242  69.115  1.00  0.00    -0.179 A  
HETATM   12  C   UNL     1     -10.162   8.543  70.329  1.00  0.00    -0.206 A  
HETATM   13  C   UNL     1      -9.085   7.921  70.986  1.00  0.00    -0.155 A  
HETATM   14  C   UNL     1     -11.491   8.435  71.017  1.00  0.00    -0.302 C  
HETATM   15  C   UNL     1      -7.813   7.919  70.437  1.00  0.00    -0.089 A  
HETATM   16  C   UNL     1      -7.587   8.573  69.233  1.00  0.00    -0.095 A  
HETATM   17  C   UNL     1      -8.634   9.243  68.573  1.00  0.00    -0.128 A  
HETATM   18  C   UNL     1      -8.315   9.950  67.280  1.00  0.00    -0.121 C  
ENDBRANCH   9  11
ENDBRANCH   6   9
ENDBRANCH   5   6
BRANCH   5  19
HETATM   19  C   UNL     1     -12.003  13.205  69.386  1.00  0.00    -0.347 C  
HETATM   20  C   UNL     1     -11.331  14.349  70.147  1.00  0.00    -0.221 C  
ENDBRANCH   5  19
ENDBRANCH   4   5
BRANCH   4  21
HETATM   21  C   UNL     1      -9.460  13.188  66.916  1.00  0.00    -0.244 C  
HETATM   22  C   UNL     1      -8.614  13.517  68.146  1.00  0.00    -0.173 C  
ENDBRANCH   4  21
ENDBRANCH   3   4
ENDBRANCH   2   3
TORSDOF 8
ENDMDL
MODEL      282
REMARK 921   NORMALIZED FREE ENERGY PREDICTED BY IDOCK:   -3.17 KCAL/MOL
REMARK 922        TOTAL FREE ENERGY PREDICTED BY IDOCK:   -5.62 KCAL/MOL
REMARK 923 INTER-LIGAND FREE ENERGY PREDICTED BY IDOCK:   -4.32 KCAL/MOL
REMARK 924 INTRA-LIGAND FREE ENERGY PREDICTED BY IDOCK:   -1.30 KCAL/MOL
REMARK 927      BINDING AFFINITY PREDICTED BY RF-SCORE:    0.00 PKD
ROOT
HETATM    1  C   UNL     1     -12.966  13.770  65.492  1.00  0.00    -0.363 C  
HETATM    2  C   UNL     1     -12.047  14.444  64.483  1.00  0.00    -0.498 C  
ENDROOT
BRANCH   2   3
HETATM    3  C   UNL     1     -10.553  14.171  64.755  1.00  0.00    -0.418 C  
BRANCH   3   4
HETATM    4  N   UNL     1     -10.225  13.374  65.966  1.00  0.00    -0.295 NA 
BRANCH   4   5
HETATM    5  C   UNL     1      -9.256  14.105  66.873  1.00  0.00    -0.257 C  
BRANCH   5   6
HETATM    6  C   UNL     1      -9.388  13.581  68.308  1.00  0.00    -0.205 C  
HETATM    7  H   UNL     1     -10.726  13.389  69.683  1.00  0.00     0.000 HD 
HETATM    8  O   UNL     1     -10.644  13.714  68.794  1.00  0.00    -0.249 OA 
BRANCH   6   9
HETATM    9  N   UNL     1      -8.393  13.096  68.964  1.00  0.00    -0.312 NA 
HETATM   10  H   UNL     1      -8.176  13.489  69.880  1.00  0.00     0.000 HD 
BRANCH   9  11
HETATM   11  C   UNL     1      -7.586  12.041  68.471  1.00  0.00    -0.126 A  
HETATM   12  C   UNL     1      -6.321  12.225  67.858  1.00  0.00    -0.088 A  
HETATM   13  C   UNL     1      -5.545  11.109  67.497  1.00  0.00    -0.047 A  
HETATM   14  C   UNL     1      -5.731  13.562  67.518  1.00  0.00     0.027 C  
HETATM   15  C   UNL     1      -5.961   9.819  67.788  1.00  0.00    -0.050 A  
HETATM   16  C   UNL     1      -7.184   9.621  68.415  1.00  0.00    -0.074 A  
HETATM   17  C   UNL     1      -8.005  10.715  68.749  1.00  0.00    -0.135 A  
HETATM   18  C   UNL     1      -9.329  10.428  69.411  1.00  0.00    -0.186 C  
ENDBRANCH   9  11
ENDBRANCH   6   9
ENDBRANCH   5   6
BRANCH   5  19
HETATM   19  C   UNL     1      -9.436  15.647  66.941  1.00  0.00    -0.245 C  
HETATM   20  C   UNL     1      -8.194  16.474  66.603  1.00  0.00    -0.306 C  
ENDBRANCH   5  19
ENDBRANCH   4   5
BRANCH   4  21
HETATM   21  C   UNL     1      -9.708  12.033  65.582  1.00  0.00    -0.223 C  
HETATM   22  C   UNL     1     -10.516  10.807  66.012  1.00  0.00    -0.273 C  
ENDBRANCH   4  21
ENDBRANCH   3   4
ENDBRANCH   2   3
TORSDOF 8
ENDMDL
MODEL      283
REMARK 921   NORMALIZED FREE ENERGY PREDICTED BY IDOCK:   -3.17 KCAL/MOL
REMARK 922        TOTAL FREE ENERGY PREDICTED BY IDOCK:   -5.62 KCAL/MOL
REMARK 923 INTER-LIGAND FREE ENERGY PREDICTED BY IDOCK:   -4.65 KCAL/MOL
REMARK 924 INTRA-LIGAND FREE ENERGY PREDICTED BY IDOCK:   -0.97 KCAL/MOL
REMARK 927      BINDING AFFINITY PREDICTED BY RF-SCORE:    0.00 PKD
ROOT
HETATM    1  C   UNL     1      -7.884   4.062  65.052  1.00  0.00    -0.089 C  
HETATM    2  C   UNL     1      -7.919   4.767  66.400  1.00  0.00    -0.103 C  
ENDROOT
BRANCH   2   3
HETATM    3  C   UNL     1      -8.757   6.063  66.379  1.00  0.00    -0.133 C  
BRANCH   3   4
HETATM    4  N   UNL     1      -9.306   6.530  67.678  1.00  0.00    -0.119 NA 
BRANCH   4   5
HETATM    5  C   UNL     1      -8.655   7.821  68.131  1.00  0.00    -0.123 C  
BRANCH   5   6
HETATM    6  C   UNL     1      -9.719   8.913  68.291  1.00  0.00    -0.157 C  
HETATM    7  H   UNL     1     -11.260   9.607  67.363  1.00  0.00     0.000 HD 
HETATM    8  O   UNL     1     -10.601   8.931  67.264  1.00  0.00    -0.283 OA 
BRANCH   6   9
HETATM    9  N   UNL     1      -9.735   9.727  69.288  1.00  0.00    -0.185 NA 
HETATM   10  H   UNL     1      -8.880  10.234  69.516  1.00  0.00     0.000 HD 
BRANCH   9  11
HETATM   11  C   UNL     1     -10.887   9.950  70.082  1.00  0.00    -0.304 A  
HETATM   12  C   UNL     1     -11.302   9.103  71.141  1.00  0.00    -0.392 A  
HETATM   13  C   UNL     1     -12.400   9.463  71.942  1.00  0.00    -0.450 A  
HETATM   14  C   UNL     1     -10.664   7.785  71.470  1.00  0.00    -0.255 C  
HETATM   15  C   UNL     1     -13.054  10.672  71.763  1.00  0.00    -0.571 A  
HETATM   16  C   UNL     1     -12.643  11.528  70.750  1.00  0.00    -0.390 A  
HETATM   17  C   UNL     1     -11.576  11.176  69.902  1.00  0.00    -0.416 A  
HETATM   18  C   UNL     1     -11.194  12.143  68.810  1.00  0.00    -0.314 C  
ENDBRANCH   9  11
ENDBRANCH   6   9
ENDBRANCH   5   6
BRANCH   5  19
HETATM   19  C   UNL     1      -7.567   8.392  67.180  1.00  0.00    -0.093 C  
HETATM   20  C   UNL     1      -6.150   8.445  67.753  1.00  0.00    -0.048 C  
ENDBRANCH   5  19
ENDBRANCH   4   5
BRANCH   4  21
HETATM   21  C   UNL     1      -9.181   5.464  68.709  1.00  0.00    -0.124 C  
HETATM   22  C   UNL     1      -8.143   5.660  69.816  1.00  0.00    -0.102 C  
ENDBRANCH   4  21
ENDBRANCH   3   4
ENDBRANCH   2   3
TORSDOF 8
ENDMDL
MODEL      284
REMARK 921   NORMALIZED FREE ENERGY PREDICTED BY IDOCK:   -3.16 KCAL/MOL
REMARK 922        TOTAL FREE ENERGY PREDICTED BY IDOCK:   -5.60 KCAL/MOL
REMARK 923 INTER-LIGAND FREE ENERGY PREDICTED BY IDOCK:   -4.89 KCAL/MOL
REMARK 924 INTRA-LIGAND FREE ENERGY PREDICTED BY IDOCK:   -0.72 KCAL/MOL
REMARK 927      BINDING AFFINITY PREDICTED BY RF-SCORE:    0.00 PKD
ROOT
HETATM    1  C   UNL     1      -7.868   6.282  72.165  1.00  0.00    -0.104 C  
HETATM    2  C   UNL     1      -9.194   5.631  72.531  1.00  0.00    -0.148 C  
ENDROOT
BRANCH   2   3
HETATM    3  C   UNL     1     -10.011   5.196  71.296  1.00  0.00    -0.192 C  
BRANCH   3   4
HETATM    4  N   UNL     1      -9.742   5.917  70.025  1.00  0.00    -0.162 NA 
BRANCH   4   5
HETATM    5  C   UNL     1     -10.947   6.713  69.566  1.00  0.00    -0.313 C  
BRANCH   5   6
HETATM    6  C   UNL     1     -10.525   8.147  69.223  1.00  0.00    -0.214 C  
HETATM    7  H   UNL     1      -9.153   9.421  69.678  1.00  0.00     0.000 HD 
HETATM    8  O   UNL     1      -9.414   8.533  69.891  1.00  0.00    -0.161 OA 
BRANCH   6   9
HETATM    9  N   UNL     1     -11.188   8.888  68.406  1.00  0.00    -0.292 NA 
HETATM   10  H   UNL     1     -12.028   8.506  67.972  1.00  0.00     0.000 HD 
BRANCH   9  11
HETATM   11  C   UNL     1     -10.803  10.213  68.082  1.00  0.00    -0.262 A  
HETATM   12  C   UNL     1     -11.022  11.334  68.922  1.00  0.00    -0.274 A  
HETATM   13  C   UNL     1     -10.509  12.594  68.563  1.00  0.00    -0.249 A  
HETATM   14  C   UNL     1     -11.815  11.297  70.195  1.00  0.00    -0.449 C  
HETATM   15  C   UNL     1      -9.729  12.755  67.428  1.00  0.00    -0.197 A  
HETATM   16  C   UNL     1      -9.479  11.662  66.610  1.00  0.00    -0.213 A  
HETATM   17  C   UNL     1     -10.016  10.397  66.917  1.00  0.00    -0.254 A  
HETATM   18  C   UNL     1      -9.721   9.257  65.975  1.00  0.00    -0.359 C  
ENDBRANCH   9  11
ENDBRANCH   6   9
ENDBRANCH   5   6
BRANCH   5  19
HETATM   19  C   UNL     1     -12.109   6.821  70.592  1.00  0.00    -0.371 C  
HETATM   20  C   UNL     1     -12.030   8.004  71.559  1.00  0.00    -0.331 C  
ENDBRANCH   5  19
ENDBRANCH   4   5
BRANCH   4  21
HETATM   21  C   UNL     1      -9.282   4.968  68.975  1.00  0.00    -0.114 C  
HETATM   22  C   UNL     1      -9.229   3.482  69.332  1.00  0.00    -0.227 C  
ENDBRANCH   4  21
ENDBRANCH   3   4
ENDBRANCH   2   3
TORSDOF 8
ENDMDL
MODEL      285
REMARK 921   NORMALIZED FREE ENERGY PREDICTED BY IDOCK:   -3.16 KCAL/MOL
REMARK 922        TOTAL FREE ENERGY PREDICTED BY IDOCK:   -5.60 KCAL/MOL
REMARK 923 INTER-LIGAND FREE ENERGY PREDICTED BY IDOCK:   -4.76 KCAL/MOL
REMARK 924 INTRA-LIGAND FREE ENERGY PREDICTED BY IDOCK:   -0.85 KCAL/MOL
REMARK 927      BINDING AFFINITY PREDICTED BY RF-SCORE:    0.00 PKD
ROOT
HETATM    1  C   UNL     1     -11.734  15.870  71.282  1.00  0.00    -0.504 C  
HETATM    2  C   UNL     1     -11.905  14.641  70.401  1.00  0.00    -0.365 C  
ENDROOT
BRANCH   2   3
HETATM    3  C   UNL     1     -10.769  14.480  69.368  1.00  0.00    -0.195 C  
BRANCH   3   4
HETATM    4  N   UNL     1     -11.004  13.523  68.255  1.00  0.00    -0.249 NA 
BRANCH   4   5
HETATM    5  C   UNL     1      -9.719  12.853  67.812  1.00  0.00    -0.214 C  
BRANCH   5   6
HETATM    6  C   UNL     1      -9.759  11.362  68.168  1.00  0.00    -0.192 C  
HETATM    7  H   UNL     1     -10.531   9.719  67.521  1.00  0.00     0.000 HD 
HETATM    8  O   UNL     1     -10.507  10.642  67.300  1.00  0.00    -0.217 OA 
BRANCH   6   9
HETATM    9  N   UNL     1      -9.160  10.879  69.200  1.00  0.00    -0.360 NA 
HETATM   10  H   UNL     1      -8.578  11.500  69.761  1.00  0.00     0.000 HD 
BRANCH   9  11
HETATM   11  C   UNL     1      -9.274   9.521  69.591  1.00  0.00    -0.200 A  
HETATM   12  C   UNL     1     -10.426   8.960  70.197  1.00  0.00    -0.236 A  
HETATM   13  C   UNL     1     -10.485   7.579  70.453  1.00  0.00    -0.227 A  
HETATM   14  C   UNL     1     -11.622   9.753  70.637  1.00  0.00    -0.389 C  
HETATM   15  C   UNL     1      -9.460   6.731  70.064  1.00  0.00    -0.158 A  
HETATM   16  C   UNL     1      -8.336   7.259  69.442  1.00  0.00    -0.133 A  
HETATM   17  C   UNL     1      -8.227   8.644  69.212  1.00  0.00    -0.113 A  
HETATM   18  C   UNL     1      -6.971   9.152  68.550  1.00  0.00    -0.067 C  
ENDBRANCH   9  11
ENDBRANCH   6   9
ENDBRANCH   5   6
BRANCH   5  19
HETATM   19  C   UNL     1      -8.415  13.427  68.433  1.00  0.00    -0.135 C  
HETATM   20  C   UNL     1      -7.364  13.913  67.434  1.00  0.00    -0.129 C  
ENDBRANCH   5  19
ENDBRANCH   4   5
BRANCH   4  21
HETATM   21  C   UNL     1     -11.685  14.203  67.120  1.00  0.00    -0.403 C  
HETATM   22  C   UNL     1     -11.004  15.428  66.510  1.00  0.00    -0.271 C  
ENDBRANCH   4  21
ENDBRANCH   3   4
ENDBRANCH   2   3
TORSDOF 8
ENDMDL
MODEL      286
REMARK 921   NORMALIZED FREE ENERGY PREDICTED BY IDOCK:   -3.15 KCAL/MOL
REMARK 922        TOTAL FREE ENERGY PREDICTED BY IDOCK:   -5.60 KCAL/MOL
REMARK 923 INTER-LIGAND FREE ENERGY PREDICTED BY IDOCK:   -5.62 KCAL/MOL
REMARK 924 INTRA-LIGAND FREE ENERGY PREDICTED BY IDOCK:    0.03 KCAL/MOL
REMARK 927      BINDING AFFINITY PREDICTED BY RF-SCORE:    0.00 PKD
ROOT
HETATM    1  C   UNL     1      -6.896  14.900  69.895  1.00  0.00    -0.167 C  
HETATM    2  C   UNL     1      -6.475  15.052  68.440  1.00  0.00    -0.104 C  
ENDROOT
BRANCH   2   3
HETATM    3  C   UNL     1      -7.466  15.898  67.614  1.00  0.00    -0.152 C  
BRANCH   3   4
HETATM    4  N   UNL     1      -7.755  17.269  68.110  1.00  0.00    -0.210 NA 
BRANCH   4   5
HETATM    5  C   UNL     1      -9.193  17.668  67.846  1.00  0.00    -0.267 C  
BRANCH   5   6
HETATM    6  C   UNL     1      -9.783  16.789  66.737  1.00  0.00    -0.264 C  
HETATM    7  H   UNL     1      -9.430  16.302  64.906  1.00  0.00     0.000 HD 
HETATM    8  O   UNL     1      -9.064  16.847  65.592  1.00  0.00    -0.499 OA 
BRANCH   6   9
HETATM    9  N   UNL     1     -10.860  16.102  66.896  1.00  0.00    -0.237 NA 
HETATM   10  H   UNL     1     -11.602  16.487  67.479  1.00  0.00     0.000 HD 
BRANCH   9  11
HETATM   11  C   UNL     1     -11.060  14.834  66.295  1.00  0.00    -0.341 A  
HETATM   12  C   UNL     1     -10.832  13.597  66.949  1.00  0.00    -0.286 A  
HETATM   13  C   UNL     1     -11.160  12.390  66.307  1.00  0.00    -0.344 A  
HETATM   14  C   UNL     1     -10.214  13.460  68.310  1.00  0.00    -0.250 C  
HETATM   15  C   UNL     1     -11.769  12.380  65.062  1.00  0.00    -0.420 A  
HETATM   16  C   UNL     1     -12.027  13.584  64.419  1.00  0.00    -0.466 A  
HETATM   17  C   UNL     1     -11.669  14.808  65.015  1.00  0.00    -0.364 A  
HETATM   18  C   UNL     1     -11.960  16.076  64.253  1.00  0.00     0.104 C  
ENDBRANCH   9  11
ENDBRANCH   6   9
ENDBRANCH   5   6
BRANCH   5  19
HETATM   19  C   UNL     1      -9.408  19.144  67.409  1.00  0.00    -0.356 C  
HETATM   20  C   UNL     1     -10.865  19.591  67.281  1.00  0.00    -0.557 C  
ENDBRANCH   5  19
ENDBRANCH   4   5
BRANCH   4  21
HETATM   21  C   UNL     1      -6.800  18.247  67.524  1.00  0.00    -0.198 C  
HETATM   22  C   UNL     1      -6.018  17.823  66.280  1.00  0.00    -0.245 C  
ENDBRANCH   4  21
ENDBRANCH   3   4
ENDBRANCH   2   3
TORSDOF 8
ENDMDL
MODEL      287
REMARK 921   NORMALIZED FREE ENERGY PREDICTED BY IDOCK:   -3.14 KCAL/MOL
REMARK 922        TOTAL FREE ENERGY PREDICTED BY IDOCK:   -5.59 KCAL/MOL
REMARK 923 INTER-LIGAND FREE ENERGY PREDICTED BY IDOCK:   -4.52 KCAL/MOL
REMARK 924 INTRA-LIGAND FREE ENERGY PREDICTED BY IDOCK:   -1.07 KCAL/MOL
REMARK 927      BINDING AFFINITY PREDICTED BY RF-SCORE:    0.00 PKD
ROOT
HETATM    1  C   UNL     1     -13.010  13.651  65.395  1.00  0.00    -0.331 C  
HETATM    2  C   UNL     1     -12.066  14.556  64.616  1.00  0.00    -0.486 C  
ENDROOT
BRANCH   2   3
HETATM    3  C   UNL     1     -10.592  14.107  64.706  1.00  0.00    -0.418 C  
BRANCH   3   4
HETATM    4  N   UNL     1     -10.344  12.674  65.009  1.00  0.00    -0.295 NA 
BRANCH   4   5
HETATM    5  C   UNL     1      -9.583  12.499  66.308  1.00  0.00    -0.245 C  
BRANCH   5   6
HETATM    6  C   UNL     1     -10.005  11.190  66.987  1.00  0.00    -0.192 C  
HETATM    7  H   UNL     1     -11.480  10.470  67.998  1.00  0.00     0.000 HD 
HETATM    8  O   UNL     1     -11.219  11.281  67.577  1.00  0.00    -0.265 OA 
BRANCH   6   9
HETATM    9  N   UNL     1      -9.256  10.143  67.000  1.00  0.00    -0.145 NA 
HETATM   10  H   UNL     1      -8.746   9.898  66.153  1.00  0.00     0.000 HD 
BRANCH   9  11
HETATM   11  C   UNL     1      -9.110   9.316  68.142  1.00  0.00    -0.128 A  
HETATM   12  C   UNL     1      -8.413   9.694  69.317  1.00  0.00    -0.150 A  
HETATM   13  C   UNL     1      -8.412   8.846  70.439  1.00  0.00    -0.181 A  
HETATM   14  C   UNL     1      -7.617  10.958  69.459  1.00  0.00    -0.057 C  
HETATM   15  C   UNL     1      -9.138   7.666  70.448  1.00  0.00    -0.152 A  
HETATM   16  C   UNL     1      -9.850   7.293  69.316  1.00  0.00    -0.166 A  
HETATM   17  C   UNL     1      -9.835   8.098  68.161  1.00  0.00    -0.194 A  
HETATM   18  C   UNL     1     -10.615   7.624  66.960  1.00  0.00    -0.406 C  
ENDBRANCH   9  11
ENDBRANCH   6   9
ENDBRANCH   5   6
BRANCH   5  19
HETATM   19  C   UNL     1      -9.778  13.630  67.356  1.00  0.00    -0.228 C  
HETATM   20  C   UNL     1      -8.497  14.165  67.998  1.00  0.00    -0.171 C  
ENDBRANCH   5  19
ENDBRANCH   4   5
BRANCH   4  21
HETATM   21  C   UNL     1      -9.644  12.015  63.873  1.00  0.00    -0.041 C  
HETATM   22  C   UNL     1     -10.142  10.639  63.430  1.00  0.00    -0.266 C  
ENDBRANCH   4  21
ENDBRANCH   3   4
ENDBRANCH   2   3
TORSDOF 8
ENDMDL
MODEL      288
REMARK 921   NORMALIZED FREE ENERGY PREDICTED BY IDOCK:   -3.13 KCAL/MOL
REMARK 922        TOTAL FREE ENERGY PREDICTED BY IDOCK:   -5.57 KCAL/MOL
REMARK 923 INTER-LIGAND FREE ENERGY PREDICTED BY IDOCK:   -4.95 KCAL/MOL
REMARK 924 INTRA-LIGAND FREE ENERGY PREDICTED BY IDOCK:   -0.62 KCAL/MOL
REMARK 927      BINDING AFFINITY PREDICTED BY RF-SCORE:    0.00 PKD
ROOT
HETATM    1  C   UNL     1      -5.683   9.748  70.119  1.00  0.00    -0.044 C  
HETATM    2  C   UNL     1      -6.023   9.174  68.750  1.00  0.00    -0.044 C  
ENDROOT
BRANCH   2   3
HETATM    3  C   UNL     1      -7.495   9.409  68.350  1.00  0.00    -0.078 C  
BRANCH   3   4
HETATM    4  N   UNL     1      -8.238   8.242  67.807  1.00  0.00    -0.126 NA 
BRANCH   4   5
HETATM    5  C   UNL     1      -9.423   7.877  68.678  1.00  0.00    -0.149 C  
BRANCH   5   6
HETATM    6  C   UNL     1      -9.067   8.082  70.155  1.00  0.00    -0.151 C  
HETATM    7  H   UNL     1      -8.087   7.203  71.564  1.00  0.00     0.000 HD 
HETATM    8  O   UNL     1      -8.308   7.076  70.648  1.00  0.00    -0.124 OA 
BRANCH   6   9
HETATM    9  N   UNL     1      -9.479   9.094  70.834  1.00  0.00    -0.263 NA 
HETATM   10  H   UNL     1      -8.791   9.771  71.166  1.00  0.00     0.000 HD 
BRANCH   9  11
HETATM   11  C   UNL     1     -10.845   9.312  71.142  1.00  0.00    -0.337 A  
HETATM   12  C   UNL     1     -11.556   8.610  72.148  1.00  0.00    -0.440 A  
HETATM   13  C   UNL     1     -12.881   8.969  72.453  1.00  0.00    -0.454 A  
HETATM   14  C   UNL     1     -11.005   7.448  72.921  1.00  0.00    -0.408 C  
HETATM   15  C   UNL     1     -13.494  10.048  71.835  1.00  0.00    -0.449 A  
HETATM   16  C   UNL     1     -12.802  10.765  70.868  1.00  0.00    -0.443 A  
HETATM   17  C   UNL     1     -11.490  10.403  70.508  1.00  0.00    -0.431 A  
HETATM   18  C   UNL     1     -10.804  11.213  69.437  1.00  0.00    -0.264 C  
ENDBRANCH   9  11
ENDBRANCH   6   9
ENDBRANCH   5   6
BRANCH   5  19
HETATM   19  C   UNL     1      -9.931   6.416  68.538  1.00  0.00    -0.155 C  
HETATM   20  C   UNL     1     -10.906   6.161  67.387  1.00  0.00    -0.431 C  
ENDBRANCH   5  19
ENDBRANCH   4   5
BRANCH   4  21
HETATM   21  C   UNL     1      -7.322   7.085  67.617  1.00  0.00    -0.096 C  
HETATM   22  C   UNL     1      -7.110   6.569  66.193  1.00  0.00    -0.067 C  
ENDBRANCH   4  21
ENDBRANCH   3   4
ENDBRANCH   2   3
TORSDOF 8
ENDMDL
MODEL      289
REMARK 921   NORMALIZED FREE ENERGY PREDICTED BY IDOCK:   -3.12 KCAL/MOL
REMARK 922        TOTAL FREE ENERGY PREDICTED BY IDOCK:   -5.56 KCAL/MOL
REMARK 923 INTER-LIGAND FREE ENERGY PREDICTED BY IDOCK:   -5.39 KCAL/MOL
REMARK 924 INTRA-LIGAND FREE ENERGY PREDICTED BY IDOCK:   -0.17 KCAL/MOL
REMARK 927      BINDING AFFINITY PREDICTED BY RF-SCORE:    0.00 PKD
ROOT
HETATM    1  C   UNL     1     -14.297   8.640  72.111  1.00  0.00    -0.518 C  
HETATM    2  C   UNL     1     -12.982   7.971  71.738  1.00  0.00    -0.354 C  
ENDROOT
BRANCH   2   3
HETATM    3  C   UNL     1     -11.750   8.714  72.297  1.00  0.00    -0.358 C  
BRANCH   3   4
HETATM    4  N   UNL     1     -10.735   9.169  71.311  1.00  0.00    -0.302 NA 
BRANCH   4   5
HETATM    5  C   UNL     1     -11.380   9.788  70.088  1.00  0.00    -0.251 C  
BRANCH   5   6
HETATM    6  C   UNL     1     -10.393   9.774  68.915  1.00  0.00    -0.210 C  
HETATM    7  H   UNL     1      -8.569  10.259  68.525  1.00  0.00     0.000 HD 
HETATM    8  O   UNL     1      -9.180  10.268  69.252  1.00  0.00    -0.189 OA 
BRANCH   6   9
HETATM    9  N   UNL     1     -10.717   9.355  67.741  1.00  0.00    -0.407 NA 
HETATM   10  H   UNL     1     -11.559   9.729  67.306  1.00  0.00     0.000 HD 
BRANCH   9  11
HETATM   11  C   UNL     1      -9.953   8.398  67.027  1.00  0.00    -0.253 A  
HETATM   12  C   UNL     1     -10.148   6.996  67.116  1.00  0.00    -0.283 A  
HETATM   13  C   UNL     1      -9.412   6.130  66.288  1.00  0.00    -0.144 A  
HETATM   14  C   UNL     1     -11.086   6.331  68.080  1.00  0.00    -0.365 C  
HETATM   15  C   UNL     1      -8.538   6.620  65.330  1.00  0.00    -0.065 A  
HETATM   16  C   UNL     1      -8.356   7.992  65.210  1.00  0.00    -0.151 A  
HETATM   17  C   UNL     1      -9.044   8.884  66.054  1.00  0.00    -0.265 A  
HETATM   18  C   UNL     1      -8.786  10.360  65.881  1.00  0.00    -0.179 C  
ENDBRANCH   9  11
ENDBRANCH   6   9
ENDBRANCH   5   6
BRANCH   5  19
HETATM   19  C   UNL     1     -11.856  11.258  70.254  1.00  0.00    -0.446 C  
HETATM   20  C   UNL     1     -11.988  12.062  68.959  1.00  0.00    -0.321 C  
ENDBRANCH   5  19
ENDBRANCH   4   5
BRANCH   4  21
HETATM   21  C   UNL     1      -9.828   8.049  70.942  1.00  0.00    -0.175 C  
HETATM   22  C   UNL     1      -9.370   7.106  72.056  1.00  0.00    -0.151 C  
ENDBRANCH   4  21
ENDBRANCH   3   4
ENDBRANCH   2   3
TORSDOF 8
ENDMDL
MODEL      290
REMARK 921   NORMALIZED FREE ENERGY PREDICTED BY IDOCK:   -3.12 KCAL/MOL
REMARK 922        TOTAL FREE ENERGY PREDICTED BY IDOCK:   -5.56 KCAL/MOL
REMARK 923 INTER-LIGAND FREE ENERGY PREDICTED BY IDOCK:   -4.97 KCAL/MOL
REMARK 924 INTRA-LIGAND FREE ENERGY PREDICTED BY IDOCK:   -0.59 KCAL/MOL
REMARK 927      BINDING AFFINITY PREDICTED BY RF-SCORE:    0.00 PKD
ROOT
HETATM    1  C   UNL     1     -12.300  12.592  64.096  1.00  0.00    -0.548 C  
HETATM    2  C   UNL     1     -12.382  13.105  65.526  1.00  0.00    -0.529 C  
ENDROOT
BRANCH   2   3
HETATM    3  C   UNL     1     -11.574  14.401  65.747  1.00  0.00    -0.353 C  
BRANCH   3   4
HETATM    4  N   UNL     1     -10.692  14.447  66.942  1.00  0.00    -0.289 NA 
BRANCH   4   5
HETATM    5  C   UNL     1      -9.256  14.114  66.591  1.00  0.00    -0.252 C  
BRANCH   5   6
HETATM    6  C   UNL     1      -9.002  12.616  66.800  1.00  0.00    -0.197 C  
HETATM    7  H   UNL     1      -8.338  11.414  68.153  1.00  0.00     0.000 HD 
HETATM    8  O   UNL     1      -8.495  12.342  68.024  1.00  0.00    -0.158 OA 
BRANCH   6   9
HETATM    9  N   UNL     1      -9.231  11.740  65.886  1.00  0.00    -0.333 NA 
HETATM   10  H   UNL     1      -9.565  12.059  64.977  1.00  0.00     0.000 HD 
BRANCH   9  11
HETATM   11  C   UNL     1      -9.038  10.350  66.085  1.00  0.00    -0.160 A  
HETATM   12  C   UNL     1      -9.921   9.520  66.821  1.00  0.00    -0.297 A  
HETATM   13  C   UNL     1      -9.703   8.132  66.875  1.00  0.00    -0.291 A  
HETATM   14  C   UNL     1     -11.097  10.022  67.607  1.00  0.00    -0.222 C  
HETATM   15  C   UNL     1      -8.671   7.539  66.165  1.00  0.00    -0.174 A  
HETATM   16  C   UNL     1      -7.814   8.333  65.414  1.00  0.00    -0.113 A  
HETATM   17  C   UNL     1      -7.979   9.730  65.376  1.00  0.00    -0.125 A  
HETATM   18  C   UNL     1      -7.000  10.534  64.557  1.00  0.00     0.091 C  
ENDBRANCH   9  11
ENDBRANCH   6   9
ENDBRANCH   5   6
BRANCH   5  19
HETATM   19  C   UNL     1      -8.174  14.870  67.412  1.00  0.00    -0.217 C  
HETATM   20  C   UNL     1      -8.560  16.273  67.881  1.00  0.00    -0.173 C  
ENDBRANCH   5  19
ENDBRANCH   4   5
BRANCH   4  21
HETATM   21  C   UNL     1     -11.215  13.553  68.010  1.00  0.00    -0.271 C  
HETATM   22  C   UNL     1     -11.546  14.179  69.365  1.00  0.00    -0.353 C  
ENDBRANCH   4  21
ENDBRANCH   3   4
ENDBRANCH   2   3
TORSDOF 8
ENDMDL
MODEL      291
REMARK 921   NORMALIZED FREE ENERGY PREDICTED BY IDOCK:   -3.12 KCAL/MOL
REMARK 922        TOTAL FREE ENERGY PREDICTED BY IDOCK:   -5.56 KCAL/MOL
REMARK 923 INTER-LIGAND FREE ENERGY PREDICTED BY IDOCK:   -4.24 KCAL/MOL
REMARK 924 INTRA-LIGAND FREE ENERGY PREDICTED BY IDOCK:   -1.31 KCAL/MOL
REMARK 927      BINDING AFFINITY PREDICTED BY RF-SCORE:    0.00 PKD
ROOT
HETATM    1  C   UNL     1     -13.997   8.979  72.454  1.00  0.00    -0.517 C  
HETATM    2  C   UNL     1     -12.900   9.933  72.005  1.00  0.00    -0.488 C  
ENDROOT
BRANCH   2   3
HETATM    3  C   UNL     1     -12.142   9.431  70.757  1.00  0.00    -0.203 C  
BRANCH   3   4
HETATM    4  N   UNL     1     -10.736   8.993  70.956  1.00  0.00    -0.245 NA 
BRANCH   4   5
HETATM    5  C   UNL     1      -9.912   9.165  69.696  1.00  0.00    -0.190 C  
BRANCH   5   6
HETATM    6  C   UNL     1      -8.435   8.884  69.997  1.00  0.00    -0.139 C  
HETATM    7  H   UNL     1      -7.069   9.403  71.253  1.00  0.00     0.000 HD 
HETATM    8  O   UNL     1      -7.984   9.578  71.067  1.00  0.00    -0.321 OA 
BRANCH   6   9
HETATM    9  N   UNL     1      -7.719   8.091  69.279  1.00  0.00    -0.100 NA 
HETATM   10  H   UNL     1      -7.065   7.465  69.749  1.00  0.00     0.000 HD 
BRANCH   9  11
HETATM   11  C   UNL     1      -7.800   8.047  67.865  1.00  0.00    -0.126 A  
HETATM   12  C   UNL     1      -8.587   7.117  67.140  1.00  0.00    -0.121 A  
HETATM   13  C   UNL     1      -8.686   7.219  65.741  1.00  0.00    -0.129 A  
HETATM   14  C   UNL     1      -9.325   5.967  67.760  1.00  0.00    -0.106 C  
HETATM   15  C   UNL     1      -8.080   8.257  65.051  1.00  0.00    -0.148 A  
HETATM   16  C   UNL     1      -7.330   9.194  65.748  1.00  0.00    -0.090 A  
HETATM   17  C   UNL     1      -7.174   9.094  67.144  1.00  0.00    -0.086 A  
HETATM   18  C   UNL     1      -6.329  10.135  67.836  1.00  0.00    -0.061 C  
ENDBRANCH   9  11
ENDBRANCH   6   9
ENDBRANCH   5   6
BRANCH   5  19
HETATM   19  C   UNL     1      -9.976  10.573  69.041  1.00  0.00    -0.223 C  
HETATM   20  C   UNL     1     -10.563  10.620  67.629  1.00  0.00    -0.288 C  
ENDBRANCH   5  19
ENDBRANCH   4   5
BRANCH   4  21
HETATM   21  C   UNL     1     -10.693   7.590  71.449  1.00  0.00    -0.223 C  
HETATM   22  C   UNL     1     -11.605   6.567  70.770  1.00  0.00    -0.437 C  
ENDBRANCH   4  21
ENDBRANCH   3   4
ENDBRANCH   2   3
TORSDOF 8
ENDMDL
MODEL      292
REMARK 921   NORMALIZED FREE ENERGY PREDICTED BY IDOCK:   -3.12 KCAL/MOL
REMARK 922        TOTAL FREE ENERGY PREDICTED BY IDOCK:   -5.55 KCAL/MOL
REMARK 923 INTER-LIGAND FREE ENERGY PREDICTED BY IDOCK:   -4.86 KCAL/MOL
REMARK 924 INTRA-LIGAND FREE ENERGY PREDICTED BY IDOCK:   -0.69 KCAL/MOL
REMARK 927      BINDING AFFINITY PREDICTED BY RF-SCORE:    0.00 PKD
ROOT
HETATM    1  C   UNL     1      -8.519   9.036  63.332  1.00  0.00    -0.176 C  
HETATM    2  C   UNL     1      -8.196   8.336  64.644  1.00  0.00    -0.145 C  
ENDROOT
BRANCH   2   3
HETATM    3  C   UNL     1      -8.824   9.035  65.869  1.00  0.00    -0.175 C  
BRANCH   3   4
HETATM    4  N   UNL     1      -9.452   8.161  66.893  1.00  0.00    -0.176 NA 
BRANCH   4   5
HETATM    5  C   UNL     1      -8.736   8.253  68.225  1.00  0.00    -0.136 C  
BRANCH   5   6
HETATM    6  C   UNL     1      -9.470   9.235  69.145  1.00  0.00    -0.157 C  
HETATM    7  H   UNL     1      -9.146  10.284  70.730  1.00  0.00     0.000 HD 
HETATM    8  O   UNL     1      -8.691   9.675  70.160  1.00  0.00    -0.211 OA 
BRANCH   6   9
HETATM    9  N   UNL     1     -10.700   9.568  68.964  1.00  0.00    -0.276 NA 
HETATM   10  H   UNL     1     -11.278   8.988  68.356  1.00  0.00     0.000 HD 
BRANCH   9  11
HETATM   11  C   UNL     1     -11.289  10.704  69.574  1.00  0.00    -0.277 A  
HETATM   12  C   UNL     1     -11.312  11.997  68.994  1.00  0.00    -0.331 A  
HETATM   13  C   UNL     1     -12.013  13.040  69.627  1.00  0.00    -0.367 A  
HETATM   14  C   UNL     1     -10.597  12.371  67.730  1.00  0.00    -0.236 C  
HETATM   15  C   UNL     1     -12.744  12.816  70.783  1.00  0.00    -0.217 A  
HETATM   16  C   UNL     1     -12.757  11.548  71.349  1.00  0.00    -0.469 A  
HETATM   17  C   UNL     1     -12.029  10.495  70.765  1.00  0.00    -0.472 A  
HETATM   18  C   UNL     1     -12.070   9.148  71.443  1.00  0.00    -0.409 C  
ENDBRANCH   9  11
ENDBRANCH   6   9
ENDBRANCH   5   6
BRANCH   5  19
HETATM   19  C   UNL     1      -7.256   8.723  68.158  1.00  0.00    -0.083 C  
HETATM   20  C   UNL     1      -6.249   7.674  67.684  1.00  0.00    -0.049 C  
ENDBRANCH   5  19
ENDBRANCH   4   5
BRANCH   4  21
HETATM   21  C   UNL     1      -9.522   6.756  66.406  1.00  0.00    -0.119 C  
HETATM   22  C   UNL     1     -10.762   5.938  66.767  1.00  0.00    -0.371 C  
ENDBRANCH   4  21
ENDBRANCH   3   4
ENDBRANCH   2   3
TORSDOF 8
ENDMDL
MODEL      293
REMARK 921   NORMALIZED FREE ENERGY PREDICTED BY IDOCK:   -3.12 KCAL/MOL
REMARK 922        TOTAL FREE ENERGY PREDICTED BY IDOCK:   -5.54 KCAL/MOL
REMARK 923 INTER-LIGAND FREE ENERGY PREDICTED BY IDOCK:   -5.36 KCAL/MOL
REMARK 924 INTRA-LIGAND FREE ENERGY PREDICTED BY IDOCK:   -0.18 KCAL/MOL
REMARK 927      BINDING AFFINITY PREDICTED BY RF-SCORE:    0.00 PKD
ROOT
HETATM    1  C   UNL     1     -10.213  16.562  69.377  1.00  0.00    -0.264 C  
HETATM    2  C   UNL     1      -8.943  16.092  68.681  1.00  0.00    -0.221 C  
ENDROOT
BRANCH   2   3
HETATM    3  C   UNL     1      -9.210  15.501  67.280  1.00  0.00    -0.209 C  
BRANCH   3   4
HETATM    4  N   UNL     1     -10.605  15.575  66.774  1.00  0.00    -0.304 NA 
BRANCH   4   5
HETATM    5  C   UNL     1     -11.163  14.201  66.465  1.00  0.00    -0.330 C  
BRANCH   5   6
HETATM    6  C   UNL     1     -10.133  13.385  65.676  1.00  0.00    -0.274 C  
HETATM    7  H   UNL     1      -9.554  13.118  63.856  1.00  0.00     0.000 HD 
HETATM    8  O   UNL     1     -10.193  13.623  64.345  1.00  0.00    -0.393 OA 
BRANCH   6   9
HETATM    9  N   UNL     1      -9.328  12.554  66.238  1.00  0.00    -0.348 NA 
HETATM   10  H   UNL     1      -8.372  12.854  66.428  1.00  0.00     0.000 HD 
BRANCH   9  11
HETATM   11  C   UNL     1      -9.710  11.240  66.606  1.00  0.00    -0.196 A  
HETATM   12  C   UNL     1      -9.665  10.123  65.734  1.00  0.00    -0.307 A  
HETATM   13  C   UNL     1      -9.964   8.837  66.221  1.00  0.00    -0.315 A  
HETATM   14  C   UNL     1      -9.346  10.204  64.271  1.00  0.00    -0.349 C  
HETATM   15  C   UNL     1     -10.241   8.623  67.562  1.00  0.00    -0.308 A  
HETATM   16  C   UNL     1     -10.260   9.701  68.436  1.00  0.00    -0.214 A  
HETATM   17  C   UNL     1     -10.010  11.006  67.972  1.00  0.00    -0.188 A  
HETATM   18  C   UNL     1     -10.066  12.134  68.972  1.00  0.00     0.094 C  
ENDBRANCH   9  11
ENDBRANCH   6   9
ENDBRANCH   5   6
BRANCH   5  19
HETATM   19  C   UNL     1     -12.478  14.183  65.637  1.00  0.00    -0.490 C  
HETATM   20  C   UNL     1     -12.851  12.836  65.017  1.00  0.00    -0.312 C  
ENDBRANCH   5  19
ENDBRANCH   4   5
BRANCH   4  21
HETATM   21  C   UNL     1     -10.683  16.475  65.592  1.00  0.00    -0.248 C  
HETATM   22  C   UNL     1     -10.339  17.952  65.795  1.00  0.00    -0.182 C  
ENDBRANCH   4  21
ENDBRANCH   3   4
ENDBRANCH   2   3
TORSDOF 8
ENDMDL
MODEL      294
REMARK 921   NORMALIZED FREE ENERGY PREDICTED BY IDOCK:   -3.11 KCAL/MOL
REMARK 922        TOTAL FREE ENERGY PREDICTED BY IDOCK:   -5.54 KCAL/MOL
REMARK 923 INTER-LIGAND FREE ENERGY PREDICTED BY IDOCK:   -5.63 KCAL/MOL
REMARK 924 INTRA-LIGAND FREE ENERGY PREDICTED BY IDOCK:    0.09 KCAL/MOL
REMARK 927      BINDING AFFINITY PREDICTED BY RF-SCORE:    0.00 PKD
ROOT
HETATM    1  C   UNL     1     -10.156  16.488  65.887  1.00  0.00    -0.359 C  
HETATM    2  C   UNL     1     -10.577  15.348  64.971  1.00  0.00    -0.445 C  
ENDROOT
BRANCH   2   3
HETATM    3  C   UNL     1     -10.343  13.957  65.596  1.00  0.00    -0.325 C  
BRANCH   3   4
HETATM    4  N   UNL     1     -11.546  13.214  66.053  1.00  0.00    -0.337 NA 
BRANCH   4   5
HETATM    5  C   UNL     1     -11.213  11.784  66.428  1.00  0.00    -0.323 C  
BRANCH   5   6
HETATM    6  C   UNL     1     -11.166  11.643  67.954  1.00  0.00    -0.269 C  
HETATM    7  H   UNL     1     -12.221  10.916  69.394  1.00  0.00     0.000 HD 
HETATM    8  O   UNL     1     -12.251  11.003  68.449  1.00  0.00    -0.586 OA 
BRANCH   6   9
HETATM    9  N   UNL     1     -10.202  12.113  68.665  1.00  0.00    -0.325 NA 
HETATM   10  H   UNL     1     -10.353  12.981  69.179  1.00  0.00     0.000 HD 
BRANCH   9  11
HETATM   11  C   UNL     1      -8.939  11.478  68.767  1.00  0.00    -0.047 A  
HETATM   12  C   UNL     1      -7.718  12.058  68.339  1.00  0.00    -0.138 A  
HETATM   13  C   UNL     1      -6.501  11.395  68.578  1.00  0.00    -0.056 A  
HETATM   14  C   UNL     1      -7.613  13.355  67.592  1.00  0.00    -0.177 C  
HETATM   15  C   UNL     1      -6.459  10.206  69.289  1.00  0.00    -0.047 A  
HETATM   16  C   UNL     1      -7.642   9.638  69.742  1.00  0.00    -0.123 A  
HETATM   17  C   UNL     1      -8.881  10.254  69.479  1.00  0.00    -0.166 A  
HETATM   18  C   UNL     1     -10.128   9.573  69.983  1.00  0.00    -0.279 C  
ENDBRANCH   9  11
ENDBRANCH   6   9
ENDBRANCH   5   6
BRANCH   5  19
HETATM   19  C   UNL     1      -9.859  11.248  65.887  1.00  0.00    -0.272 C  
HETATM   20  C   UNL     1      -9.750   9.727  65.768  1.00  0.00    -0.340 C  
ENDBRANCH   5  19
ENDBRANCH   4   5
BRANCH   4  21
HETATM   21  C   UNL     1     -12.617  13.273  65.021  1.00  0.00    -0.423 C  
HETATM   22  C   UNL     1     -12.483  12.360  63.802  1.00  0.00    -0.593 C  
ENDBRANCH   4  21
ENDBRANCH   3   4
ENDBRANCH   2   3
TORSDOF 8
ENDMDL
MODEL      295
REMARK 921   NORMALIZED FREE ENERGY PREDICTED BY IDOCK:   -3.11 KCAL/MOL
REMARK 922        TOTAL FREE ENERGY PREDICTED BY IDOCK:   -5.53 KCAL/MOL
REMARK 923 INTER-LIGAND FREE ENERGY PREDICTED BY IDOCK:   -4.17 KCAL/MOL
REMARK 924 INTRA-LIGAND FREE ENERGY PREDICTED BY IDOCK:   -1.36 KCAL/MOL
REMARK 927      BINDING AFFINITY PREDICTED BY RF-SCORE:    0.00 PKD
ROOT
HETATM    1  C   UNL     1     -11.850   6.716  72.094  1.00  0.00    -0.337 C  
HETATM    2  C   UNL     1     -10.734   5.820  71.575  1.00  0.00    -0.319 C  
ENDROOT
BRANCH   2   3
HETATM    3  C   UNL     1      -9.661   6.595  70.782  1.00  0.00    -0.179 C  
BRANCH   3   4
HETATM    4  N   UNL     1      -9.698   8.077  70.873  1.00  0.00    -0.164 NA 
BRANCH   4   5
HETATM    5  C   UNL     1      -9.893   8.719  69.515  1.00  0.00    -0.180 C  
BRANCH   5   6
HETATM    6  C   UNL     1     -10.391  10.158  69.684  1.00  0.00    -0.247 C  
HETATM    7  H   UNL     1     -11.750  11.138  70.639  1.00  0.00     0.000 HD 
HETATM    8  O   UNL     1     -11.441  10.246  70.534  1.00  0.00    -0.296 OA 
BRANCH   6   9
HETATM    9  N   UNL     1      -9.868  11.153  69.057  1.00  0.00    -0.359 NA 
HETATM   10  H   UNL     1      -9.800  12.050  69.537  1.00  0.00     0.000 HD 
BRANCH   9  11
HETATM   11  C   UNL     1      -9.381  11.056  67.730  1.00  0.00    -0.158 A  
HETATM   12  C   UNL     1      -8.073  10.629  67.390  1.00  0.00    -0.112 A  
HETATM   13  C   UNL     1      -7.714  10.464  66.040  1.00  0.00    -0.136 A  
HETATM   14  C   UNL     1      -6.984  10.361  68.387  1.00  0.00    -0.069 C  
HETATM   15  C   UNL     1      -8.639  10.647  65.023  1.00  0.00    -0.166 A  
HETATM   16  C   UNL     1      -9.934  11.036  65.340  1.00  0.00    -0.313 A  
HETATM   17  C   UNL     1     -10.311  11.254  66.678  1.00  0.00    -0.279 A  
HETATM   18  C   UNL     1     -11.728  11.695  66.949  1.00  0.00    -0.133 C  
ENDBRANCH   9  11
ENDBRANCH   6   9
ENDBRANCH   5   6
BRANCH   5  19
HETATM   19  C   UNL     1     -10.903   8.003  68.575  1.00  0.00     0.042 C  
HETATM   20  C   UNL     1     -10.351   7.575  67.214  1.00  0.00    -0.366 C  
ENDBRANCH   5  19
ENDBRANCH   4   5
BRANCH   4  21
HETATM   21  C   UNL     1      -8.473   8.587  71.547  1.00  0.00    -0.170 C  
HETATM   22  C   UNL     1      -8.280   8.252  73.027  1.00  0.00    -0.227 C  
ENDBRANCH   4  21
ENDBRANCH   3   4
ENDBRANCH   2   3
TORSDOF 8
ENDMDL
MODEL      296
REMARK 921   NORMALIZED FREE ENERGY PREDICTED BY IDOCK:   -3.10 KCAL/MOL
REMARK 922        TOTAL FREE ENERGY PREDICTED BY IDOCK:   -5.53 KCAL/MOL
REMARK 923 INTER-LIGAND FREE ENERGY PREDICTED BY IDOCK:   -4.38 KCAL/MOL
REMARK 924 INTRA-LIGAND FREE ENERGY PREDICTED BY IDOCK:   -1.14 KCAL/MOL
REMARK 927      BINDING AFFINITY PREDICTED BY RF-SCORE:    0.00 PKD
ROOT
HETATM    1  C   UNL     1     -13.019  10.512  71.084  1.00  0.00    -0.506 C  
HETATM    2  C   UNL     1     -12.228   9.446  71.829  1.00  0.00    -0.465 C  
ENDROOT
BRANCH   2   3
HETATM    3  C   UNL     1     -10.773   9.319  71.330  1.00  0.00    -0.362 C  
BRANCH   3   4
HETATM    4  N   UNL     1     -10.575   9.178  69.865  1.00  0.00    -0.223 NA 
BRANCH   4   5
HETATM    5  C   UNL     1     -10.254   7.749  69.477  1.00  0.00    -0.207 C  
BRANCH   5   6
HETATM    6  C   UNL     1      -9.943   7.672  67.978  1.00  0.00    -0.175 C  
HETATM    7  H   UNL     1     -10.706   8.210  66.291  1.00  0.00     0.000 HD 
HETATM    8  O   UNL     1     -10.899   8.258  67.220  1.00  0.00    -0.232 OA 
BRANCH   6   9
HETATM    9  N   UNL     1      -8.894   7.086  67.516  1.00  0.00    -0.119 NA 
HETATM   10  H   UNL     1      -8.319   7.583  66.836  1.00  0.00     0.000 HD 
BRANCH   9  11
HETATM   11  C   UNL     1      -8.503   5.783  67.910  1.00  0.00    -0.103 A  
HETATM   12  C   UNL     1      -7.547   5.509  68.920  1.00  0.00    -0.087 A  
HETATM   13  C   UNL     1      -7.301   4.182  69.316  1.00  0.00    -0.054 A  
HETATM   14  C   UNL     1      -6.717   6.554  69.606  1.00  0.00    -0.050 C  
HETATM   15  C   UNL     1      -8.026   3.127  68.783  1.00  0.00    -0.064 A  
HETATM   16  C   UNL     1      -8.987   3.380  67.813  1.00  0.00    -0.177 A  
HETATM   17  C   UNL     1      -9.225   4.692  67.363  1.00  0.00    -0.146 A  
HETATM   18  C   UNL     1     -10.270   4.893  66.294  1.00  0.00    -0.312 C  
ENDBRANCH   9  11
ENDBRANCH   6   9
ENDBRANCH   5   6
BRANCH   5  19
HETATM   19  C   UNL     1     -11.377   6.711  69.755  1.00  0.00    -0.412 C  
HETATM   20  C   UNL     1     -11.022   5.601  70.746  1.00  0.00    -0.257 C  
ENDBRANCH   5  19
ENDBRANCH   4   5
BRANCH   4  21
HETATM   21  C   UNL     1      -9.528  10.121  69.387  1.00  0.00    -0.224 C  
HETATM   22  C   UNL     1      -9.986  11.393  68.672  1.00  0.00    -0.209 C  
ENDBRANCH   4  21
ENDBRANCH   3   4
ENDBRANCH   2   3
TORSDOF 8
ENDMDL
MODEL      297
REMARK 921   NORMALIZED FREE ENERGY PREDICTED BY IDOCK:   -3.10 KCAL/MOL
REMARK 922        TOTAL FREE ENERGY PREDICTED BY IDOCK:   -5.52 KCAL/MOL
REMARK 923 INTER-LIGAND FREE ENERGY PREDICTED BY IDOCK:   -4.61 KCAL/MOL
REMARK 924 INTRA-LIGAND FREE ENERGY PREDICTED BY IDOCK:   -0.91 KCAL/MOL
REMARK 927      BINDING AFFINITY PREDICTED BY RF-SCORE:    0.00 PKD
ROOT
HETATM    1  C   UNL     1     -12.075   9.262  71.270  1.00  0.00    -0.412 C  
HETATM    2  C   UNL     1     -12.006  10.371  70.231  1.00  0.00    -0.387 C  
ENDROOT
BRANCH   2   3
HETATM    3  C   UNL     1     -10.631  10.459  69.536  1.00  0.00    -0.246 C  
BRANCH   3   4
HETATM    4  N   UNL     1     -10.421  11.595  68.602  1.00  0.00    -0.209 NA 
BRANCH   4   5
HETATM    5  C   UNL     1      -8.949  11.901  68.412  1.00  0.00    -0.163 C  
BRANCH   5   6
HETATM    6  C   UNL     1      -8.556  11.686  66.946  1.00  0.00    -0.174 C  
HETATM    7  H   UNL     1      -7.755  10.338  65.824  1.00  0.00     0.000 HD 
HETATM    8  O   UNL     1      -7.998  10.471  66.732  1.00  0.00    -0.114 OA 
BRANCH   6   9
HETATM    9  N   UNL     1      -8.725  12.587  66.043  1.00  0.00    -0.337 NA 
HETATM   10  H   UNL     1      -7.903  13.051  65.658  1.00  0.00     0.000 HD 
BRANCH   9  11
HETATM   11  C   UNL     1     -10.003  12.963  65.559  1.00  0.00    -0.213 A  
HETATM   12  C   UNL     1     -10.973  12.049  65.077  1.00  0.00    -0.355 A  
HETATM   13  C   UNL     1     -12.253  12.506  64.716  1.00  0.00    -0.532 A  
HETATM   14  C   UNL     1     -10.729  10.582  64.877  1.00  0.00     0.054 C  
HETATM   15  C   UNL     1     -12.616  13.833  64.885  1.00  0.00    -0.380 A  
HETATM   16  C   UNL     1     -11.688  14.737  65.385  1.00  0.00    -0.289 A  
HETATM   17  C   UNL     1     -10.384  14.320  65.712  1.00  0.00    -0.341 A  
HETATM   18  C   UNL     1      -9.421  15.357  66.231  1.00  0.00    -0.342 C  
ENDBRANCH   9  11
ENDBRANCH   6   9
ENDBRANCH   5   6
BRANCH   5  19
HETATM   19  C   UNL     1      -7.972  11.046  69.268  1.00  0.00    -0.034 C  
HETATM   20  C   UNL     1      -6.747  11.785  69.810  1.00  0.00     0.015 C  
ENDBRANCH   5  19
ENDBRANCH   4   5
BRANCH   4  21
HETATM   21  C   UNL     1     -11.173  12.793  69.062  1.00  0.00    -0.264 C  
HETATM   22  C   UNL     1     -10.372  14.053  69.394  1.00  0.00     0.113 C  
ENDBRANCH   4  21
ENDBRANCH   3   4
ENDBRANCH   2   3
TORSDOF 8
ENDMDL
MODEL      298
REMARK 921   NORMALIZED FREE ENERGY PREDICTED BY IDOCK:   -3.08 KCAL/MOL
REMARK 922        TOTAL FREE ENERGY PREDICTED BY IDOCK:   -5.50 KCAL/MOL
REMARK 923 INTER-LIGAND FREE ENERGY PREDICTED BY IDOCK:   -4.62 KCAL/MOL
REMARK 924 INTRA-LIGAND FREE ENERGY PREDICTED BY IDOCK:   -0.88 KCAL/MOL
REMARK 927      BINDING AFFINITY PREDICTED BY RF-SCORE:    0.00 PKD
ROOT
HETATM    1  C   UNL     1     -11.170   3.083  73.608  1.00  0.00    -0.298 C  
HETATM    2  C   UNL     1     -10.203   4.252  73.726  1.00  0.00    -0.221 C  
ENDROOT
BRANCH   2   3
HETATM    3  C   UNL     1     -10.405   5.312  72.622  1.00  0.00    -0.202 C  
BRANCH   3   4
HETATM    4  N   UNL     1      -9.189   6.013  72.135  1.00  0.00    -0.146 NA 
BRANCH   4   5
HETATM    5  C   UNL     1      -9.178   6.133  70.624  1.00  0.00    -0.154 C  
BRANCH   5   6
HETATM    6  C   UNL     1      -9.978   7.367  70.193  1.00  0.00    -0.184 C  
HETATM    7  H   UNL     1     -11.303   7.876  68.888  1.00  0.00     0.000 HD 
HETATM    8  O   UNL     1     -10.807   7.111  69.154  1.00  0.00    -0.216 OA 
BRANCH   6   9
HETATM    9  N   UNL     1      -9.840   8.516  70.757  1.00  0.00    -0.175 NA 
HETATM   10  H   UNL     1      -9.300   8.573  71.620  1.00  0.00     0.000 HD 
BRANCH   9  11
HETATM   11  C   UNL     1     -10.404   9.705  70.232  1.00  0.00    -0.280 A  
HETATM   12  C   UNL     1      -9.793  10.504  69.233  1.00  0.00    -0.225 A  
HETATM   13  C   UNL     1     -10.479  11.609  68.698  1.00  0.00    -0.234 A  
HETATM   14  C   UNL     1      -8.408  10.280  68.700  1.00  0.00    -0.122 C  
HETATM   15  C   UNL     1     -11.778  11.903  69.080  1.00  0.00    -0.380 A  
HETATM   16  C   UNL     1     -12.403  11.114  70.037  1.00  0.00    -0.351 A  
HETATM   17  C   UNL     1     -11.728  10.027  70.624  1.00  0.00    -0.421 A  
HETATM   18  C   UNL     1     -12.459   9.224  71.670  1.00  0.00    -0.448 C  
ENDBRANCH   9  11
ENDBRANCH   6   9
ENDBRANCH   5   6
BRANCH   5  19
HETATM   19  C   UNL     1      -9.773   4.922  69.852  1.00  0.00    -0.276 C  
HETATM   20  C   UNL     1      -8.753   3.986  69.202  1.00  0.00    -0.127 C  
ENDBRANCH   5  19
ENDBRANCH   4   5
BRANCH   4  21
HETATM   21  C   UNL     1      -7.962   5.339  72.638  1.00  0.00    -0.102 C  
HETATM   22  C   UNL     1      -6.651   5.597  71.894  1.00  0.00    -0.057 C  
ENDBRANCH   4  21
ENDBRANCH   3   4
ENDBRANCH   2   3
TORSDOF 8
ENDMDL
MODEL      299
REMARK 921   NORMALIZED FREE ENERGY PREDICTED BY IDOCK:   -3.08 KCAL/MOL
REMARK 922        TOTAL FREE ENERGY PREDICTED BY IDOCK:   -5.49 KCAL/MOL
REMARK 923 INTER-LIGAND FREE ENERGY PREDICTED BY IDOCK:   -4.59 KCAL/MOL
REMARK 924 INTRA-LIGAND FREE ENERGY PREDICTED BY IDOCK:   -0.90 KCAL/MOL
REMARK 927      BINDING AFFINITY PREDICTED BY RF-SCORE:    0.00 PKD
ROOT
HETATM    1  C   UNL     1     -12.694  13.882  65.338  1.00  0.00    -0.525 C  
HETATM    2  C   UNL     1     -11.383  13.464  65.988  1.00  0.00    -0.329 C  
ENDROOT
BRANCH   2   3
HETATM    3  C   UNL     1     -11.309  11.949  66.271  1.00  0.00    -0.334 C  
BRANCH   3   4
HETATM    4  N   UNL     1     -10.108  11.458  66.995  1.00  0.00    -0.204 NA 
BRANCH   4   5
HETATM    5  C   UNL     1     -10.444  11.014  68.404  1.00  0.00    -0.180 C  
BRANCH   5   6
HETATM    6  C   UNL     1     -10.211   9.506  68.545  1.00  0.00    -0.199 C  
HETATM    7  H   UNL     1     -10.637   7.863  67.631  1.00  0.00     0.000 HD 
HETATM    8  O   UNL     1     -10.782   8.797  67.543  1.00  0.00    -0.253 OA 
BRANCH   6   9
HETATM    9  N   UNL     1      -9.562   8.993  69.531  1.00  0.00    -0.162 NA 
HETATM   10  H   UNL     1      -9.314   9.594  70.317  1.00  0.00     0.000 HD 
BRANCH   9  11
HETATM   11  C   UNL     1      -9.176   7.630  69.574  1.00  0.00    -0.150 A  
HETATM   12  C   UNL     1      -7.947   7.133  69.070  1.00  0.00    -0.120 A  
HETATM   13  C   UNL     1      -7.606   5.781  69.254  1.00  0.00    -0.088 A  
HETATM   14  C   UNL     1      -6.956   7.952  68.297  1.00  0.00    -0.073 C  
HETATM   15  C   UNL     1      -8.421   4.927  69.981  1.00  0.00    -0.091 A  
HETATM   16  C   UNL     1      -9.614   5.404  70.507  1.00  0.00    -0.232 A  
HETATM   17  C   UNL     1     -10.005   6.740  70.303  1.00  0.00    -0.192 A  
HETATM   18  C   UNL     1     -11.322   7.187  70.886  1.00  0.00    -0.319 C  
ENDBRANCH   9  11
ENDBRANCH   6   9
ENDBRANCH   5   6
BRANCH   5  19
HETATM   19  C   UNL     1     -11.904  11.286  68.861  1.00  0.00    -0.413 C  
HETATM   20  C   UNL     1     -12.068  12.334  69.964  1.00  0.00    -0.346 C  
ENDBRANCH   5  19
ENDBRANCH   4   5
BRANCH   4  21
HETATM   21  C   UNL     1      -9.037  12.492  66.988  1.00  0.00    -0.213 C  
HETATM   22  C   UNL     1      -8.165  12.623  68.237  1.00  0.00    -0.164 C  
ENDBRANCH   4  21
ENDBRANCH   3   4
ENDBRANCH   2   3
TORSDOF 8
ENDMDL
MODEL      300
REMARK 921   NORMALIZED FREE ENERGY PREDICTED BY IDOCK:   -3.07 KCAL/MOL
REMARK 922        TOTAL FREE ENERGY PREDICTED BY IDOCK:   -5.48 KCAL/MOL
REMARK 923 INTER-LIGAND FREE ENERGY PREDICTED BY IDOCK:   -4.21 KCAL/MOL
REMARK 924 INTRA-LIGAND FREE ENERGY PREDICTED BY IDOCK:   -1.27 KCAL/MOL
REMARK 927      BINDING AFFINITY PREDICTED BY RF-SCORE:    0.00 PKD
ROOT
HETATM    1  C   UNL     1      -5.995   9.465  66.577  1.00  0.00    -0.059 C  
HETATM    2  C   UNL     1      -7.264  10.139  66.073  1.00  0.00    -0.118 C  
ENDROOT
BRANCH   2   3
HETATM    3  C   UNL     1      -8.208  10.571  67.215  1.00  0.00    -0.119 C  
BRANCH   3   4
HETATM    4  N   UNL     1      -9.431   9.753  67.422  1.00  0.00    -0.150 NA 
BRANCH   4   5
HETATM    5  C   UNL     1      -9.417   9.053  68.765  1.00  0.00    -0.148 C  
BRANCH   5   6
HETATM    6  C   UNL     1     -10.778   9.215  69.452  1.00  0.00    -0.198 C  
HETATM    7  H   UNL     1     -11.950  10.613  70.077  1.00  0.00     0.000 HD 
HETATM    8  O   UNL     1     -11.106  10.512  69.651  1.00  0.00    -0.244 OA 
BRANCH   6   9
HETATM    9  N   UNL     1     -11.498   8.210  69.812  1.00  0.00    -0.432 NA 
HETATM   10  H   UNL     1     -12.300   7.955  69.236  1.00  0.00     0.000 HD 
BRANCH   9  11
HETATM   11  C   UNL     1     -11.227   7.444  70.972  1.00  0.00    -0.264 A  
HETATM   12  C   UNL     1     -10.430   6.271  70.984  1.00  0.00    -0.274 A  
HETATM   13  C   UNL     1     -10.129   5.637  72.203  1.00  0.00    -0.227 A  
HETATM   14  C   UNL     1      -9.887   5.604  69.755  1.00  0.00    -0.245 C  
HETATM   15  C   UNL     1     -10.541   6.173  73.413  1.00  0.00    -0.288 A  
HETATM   16  C   UNL     1     -11.298   7.338  73.422  1.00  0.00     0.114 A  
HETATM   17  C   UNL     1     -11.654   7.971  72.217  1.00  0.00    -0.424 A  
HETATM   18  C   UNL     1     -12.494   9.222  72.298  1.00  0.00    -0.377 C  
ENDBRANCH   9  11
ENDBRANCH   6   9
ENDBRANCH   5   6
BRANCH   5  19
HETATM   19  C   UNL     1      -8.345   9.556  69.772  1.00  0.00    -0.170 C  
HETATM   20  C   UNL     1      -7.572   8.466  70.516  1.00  0.00    -0.074 C  
ENDBRANCH   5  19
ENDBRANCH   4   5
BRANCH   4  21
HETATM   21  C   UNL     1      -9.605   8.786  66.304  1.00  0.00    -0.259 C  
HETATM   22  C   UNL     1      -9.748   7.305  66.658  1.00  0.00    -0.249 C  
ENDBRANCH   4  21
ENDBRANCH   3   4
ENDBRANCH   2   3
TORSDOF 8
ENDMDL
MODEL      301
REMARK 921   NORMALIZED FREE ENERGY PREDICTED BY IDOCK:   -3.06 KCAL/MOL
REMARK 922        TOTAL FREE ENERGY PREDICTED BY IDOCK:   -5.47 KCAL/MOL
REMARK 923 INTER-LIGAND FREE ENERGY PREDICTED BY IDOCK:   -4.96 KCAL/MOL
REMARK 924 INTRA-LIGAND FREE ENERGY PREDICTED BY IDOCK:   -0.50 KCAL/MOL
REMARK 927      BINDING AFFINITY PREDICTED BY RF-SCORE:    0.00 PKD
ROOT
HETATM    1  C   UNL     1     -12.900  14.998  70.718  1.00  0.00    -0.447 C  
HETATM    2  C   UNL     1     -12.515  13.730  69.969  1.00  0.00    -0.301 C  
ENDROOT
BRANCH   2   3
HETATM    3  C   UNL     1     -12.123  13.996  68.500  1.00  0.00    -0.294 C  
BRANCH   3   4
HETATM    4  N   UNL     1     -11.283  12.969  67.832  1.00  0.00    -0.257 NA 
BRANCH   4   5
HETATM    5  C   UNL     1      -9.845  13.025  68.306  1.00  0.00    -0.225 C  
BRANCH   5   6
HETATM    6  C   UNL     1      -9.275  14.430  68.079  1.00  0.00    -0.193 C  
HETATM    7  H   UNL     1      -9.060  16.097  69.022  1.00  0.00     0.000 HD 
HETATM    8  O   UNL     1      -9.414  15.227  69.163  1.00  0.00    -0.210 OA 
BRANCH   6   9
HETATM    9  N   UNL     1      -8.751  14.793  66.961  1.00  0.00    -0.223 NA 
HETATM   10  H   UNL     1      -8.886  14.199  66.143  1.00  0.00     0.000 HD 
BRANCH   9  11
HETATM   11  C   UNL     1      -7.994  15.983  66.816  1.00  0.00    -0.267 A  
HETATM   12  C   UNL     1      -6.611  16.088  67.108  1.00  0.00    -0.177 A  
HETATM   13  C   UNL     1      -5.922  17.282  66.831  1.00  0.00    -0.214 A  
HETATM   14  C   UNL     1      -5.795  15.001  67.744  1.00  0.00    -0.125 C  
HETATM   15  C   UNL     1      -6.553  18.349  66.212  1.00  0.00    -0.255 A  
HETATM   16  C   UNL     1      -7.901  18.253  65.891  1.00  0.00    -0.082 A  
HETATM   17  C   UNL     1      -8.630  17.088  66.196  1.00  0.00    -0.252 A  
HETATM   18  C   UNL     1     -10.095  17.058  65.838  1.00  0.00    -0.281 C  
ENDBRANCH   9  11
ENDBRANCH   6   9
ENDBRANCH   5   6
BRANCH   5  19
HETATM   19  C   UNL     1      -8.872  12.030  67.615  1.00  0.00    -0.172 C  
HETATM   20  C   UNL     1      -9.241  10.550  67.737  1.00  0.00    -0.151 C  
ENDBRANCH   5  19
ENDBRANCH   4   5
BRANCH   4  21
HETATM   21  C   UNL     1     -11.376  13.102  66.353  1.00  0.00    -0.315 C  
HETATM   22  C   UNL     1     -12.492  13.979  65.784  1.00  0.00    -0.523 C  
ENDBRANCH   4  21
ENDBRANCH   3   4
ENDBRANCH   2   3
TORSDOF 8
ENDMDL
MODEL      302
REMARK 921   NORMALIZED FREE ENERGY PREDICTED BY IDOCK:   -3.05 KCAL/MOL
REMARK 922        TOTAL FREE ENERGY PREDICTED BY IDOCK:   -5.44 KCAL/MOL
REMARK 923 INTER-LIGAND FREE ENERGY PREDICTED BY IDOCK:   -4.95 KCAL/MOL
REMARK 924 INTRA-LIGAND FREE ENERGY PREDICTED BY IDOCK:   -0.49 KCAL/MOL
REMARK 927      BINDING AFFINITY PREDICTED BY RF-SCORE:    0.00 PKD
ROOT
HETATM    1  C   UNL     1     -11.620  12.078  69.465  1.00  0.00    -0.389 C  
HETATM    2  C   UNL     1     -12.264  11.030  70.361  1.00  0.00    -0.461 C  
ENDROOT
BRANCH   2   3
HETATM    3  C   UNL     1     -11.297   9.891  70.745  1.00  0.00    -0.353 C  
BRANCH   3   4
HETATM    4  N   UNL     1     -11.735   8.973  71.828  1.00  0.00    -0.347 NA 
BRANCH   4   5
HETATM    5  C   UNL     1     -11.754   7.530  71.368  1.00  0.00    -0.283 C  
BRANCH   5   6
HETATM    6  C   UNL     1     -11.489   6.600  72.557  1.00  0.00    -0.231 C  
HETATM    7  H   UNL     1     -12.223   5.014  73.373  1.00  0.00     0.000 HD 
HETATM    8  O   UNL     1     -12.387   5.591  72.636  1.00  0.00    -0.085 OA 
BRANCH   6   9
HETATM    9  N   UNL     1     -10.527   6.794  73.390  1.00  0.00    -0.280 NA 
HETATM   10  H   UNL     1     -10.707   7.359  74.219  1.00  0.00     0.000 HD 
BRANCH   9  11
HETATM   11  C   UNL     1      -9.228   6.257  73.206  1.00  0.00    -0.131 A  
HETATM   12  C   UNL     1      -8.101   7.017  72.805  1.00  0.00    -0.116 A  
HETATM   13  C   UNL     1      -6.830   6.417  72.751  1.00  0.00    -0.070 A  
HETATM   14  C   UNL     1      -8.157   8.456  72.382  1.00  0.00    -0.185 C  
HETATM   15  C   UNL     1      -6.638   5.103  73.149  1.00  0.00    -0.066 A  
HETATM   16  C   UNL     1      -7.727   4.352  73.574  1.00  0.00    -0.083 A  
HETATM   17  C   UNL     1      -9.019   4.910  73.595  1.00  0.00    -0.107 A  
HETATM   18  C   UNL     1     -10.159   4.033  74.049  1.00  0.00    -0.200 C  
ENDBRANCH   9  11
ENDBRANCH   6   9
ENDBRANCH   5   6
BRANCH   5  19
HETATM   19  C   UNL     1     -10.714   7.163  70.273  1.00  0.00    -0.258 C  
HETATM   20  C   UNL     1     -10.972   5.853  69.526  1.00  0.00    -0.438 C  
ENDBRANCH   5  19
ENDBRANCH   4   5
BRANCH   4  21
HETATM   21  C   UNL     1     -13.060   9.393  72.362  1.00  0.00    -0.379 C  
HETATM   22  C   UNL     1     -14.296   8.632  71.881  1.00  0.00    -0.492 C  
ENDBRANCH   4  21
ENDBRANCH   3   4
ENDBRANCH   2   3
TORSDOF 8
ENDMDL
MODEL      303
REMARK 921   NORMALIZED FREE ENERGY PREDICTED BY IDOCK:   -3.04 KCAL/MOL
REMARK 922        TOTAL FREE ENERGY PREDICTED BY IDOCK:   -5.43 KCAL/MOL
REMARK 923 INTER-LIGAND FREE ENERGY PREDICTED BY IDOCK:   -4.24 KCAL/MOL
REMARK 924 INTRA-LIGAND FREE ENERGY PREDICTED BY IDOCK:   -1.19 KCAL/MOL
REMARK 927      BINDING AFFINITY PREDICTED BY RF-SCORE:    0.00 PKD
ROOT
HETATM    1  C   UNL     1     -13.540   9.541  71.477  1.00  0.00    -0.397 C  
HETATM    2  C   UNL     1     -12.175  10.213  71.412  1.00  0.00    -0.492 C  
ENDROOT
BRANCH   2   3
HETATM    3  C   UNL     1     -11.275   9.635  70.299  1.00  0.00    -0.271 C  
BRANCH   3   4
HETATM    4  N   UNL     1     -10.062   8.895  70.733  1.00  0.00    -0.209 NA 
BRANCH   4   5
HETATM    5  C   UNL     1      -9.805   7.681  69.864  1.00  0.00    -0.184 C  
BRANCH   5   6
HETATM    6  C   UNL     1      -8.296   7.458  69.712  1.00  0.00    -0.134 C  
HETATM    7  H   UNL     1      -6.706   8.443  69.248  1.00  0.00     0.000 HD 
HETATM    8  O   UNL     1      -7.641   8.582  69.341  1.00  0.00    -0.086 OA 
BRANCH   6   9
HETATM    9  N   UNL     1      -7.742   6.311  69.899  1.00  0.00    -0.102 NA 
HETATM   10  H   UNL     1      -6.975   6.244  70.568  1.00  0.00     0.000 HD 
BRANCH   9  11
HETATM   11  C   UNL     1      -8.149   5.138  69.216  1.00  0.00    -0.084 A  
HETATM   12  C   UNL     1      -8.967   4.128  69.785  1.00  0.00    -0.156 A  
HETATM   13  C   UNL     1      -9.407   3.051  68.995  1.00  0.00    -0.226 A  
HETATM   14  C   UNL     1      -9.390   4.093  71.223  1.00  0.00    -0.218 C  
HETATM   15  C   UNL     1      -9.114   2.985  67.642  1.00  0.00    -0.219 A  
HETATM   16  C   UNL     1      -8.339   3.981  67.061  1.00  0.00    -0.100 A  
HETATM   17  C   UNL     1      -7.845   5.048  67.834  1.00  0.00    -0.090 A  
HETATM   18  C   UNL     1      -6.994   6.085  67.145  1.00  0.00    -0.069 C  
ENDBRANCH   9  11
ENDBRANCH   6   9
ENDBRANCH   5   6
BRANCH   5  19
HETATM   19  C   UNL     1     -10.394   7.749  68.427  1.00  0.00    -0.231 C  
HETATM   20  C   UNL     1     -11.107   6.486  67.943  1.00  0.00    -0.352 C  
ENDBRANCH   5  19
ENDBRANCH   4   5
BRANCH   4  21
HETATM   21  C   UNL     1     -10.164   8.525  72.171  1.00  0.00    -0.333 C  
HETATM   22  C   UNL     1     -10.784   7.170  72.516  1.00  0.00    -0.285 C  
ENDBRANCH   4  21
ENDBRANCH   3   4
ENDBRANCH   2   3
TORSDOF 8
ENDMDL
MODEL      304
REMARK 921   NORMALIZED FREE ENERGY PREDICTED BY IDOCK:   -3.01 KCAL/MOL
REMARK 922        TOTAL FREE ENERGY PREDICTED BY IDOCK:   -5.39 KCAL/MOL
REMARK 923 INTER-LIGAND FREE ENERGY PREDICTED BY IDOCK:   -5.20 KCAL/MOL
REMARK 924 INTRA-LIGAND FREE ENERGY PREDICTED BY IDOCK:   -0.20 KCAL/MOL
REMARK 927      BINDING AFFINITY PREDICTED BY RF-SCORE:    0.00 PKD
ROOT
HETATM    1  C   UNL     1     -12.667  13.328  70.816  1.00  0.00    -0.284 C  
HETATM    2  C   UNL     1     -11.818  12.244  70.168  1.00  0.00    -0.352 C  
ENDROOT
BRANCH   2   3
HETATM    3  C   UNL     1     -11.864  12.287  68.626  1.00  0.00    -0.305 C  
BRANCH   3   4
HETATM    4  N   UNL     1     -10.576  12.100  67.910  1.00  0.00    -0.201 NA 
BRANCH   4   5
HETATM    5  C   UNL     1      -9.608  13.232  68.191  1.00  0.00    -0.227 C  
BRANCH   5   6
HETATM    6  C   UNL     1      -9.875  14.396  67.230  1.00  0.00    -0.247 C  
HETATM    7  H   UNL     1      -9.199  15.118  65.575  1.00  0.00     0.000 HD 
HETATM    8  O   UNL     1      -9.033  14.397  66.171  1.00  0.00    -0.106 OA 
BRANCH   6   9
HETATM    9  N   UNL     1     -10.789  15.277  67.443  1.00  0.00    -0.298 NA 
HETATM   10  H   UNL     1     -11.711  14.959  67.742  1.00  0.00     0.000 HD 
BRANCH   9  11
HETATM   11  C   UNL     1     -10.572  16.668  67.281  1.00  0.00    -0.281 A  
HETATM   12  C   UNL     1     -10.725  17.361  66.054  1.00  0.00    -0.122 A  
HETATM   13  C   UNL     1     -10.591  18.760  66.015  1.00  0.00    -0.442 A  
HETATM   14  C   UNL     1     -10.996  16.698  64.736  1.00  0.00    -0.123 C  
HETATM   15  C   UNL     1     -10.375  19.494  67.170  1.00  0.00    -0.568 A  
HETATM   16  C   UNL     1     -10.252  18.835  68.386  1.00  0.00    -0.413 A  
HETATM   17  C   UNL     1     -10.336  17.431  68.453  1.00  0.00    -0.379 A  
HETATM   18  C   UNL     1     -10.174  16.777  69.802  1.00  0.00     0.005 C  
ENDBRANCH   9  11
ENDBRANCH   6   9
ENDBRANCH   5   6
BRANCH   5  19
HETATM   19  C   UNL     1      -8.102  12.875  68.054  1.00  0.00    -0.159 C  
HETATM   20  C   UNL     1      -7.598  11.764  68.977  1.00  0.00     0.004 C  
ENDBRANCH   5  19
ENDBRANCH   4   5
BRANCH   4  21
HETATM   21  C   UNL     1     -10.811  11.932  66.451  1.00  0.00    -0.279 C  
HETATM   22  C   UNL     1     -12.107  12.496  65.867  1.00  0.00    -0.420 C  
ENDBRANCH   4  21
ENDBRANCH   3   4
ENDBRANCH   2   3
TORSDOF 8
ENDMDL
MODEL      305
REMARK 921   NORMALIZED FREE ENERGY PREDICTED BY IDOCK:   -3.00 KCAL/MOL
REMARK 922        TOTAL FREE ENERGY PREDICTED BY IDOCK:   -5.38 KCAL/MOL
REMARK 923 INTER-LIGAND FREE ENERGY PREDICTED BY IDOCK:   -4.41 KCAL/MOL
REMARK 924 INTRA-LIGAND FREE ENERGY PREDICTED BY IDOCK:   -0.97 KCAL/MOL
REMARK 927      BINDING AFFINITY PREDICTED BY RF-SCORE:    0.00 PKD
ROOT
HETATM    1  C   UNL     1      -7.885   9.302  66.014  1.00  0.00    -0.102 C  
HETATM    2  C   UNL     1      -7.930  10.807  65.793  1.00  0.00    -0.122 C  
ENDROOT
BRANCH   2   3
HETATM    3  C   UNL     1      -8.697  11.555  66.904  1.00  0.00    -0.181 C  
BRANCH   3   4
HETATM    4  N   UNL     1      -8.004  12.703  67.543  1.00  0.00    -0.163 NA 
BRANCH   4   5
HETATM    5  C   UNL     1      -8.576  14.029  67.084  1.00  0.00    -0.205 C  
BRANCH   5   6
HETATM    6  C   UNL     1      -8.973  14.874  68.300  1.00  0.00    -0.177 C  
HETATM    7  H   UNL     1     -10.280  14.885  69.718  1.00  0.00     0.000 HD 
HETATM    8  O   UNL     1     -10.034  14.361  68.964  1.00  0.00    -0.209 OA 
BRANCH   6   9
HETATM    9  N   UNL     1      -8.363  15.962  68.619  1.00  0.00    -0.182 NA 
HETATM   10  H   UNL     1      -7.659  15.928  69.355  1.00  0.00     0.000 HD 
BRANCH   9  11
HETATM   11  C   UNL     1      -8.625  17.205  67.990  1.00  0.00    -0.227 A  
HETATM   12  C   UNL     1      -7.880  17.720  66.900  1.00  0.00    -0.250 A  
HETATM   13  C   UNL     1      -8.282  18.914  66.274  1.00  0.00    -0.283 A  
HETATM   14  C   UNL     1      -6.629  17.093  66.358  1.00  0.00    -0.251 C  
HETATM   15  C   UNL     1      -9.439  19.572  66.658  1.00  0.00    -0.439 A  
HETATM   16  C   UNL     1     -10.198  19.066  67.705  1.00  0.00    -0.478 A  
HETATM   17  C   UNL     1      -9.799  17.898  68.381  1.00  0.00    -0.355 A  
HETATM   18  C   UNL     1     -10.659  17.414  69.522  1.00  0.00     0.104 C  
ENDBRANCH   9  11
ENDBRANCH   6   9
ENDBRANCH   5   6
BRANCH   5  19
HETATM   19  C   UNL     1      -9.833  13.938  66.174  1.00  0.00    -0.316 C  
HETATM   20  C   UNL     1     -10.232  15.233  65.465  1.00  0.00    -0.417 C  
ENDBRANCH   5  19
ENDBRANCH   4   5
BRANCH   4  21
HETATM   21  C   UNL     1      -6.538  12.628  67.299  1.00  0.00    -0.104 C  
HETATM   22  C   UNL     1      -5.609  12.710  68.511  1.00  0.00    -0.057 C  
ENDBRANCH   4  21
ENDBRANCH   3   4
ENDBRANCH   2   3
TORSDOF 8
ENDMDL
MODEL      306
REMARK 921   NORMALIZED FREE ENERGY PREDICTED BY IDOCK:   -3.00 KCAL/MOL
REMARK 922        TOTAL FREE ENERGY PREDICTED BY IDOCK:   -5.37 KCAL/MOL
REMARK 923 INTER-LIGAND FREE ENERGY PREDICTED BY IDOCK:   -4.49 KCAL/MOL
REMARK 924 INTRA-LIGAND FREE ENERGY PREDICTED BY IDOCK:   -0.88 KCAL/MOL
REMARK 927      BINDING AFFINITY PREDICTED BY RF-SCORE:    0.00 PKD
ROOT
HETATM    1  C   UNL     1     -11.898  12.005  69.883  1.00  0.00    -0.405 C  
HETATM    2  C   UNL     1     -11.704  11.869  68.380  1.00  0.00    -0.387 C  
ENDROOT
BRANCH   2   3
HETATM    3  C   UNL     1     -11.070  10.521  67.976  1.00  0.00    -0.300 C  
BRANCH   3   4
HETATM    4  N   UNL     1     -10.555  10.410  66.587  1.00  0.00    -0.211 NA 
BRANCH   4   5
HETATM    5  C   UNL     1      -9.064  10.142  66.561  1.00  0.00    -0.144 C  
BRANCH   5   6
HETATM    6  C   UNL     1      -8.803   8.635  66.664  1.00  0.00    -0.133 C  
HETATM    7  H   UNL     1      -7.583   7.412  67.520  1.00  0.00     0.000 HD 
HETATM    8  O   UNL     1      -7.744   8.346  67.456  1.00  0.00    -0.096 OA 
BRANCH   6   9
HETATM    9  N   UNL     1      -9.513   7.763  66.038  1.00  0.00    -0.411 NA 
HETATM   10  H   UNL     1     -10.219   8.092  65.379  1.00  0.00     0.000 HD 
BRANCH   9  11
HETATM   11  C   UNL     1      -9.356   6.367  66.221  1.00  0.00    -0.118 A  
HETATM   12  C   UNL     1     -10.051   5.608  67.195  1.00  0.00    -0.215 A  
HETATM   13  C   UNL     1      -9.910   4.209  67.231  1.00  0.00    -0.171 A  
HETATM   14  C   UNL     1     -10.935   6.197  68.255  1.00  0.00    -0.397 C  
HETATM   15  C   UNL     1      -9.149   3.539  66.286  1.00  0.00    -0.161 A  
HETATM   16  C   UNL     1      -8.485   4.264  65.305  1.00  0.00    -0.115 A  
HETATM   17  C   UNL     1      -8.570   5.669  65.269  1.00  0.00    -0.141 A  
HETATM   18  C   UNL     1      -7.807   6.395  64.190  1.00  0.00    -0.116 C  
ENDBRANCH   9  11
ENDBRANCH   6   9
ENDBRANCH   5   6
BRANCH   5  19
HETATM   19  C   UNL     1      -8.242  10.818  67.694  1.00  0.00    -0.115 C  
HETATM   20  C   UNL     1      -7.369  11.998  67.265  1.00  0.00    -0.151 C  
ENDBRANCH   5  19
ENDBRANCH   4   5
BRANCH   4  21
HETATM   21  C   UNL     1     -10.905  11.626  65.803  1.00  0.00    -0.281 C  
HETATM   22  C   UNL     1     -10.725  11.573  64.285  1.00  0.00    -0.416 C  
ENDBRANCH   4  21
ENDBRANCH   3   4
ENDBRANCH   2   3
TORSDOF 8
ENDMDL
MODEL      307
REMARK 921   NORMALIZED FREE ENERGY PREDICTED BY IDOCK:   -2.99 KCAL/MOL
REMARK 922        TOTAL FREE ENERGY PREDICTED BY IDOCK:   -5.36 KCAL/MOL
REMARK 923 INTER-LIGAND FREE ENERGY PREDICTED BY IDOCK:   -6.29 KCAL/MOL
REMARK 924 INTRA-LIGAND FREE ENERGY PREDICTED BY IDOCK:    0.92 KCAL/MOL
REMARK 927      BINDING AFFINITY PREDICTED BY RF-SCORE:    0.00 PKD
ROOT
HETATM    1  C   UNL     1     -14.410  14.902  71.904  1.00  0.00    -0.667 C  
HETATM    2  C   UNL     1     -13.608  13.608  71.905  1.00  0.00    -0.512 C  
ENDROOT
BRANCH   2   3
HETATM    3  C   UNL     1     -12.273  13.728  71.140  1.00  0.00    -0.278 C  
BRANCH   3   4
HETATM    4  N   UNL     1     -11.820  12.531  70.387  1.00  0.00    -0.249 NA 
BRANCH   4   5
HETATM    5  C   UNL     1     -11.951  12.727  68.890  1.00  0.00    -0.244 C  
BRANCH   5   6
HETATM    6  C   UNL     1     -10.886  11.900  68.160  1.00  0.00    -0.221 C  
HETATM    7  H   UNL     1      -8.972  11.676  68.123  1.00  0.00     0.000 HD 
HETATM    8  O   UNL     1      -9.631  12.189  68.575  1.00  0.00    -0.198 OA 
BRANCH   6   9
HETATM    9  N   UNL     1     -11.179  11.048  67.241  1.00  0.00    -0.385 NA 
HETATM   10  H   UNL     1     -11.958  10.409  67.399  1.00  0.00     0.000 HD 
BRANCH   9  11
HETATM   11  C   UNL     1     -10.468  10.959  66.018  1.00  0.00    -0.225 A  
HETATM   12  C   UNL     1      -9.838   9.780  65.546  1.00  0.00    -0.378 A  
HETATM   13  C   UNL     1      -9.247   9.760  64.270  1.00  0.00    -0.286 A  
HETATM   14  C   UNL     1      -9.715   8.511  66.338  1.00  0.00    -0.328 C  
HETATM   15  C   UNL     1      -9.323  10.856  63.426  1.00  0.00    -0.308 A  
HETATM   16  C   UNL     1      -9.962  12.010  63.860  1.00  0.00    -0.343 A  
HETATM   17  C   UNL     1     -10.524  12.078  65.149  1.00  0.00    -0.328 A  
HETATM   18  C   UNL     1     -11.186  13.368  65.563  1.00  0.00    -0.303 C  
ENDBRANCH   9  11
ENDBRANCH   6   9
ENDBRANCH   5   6
BRANCH   5  19
HETATM   19  C   UNL     1     -11.799  14.191  68.391  1.00  0.00    -0.388 C  
HETATM   20  C   UNL     1     -10.581  14.949  68.924  1.00  0.00    -0.247 C  
ENDBRANCH   5  19
ENDBRANCH   4   5
BRANCH   4  21
HETATM   21  C   UNL     1     -12.554  11.319  70.844  1.00  0.00    -0.371 C  
HETATM   22  C   UNL     1     -11.778  10.280  71.655  1.00  0.00    -0.026 C  
ENDBRANCH   4  21
ENDBRANCH   3   4
ENDBRANCH   2   3
TORSDOF 8
ENDMDL
MODEL      308
REMARK 921   NORMALIZED FREE ENERGY PREDICTED BY IDOCK:   -2.99 KCAL/MOL
REMARK 922        TOTAL FREE ENERGY PREDICTED BY IDOCK:   -5.36 KCAL/MOL
REMARK 923 INTER-LIGAND FREE ENERGY PREDICTED BY IDOCK:   -5.00 KCAL/MOL
REMARK 924 INTRA-LIGAND FREE ENERGY PREDICTED BY IDOCK:   -0.36 KCAL/MOL
REMARK 927      BINDING AFFINITY PREDICTED BY RF-SCORE:    0.00 PKD
ROOT
HETATM    1  C   UNL     1      -9.653  15.290  65.701  1.00  0.00    -0.313 C  
HETATM    2  C   UNL     1      -9.197  14.524  66.934  1.00  0.00    -0.267 C  
ENDROOT
BRANCH   2   3
HETATM    3  C   UNL     1      -9.534  13.019  66.864  1.00  0.00    -0.242 C  
BRANCH   3   4
HETATM    4  N   UNL     1      -9.795  12.329  68.154  1.00  0.00    -0.207 NA 
BRANCH   4   5
HETATM    5  C   UNL     1      -9.152  10.958  68.196  1.00  0.00    -0.155 C  
BRANCH   5   6
HETATM    6  C   UNL     1     -10.146   9.932  68.752  1.00  0.00    -0.174 C  
HETATM    7  H   UNL     1     -11.440   8.650  68.121  1.00  0.00     0.000 HD 
HETATM    8  O   UNL     1     -10.824   9.286  67.776  1.00  0.00    -0.237 OA 
BRANCH   6   9
HETATM    9  N   UNL     1     -10.316   9.744  70.014  1.00  0.00    -0.245 NA 
HETATM   10  H   UNL     1      -9.898  10.407  70.666  1.00  0.00     0.000 HD 
BRANCH   9  11
HETATM   11  C   UNL     1     -11.059   8.656  70.538  1.00  0.00    -0.242 A  
HETATM   12  C   UNL     1     -10.538   7.350  70.722  1.00  0.00    -0.234 A  
HETATM   13  C   UNL     1     -11.319   6.362  71.348  1.00  0.00    -0.354 A  
HETATM   14  C   UNL     1      -9.182   6.906  70.256  1.00  0.00    -0.156 C  
HETATM   15  C   UNL     1     -12.576   6.654  71.854  1.00  0.00    -0.303 A  
HETATM   16  C   UNL     1     -13.090   7.936  71.710  1.00  0.00    -0.352 A  
HETATM   17  C   UNL     1     -12.352   8.935  71.048  1.00  0.00    -0.214 A  
HETATM   18  C   UNL     1     -12.978  10.300  70.909  1.00  0.00    -0.456 C  
ENDBRANCH   9  11
ENDBRANCH   6   9
ENDBRANCH   5   6
BRANCH   5  19
HETATM   19  C   UNL     1      -7.865  10.848  69.060  1.00  0.00    -0.138 C  
HETATM   20  C   UNL     1      -6.608  11.480  68.460  1.00  0.00    -0.063 C  
ENDBRANCH   5  19
ENDBRANCH   4   5
BRANCH   4  21
HETATM   21  C   UNL     1     -11.258  12.254  68.418  1.00  0.00    -0.266 C  
HETATM   22  C   UNL     1     -11.899  13.394  69.210  1.00  0.00    -0.385 C  
ENDBRANCH   4  21
ENDBRANCH   3   4
ENDBRANCH   2   3
TORSDOF 8
ENDMDL
MODEL      309
REMARK 921   NORMALIZED FREE ENERGY PREDICTED BY IDOCK:   -2.98 KCAL/MOL
REMARK 922        TOTAL FREE ENERGY PREDICTED BY IDOCK:   -5.35 KCAL/MOL
REMARK 923 INTER-LIGAND FREE ENERGY PREDICTED BY IDOCK:   -4.37 KCAL/MOL
REMARK 924 INTRA-LIGAND FREE ENERGY PREDICTED BY IDOCK:   -0.98 KCAL/MOL
REMARK 927      BINDING AFFINITY PREDICTED BY RF-SCORE:    0.00 PKD
ROOT
HETATM    1  C   UNL     1      -8.207   8.516  64.882  1.00  0.00    -0.166 C  
HETATM    2  C   UNL     1      -8.921   9.385  65.908  1.00  0.00    -0.217 C  
ENDROOT
BRANCH   2   3
HETATM    3  C   UNL     1      -7.952  10.063  66.899  1.00  0.00    -0.113 C  
BRANCH   3   4
HETATM    4  N   UNL     1      -8.546  10.632  68.137  1.00  0.00    -0.119 NA 
BRANCH   4   5
HETATM    5  C   UNL     1      -7.772  11.839  68.626  1.00  0.00    -0.126 C  
BRANCH   5   6
HETATM    6  C   UNL     1      -7.923  12.995  67.631  1.00  0.00    -0.169 C  
HETATM    7  H   UNL     1      -6.836  14.083  66.469  1.00  0.00     0.000 HD 
HETATM    8  O   UNL     1      -6.742  13.367  67.086  1.00  0.00    -0.165 OA 
BRANCH   6   9
HETATM    9  N   UNL     1      -9.057  13.549  67.377  1.00  0.00    -0.209 NA 
HETATM   10  H   UNL     1      -9.338  13.661  66.404  1.00  0.00     0.000 HD 
BRANCH   9  11
HETATM   11  C   UNL     1      -9.933  14.010  68.392  1.00  0.00    -0.236 A  
HETATM   12  C   UNL     1      -9.664  15.119  69.233  1.00  0.00    -0.225 A  
HETATM   13  C   UNL     1     -10.641  15.567  70.140  1.00  0.00    -0.336 A  
HETATM   14  C   UNL     1      -8.361  15.862  69.264  1.00  0.00    -0.238 C  
HETATM   15  C   UNL     1     -11.899  14.988  70.187  1.00  0.00    -0.357 A  
HETATM   16  C   UNL     1     -12.190  13.919  69.348  1.00  0.00    -0.338 A  
HETATM   17  C   UNL     1     -11.219  13.418  68.461  1.00  0.00    -0.316 A  
HETATM   18  C   UNL     1     -11.595  12.244  67.593  1.00  0.00    -0.421 C  
ENDBRANCH   9  11
ENDBRANCH   6   9
ENDBRANCH   5   6
BRANCH   5  19
HETATM   19  C   UNL     1      -6.247  11.619  68.829  1.00  0.00    -0.052 C  
HETATM   20  C   UNL     1      -5.772  11.569  70.282  1.00  0.00    -0.148 C  
ENDBRANCH   5  19
ENDBRANCH   4   5
BRANCH   4  21
HETATM   21  C   UNL     1      -8.653   9.587  69.191  1.00  0.00    -0.140 C  
HETATM   22  C   UNL     1      -9.783   9.719  70.213  1.00  0.00    -0.279 C  
ENDBRANCH   4  21
ENDBRANCH   3   4
ENDBRANCH   2   3
TORSDOF 8
ENDMDL
MODEL      310
REMARK 921   NORMALIZED FREE ENERGY PREDICTED BY IDOCK:   -2.98 KCAL/MOL
REMARK 922        TOTAL FREE ENERGY PREDICTED BY IDOCK:   -5.34 KCAL/MOL
REMARK 923 INTER-LIGAND FREE ENERGY PREDICTED BY IDOCK:   -4.60 KCAL/MOL
REMARK 924 INTRA-LIGAND FREE ENERGY PREDICTED BY IDOCK:   -0.74 KCAL/MOL
REMARK 927      BINDING AFFINITY PREDICTED BY RF-SCORE:    0.00 PKD
ROOT
HETATM    1  C   UNL     1     -11.426   7.891  72.601  1.00  0.00    -0.454 C  
HETATM    2  C   UNL     1     -12.271   7.234  71.519  1.00  0.00    -0.387 C  
ENDROOT
BRANCH   2   3
HETATM    3  C   UNL     1     -11.430   6.710  70.336  1.00  0.00    -0.386 C  
BRANCH   3   4
HETATM    4  N   UNL     1     -10.118   7.367  70.100  1.00  0.00    -0.195 NA 
BRANCH   4   5
HETATM    5  C   UNL     1      -9.982   7.851  68.671  1.00  0.00    -0.191 C  
BRANCH   5   6
HETATM    6  C   UNL     1     -10.142   9.375  68.618  1.00  0.00    -0.190 C  
HETATM    7  H   UNL     1     -10.759  10.825  69.729  1.00  0.00     0.000 HD 
HETATM    8  O   UNL     1     -10.661   9.880  69.761  1.00  0.00    -0.227 OA 
BRANCH   6   9
HETATM    9  N   UNL     1      -9.834  10.070  67.580  1.00  0.00    -0.169 NA 
HETATM   10  H   UNL     1      -9.800   9.603  66.674  1.00  0.00     0.000 HD 
BRANCH   9  11
HETATM   11  C   UNL     1      -9.541  11.455  67.639  1.00  0.00    -0.169 A  
HETATM   12  C   UNL     1     -10.478  12.481  67.354  1.00  0.00    -0.231 A  
HETATM   13  C   UNL     1     -10.125  13.829  67.543  1.00  0.00    -0.241 A  
HETATM   14  C   UNL     1     -11.857  12.242  66.814  1.00  0.00    -0.349 C  
HETATM   15  C   UNL     1      -8.892  14.182  68.070  1.00  0.00    -0.182 A  
HETATM   16  C   UNL     1      -7.973  13.189  68.382  1.00  0.00    -0.130 A  
HETATM   17  C   UNL     1      -8.279  11.833  68.162  1.00  0.00    -0.153 A  
HETATM   18  C   UNL     1      -7.228  10.807  68.506  1.00  0.00    -0.088 C  
ENDBRANCH   9  11
ENDBRANCH   6   9
ENDBRANCH   5   6
BRANCH   5  19
HETATM   19  C   UNL     1     -11.006   7.258  67.663  1.00  0.00    -0.181 C  
HETATM   20  C   UNL     1     -10.458   6.192  66.712  1.00  0.00    -0.316 C  
ENDBRANCH   5  19
ENDBRANCH   4   5
BRANCH   4  21
HETATM   21  C   UNL     1      -9.004   6.455  70.476  1.00  0.00    -0.151 C  
HETATM   22  C   UNL     1      -9.296   4.955  70.524  1.00  0.00    -0.216 C  
ENDBRANCH   4  21
ENDBRANCH   3   4
ENDBRANCH   2   3
TORSDOF 8
ENDMDL
MODEL      311
REMARK 921   NORMALIZED FREE ENERGY PREDICTED BY IDOCK:   -2.98 KCAL/MOL
REMARK 922        TOTAL FREE ENERGY PREDICTED BY IDOCK:   -5.34 KCAL/MOL
REMARK 923 INTER-LIGAND FREE ENERGY PREDICTED BY IDOCK:   -5.65 KCAL/MOL
REMARK 924 INTRA-LIGAND FREE ENERGY PREDICTED BY IDOCK:    0.31 KCAL/MOL
REMARK 927      BINDING AFFINITY PREDICTED BY RF-SCORE:    0.00 PKD
ROOT
HETATM    1  C   UNL     1     -11.951  11.936  69.837  1.00  0.00    -0.398 C  
HETATM    2  C   UNL     1     -12.487  11.200  71.057  1.00  0.00    -0.506 C  
ENDROOT
BRANCH   2   3
HETATM    3  C   UNL     1     -12.037   9.726  71.115  1.00  0.00    -0.370 C  
BRANCH   3   4
HETATM    4  N   UNL     1     -12.167   9.034  72.423  1.00  0.00    -0.305 NA 
BRANCH   4   5
HETATM    5  C   UNL     1     -11.197   7.876  72.544  1.00  0.00    -0.376 C  
BRANCH   5   6
HETATM    6  C   UNL     1      -9.891   8.211  71.816  1.00  0.00    -0.194 C  
HETATM    7  H   UNL     1      -8.364   9.373  72.002  1.00  0.00     0.000 HD 
HETATM    8  O   UNL     1      -9.173   9.166  72.453  1.00  0.00    -0.194 OA 
BRANCH   6   9
HETATM    9  N   UNL     1      -9.549   7.651  70.709  1.00  0.00    -0.166 NA 
HETATM   10  H   UNL     1      -9.153   6.712  70.740  1.00  0.00     0.000 HD 
BRANCH   9  11
HETATM   11  C   UNL     1      -9.699   8.280  69.448  1.00  0.00    -0.177 A  
HETATM   12  C   UNL     1      -8.972   9.425  69.037  1.00  0.00    -0.141 A  
HETATM   13  C   UNL     1      -9.113   9.916  67.727  1.00  0.00    -0.138 A  
HETATM   14  C   UNL     1      -8.055  10.211  69.928  1.00  0.00    -0.139 C  
HETATM   15  C   UNL     1      -9.903   9.261  66.795  1.00  0.00    -0.289 A  
HETATM   16  C   UNL     1     -10.599   8.120  67.171  1.00  0.00    -0.355 A  
HETATM   17  C   UNL     1     -10.515   7.630  68.488  1.00  0.00    -0.206 A  
HETATM   18  C   UNL     1     -11.313   6.397  68.834  1.00  0.00    -0.292 C  
ENDBRANCH   9  11
ENDBRANCH   6   9
ENDBRANCH   5   6
BRANCH   5  19
HETATM   19  C   UNL     1     -11.696   6.522  71.967  1.00  0.00    -0.367 C  
HETATM   20  C   UNL     1     -11.483   5.301  72.864  1.00  0.00    -0.339 C  
ENDBRANCH   5  19
ENDBRANCH   4   5
BRANCH   4  21
HETATM   21  C   UNL     1     -13.572   8.595  72.643  1.00  0.00    -0.226 C  
HETATM   22  C   UNL     1     -14.376   8.142  71.424  1.00  0.00    -0.472 C  
ENDBRANCH   4  21
ENDBRANCH   3   4
ENDBRANCH   2   3
TORSDOF 8
ENDMDL
MODEL      312
REMARK 921   NORMALIZED FREE ENERGY PREDICTED BY IDOCK:   -2.96 KCAL/MOL
REMARK 922        TOTAL FREE ENERGY PREDICTED BY IDOCK:   -5.32 KCAL/MOL
REMARK 923 INTER-LIGAND FREE ENERGY PREDICTED BY IDOCK:   -4.31 KCAL/MOL
REMARK 924 INTRA-LIGAND FREE ENERGY PREDICTED BY IDOCK:   -1.01 KCAL/MOL
REMARK 927      BINDING AFFINITY PREDICTED BY RF-SCORE:    0.00 PKD
ROOT
HETATM    1  C   UNL     1     -10.879   7.409  67.105  1.00  0.00    -0.340 C  
HETATM    2  C   UNL     1      -9.811   8.352  66.569  1.00  0.00    -0.338 C  
ENDROOT
BRANCH   2   3
HETATM    3  C   UNL     1      -8.740   8.706  67.623  1.00  0.00    -0.136 C  
BRANCH   3   4
HETATM    4  N   UNL     1      -8.847   8.033  68.943  1.00  0.00    -0.141 NA 
BRANCH   4   5
HETATM    5  C   UNL     1      -8.636   9.003  70.087  1.00  0.00    -0.160 C  
BRANCH   5   6
HETATM    6  C   UNL     1      -9.974   9.299  70.774  1.00  0.00    -0.290 C  
HETATM    7  H   UNL     1     -11.713  10.015  70.354  1.00  0.00     0.000 HD 
HETATM    8  O   UNL     1     -10.884   9.833  69.927  1.00  0.00    -0.239 OA 
BRANCH   6   9
HETATM    9  N   UNL     1     -10.175   9.077  72.026  1.00  0.00    -0.299 NA 
HETATM   10  H   UNL     1     -10.095   9.858  72.678  1.00  0.00     0.000 HD 
BRANCH   9  11
HETATM   11  C   UNL     1     -10.502   7.798  72.539  1.00  0.00    -0.284 A  
HETATM   12  C   UNL     1     -11.720   7.121  72.276  1.00  0.00    -0.296 A  
HETATM   13  C   UNL     1     -11.912   5.808  72.743  1.00  0.00    -0.070 A  
HETATM   14  C   UNL     1     -12.882   7.724  71.542  1.00  0.00    -0.357 C  
HETATM   15  C   UNL     1     -10.902   5.127  73.405  1.00  0.00    -0.359 A  
HETATM   16  C   UNL     1      -9.692   5.764  73.646  1.00  0.00    -0.158 A  
HETATM   17  C   UNL     1      -9.485   7.093  73.231  1.00  0.00    -0.218 A  
HETATM   18  C   UNL     1      -8.154   7.730  73.542  1.00  0.00    -0.218 C  
ENDBRANCH   9  11
ENDBRANCH   6   9
ENDBRANCH   5   6
BRANCH   5  19
HETATM   19  C   UNL     1      -8.021  10.376  69.695  1.00  0.00    -0.129 C  
HETATM   20  C   UNL     1      -6.664  10.697  70.325  1.00  0.00    -0.099 C  
ENDBRANCH   5  19
ENDBRANCH   4   5
BRANCH   4  21
HETATM   21  C   UNL     1      -7.903   6.885  69.019  1.00  0.00    -0.111 C  
HETATM   22  C   UNL     1      -7.032   6.760  70.270  1.00  0.00    -0.066 C  
ENDBRANCH   4  21
ENDBRANCH   3   4
ENDBRANCH   2   3
TORSDOF 8
ENDMDL
MODEL      313
REMARK 921   NORMALIZED FREE ENERGY PREDICTED BY IDOCK:   -2.96 KCAL/MOL
REMARK 922        TOTAL FREE ENERGY PREDICTED BY IDOCK:   -5.32 KCAL/MOL
REMARK 923 INTER-LIGAND FREE ENERGY PREDICTED BY IDOCK:   -3.97 KCAL/MOL
REMARK 924 INTRA-LIGAND FREE ENERGY PREDICTED BY IDOCK:   -1.35 KCAL/MOL
REMARK 927      BINDING AFFINITY PREDICTED BY RF-SCORE:    0.00 PKD
ROOT
HETATM    1  C   UNL     1      -7.556   3.827  64.922  1.00  0.00    -0.077 C  
HETATM    2  C   UNL     1      -7.703   3.993  66.427  1.00  0.00    -0.090 C  
ENDROOT
BRANCH   2   3
HETATM    3  C   UNL     1      -8.956   4.804  66.823  1.00  0.00    -0.111 C  
BRANCH   3   4
HETATM    4  N   UNL     1      -9.735   4.310  67.987  1.00  0.00    -0.139 NA 
BRANCH   4   5
HETATM    5  C   UNL     1      -9.542   5.190  69.206  1.00  0.00    -0.160 C  
BRANCH   5   6
HETATM    6  C   UNL     1     -10.845   5.930  69.528  1.00  0.00    -0.372 C  
HETATM    7  H   UNL     1     -12.262   6.870  68.620  1.00  0.00     0.000 HD 
HETATM    8  O   UNL     1     -11.454   6.412  68.420  1.00  0.00    -0.205 OA 
BRANCH   6   9
HETATM    9  N   UNL     1     -11.278   6.082  70.730  1.00  0.00    -0.295 NA 
HETATM   10  H   UNL     1     -12.259   5.881  70.924  1.00  0.00     0.000 HD 
BRANCH   9  11
HETATM   11  C   UNL     1     -10.453   6.517  71.797  1.00  0.00    -0.211 A  
HETATM   12  C   UNL     1     -10.024   7.856  71.977  1.00  0.00    -0.251 A  
HETATM   13  C   UNL     1      -9.293   8.213  73.125  1.00  0.00    -0.328 A  
HETATM   14  C   UNL     1     -10.263   8.962  70.992  1.00  0.00    -0.322 C  
HETATM   15  C   UNL     1      -9.036   7.292  74.128  1.00  0.00    -0.267 A  
HETATM   16  C   UNL     1      -9.474   5.982  73.982  1.00  0.00    -0.152 A  
HETATM   17  C   UNL     1     -10.168   5.583  72.824  1.00  0.00    -0.216 A  
HETATM   18  C   UNL     1     -10.599   4.141  72.722  1.00  0.00    -0.226 C  
ENDBRANCH   9  11
ENDBRANCH   6   9
ENDBRANCH   5   6
BRANCH   5  19
HETATM   19  C   UNL     1      -8.433   6.272  69.081  1.00  0.00    -0.120 C  
HETATM   20  C   UNL     1      -7.263   6.136  70.057  1.00  0.00    -0.073 C  
ENDBRANCH   5  19
ENDBRANCH   4   5
BRANCH   4  21
HETATM   21  C   UNL     1      -9.394   2.891  68.279  1.00  0.00    -0.195 C  
HETATM   22  C   UNL     1      -8.976   2.537  69.707  1.00  0.00    -0.159 C  
ENDBRANCH   4  21
ENDBRANCH   3   4
ENDBRANCH   2   3
TORSDOF 8
ENDMDL
MODEL      314
REMARK 921   NORMALIZED FREE ENERGY PREDICTED BY IDOCK:   -2.96 KCAL/MOL
REMARK 922        TOTAL FREE ENERGY PREDICTED BY IDOCK:   -5.31 KCAL/MOL
REMARK 923 INTER-LIGAND FREE ENERGY PREDICTED BY IDOCK:   -4.37 KCAL/MOL
REMARK 924 INTRA-LIGAND FREE ENERGY PREDICTED BY IDOCK:   -0.94 KCAL/MOL
REMARK 927      BINDING AFFINITY PREDICTED BY RF-SCORE:    0.00 PKD
ROOT
HETATM    1  C   UNL     1     -10.399  11.340  63.308  1.00  0.00    -0.406 C  
HETATM    2  C   UNL     1      -9.358  10.626  64.158  1.00  0.00    -0.297 C  
ENDROOT
BRANCH   2   3
HETATM    3  C   UNL     1      -9.827  10.391  65.610  1.00  0.00    -0.259 C  
BRANCH   3   4
HETATM    4  N   UNL     1      -9.331   9.164  66.285  1.00  0.00    -0.197 NA 
BRANCH   4   5
HETATM    5  C   UNL     1      -8.388   9.493  67.425  1.00  0.00    -0.125 C  
BRANCH   5   6
HETATM    6  C   UNL     1      -9.073   9.211  68.767  1.00  0.00    -0.136 C  
HETATM    7  H   UNL     1     -10.189  10.103  70.062  1.00  0.00     0.000 HD 
HETATM    8  O   UNL     1      -9.764  10.278  69.230  1.00  0.00    -0.204 OA 
BRANCH   6   9
HETATM    9  N   UNL     1      -8.967   8.082  69.377  1.00  0.00    -0.148 NA 
HETATM   10  H   UNL     1      -8.149   7.502  69.189  1.00  0.00     0.000 HD 
BRANCH   9  11
HETATM   11  C   UNL     1      -9.934   7.610  70.299  1.00  0.00    -0.189 A  
HETATM   12  C   UNL     1      -9.949   7.941  71.677  1.00  0.00    -0.227 A  
HETATM   13  C   UNL     1     -11.010   7.510  72.493  1.00  0.00    -0.362 A  
HETATM   14  C   UNL     1      -8.868   8.713  72.375  1.00  0.00    -0.181 C  
HETATM   15  C   UNL     1     -12.088   6.818  71.964  1.00  0.00    -0.344 A  
HETATM   16  C   UNL     1     -12.105   6.511  70.610  1.00  0.00    -0.265 A  
HETATM   17  C   UNL     1     -11.036   6.889  69.775  1.00  0.00    -0.316 A  
HETATM   18  C   UNL     1     -11.109   6.507  68.318  1.00  0.00    -0.332 C  
ENDBRANCH   9  11
ENDBRANCH   6   9
ENDBRANCH   5   6
BRANCH   5  19
HETATM   19  C   UNL     1      -7.889  10.964  67.477  1.00  0.00    -0.114 C  
HETATM   20  C   UNL     1      -6.405  11.170  67.171  1.00  0.00    -0.083 C  
ENDBRANCH   5  19
ENDBRANCH   4   5
BRANCH   4  21
HETATM   21  C   UNL     1      -8.698   8.247  65.300  1.00  0.00    -0.086 C  
HETATM   22  C   UNL     1      -7.739   7.180  65.831  1.00  0.00    -0.101 C  
ENDBRANCH   4  21
ENDBRANCH   3   4
ENDBRANCH   2   3
TORSDOF 8
ENDMDL
MODEL      315
REMARK 921   NORMALIZED FREE ENERGY PREDICTED BY IDOCK:   -2.95 KCAL/MOL
REMARK 922        TOTAL FREE ENERGY PREDICTED BY IDOCK:   -5.30 KCAL/MOL
REMARK 923 INTER-LIGAND FREE ENERGY PREDICTED BY IDOCK:   -4.51 KCAL/MOL
REMARK 924 INTRA-LIGAND FREE ENERGY PREDICTED BY IDOCK:   -0.80 KCAL/MOL
REMARK 927      BINDING AFFINITY PREDICTED BY RF-SCORE:    0.00 PKD
ROOT
HETATM    1  C   UNL     1     -10.942   6.530  66.861  1.00  0.00    -0.408 C  
HETATM    2  C   UNL     1      -9.468   6.415  67.221  1.00  0.00    -0.135 C  
ENDROOT
BRANCH   2   3
HETATM    3  C   UNL     1      -9.178   6.790  68.690  1.00  0.00    -0.132 C  
BRANCH   3   4
HETATM    4  N   UNL     1     -10.243   6.493  69.682  1.00  0.00    -0.180 NA 
BRANCH   4   5
HETATM    5  C   UNL     1     -10.376   7.599  70.710  1.00  0.00    -0.203 C  
BRANCH   5   6
HETATM    6  C   UNL     1     -11.373   7.183  71.798  1.00  0.00    -0.252 C  
HETATM    7  H   UNL     1     -13.209   6.619  71.968  1.00  0.00     0.000 HD 
HETATM    8  O   UNL     1     -12.591   6.878  71.294  1.00  0.00    -0.375 OA 
BRANCH   6   9
HETATM    9  N   UNL     1     -11.067   7.159  73.048  1.00  0.00    -0.457 NA 
HETATM   10  H   UNL     1     -11.592   7.752  73.689  1.00  0.00     0.000 HD 
BRANCH   9  11
HETATM   11  C   UNL     1     -10.032   6.345  73.572  1.00  0.00    -0.204 A  
HETATM   12  C   UNL     1     -10.142   4.945  73.771  1.00  0.00    -0.212 A  
HETATM   13  C   UNL     1      -9.026   4.204  74.197  1.00  0.00    -0.095 A  
HETATM   14  C   UNL     1     -11.409   4.162  73.590  1.00  0.00    -0.270 C  
HETATM   15  C   UNL     1      -7.788   4.804  74.367  1.00  0.00    -0.096 A  
HETATM   16  C   UNL     1      -7.654   6.169  74.148  1.00  0.00    -0.086 A  
HETATM   17  C   UNL     1      -8.763   6.946  73.765  1.00  0.00    -0.172 A  
HETATM   18  C   UNL     1      -8.552   8.426  73.563  1.00  0.00    -0.174 C  
ENDBRANCH   9  11
ENDBRANCH   6   9
ENDBRANCH   5   6
BRANCH   5  19
HETATM   19  C   UNL     1     -10.860   8.970  70.161  1.00  0.00    -0.261 C  
HETATM   20  C   UNL     1     -11.400   9.948  71.205  1.00  0.00    -0.443 C  
ENDBRANCH   5  19
ENDBRANCH   4   5
BRANCH   4  21
HETATM   21  C   UNL     1     -10.002   5.174  70.327  1.00  0.00    -0.250 C  
HETATM   22  C   UNL     1      -8.598   4.576  70.223  1.00  0.00    -0.104 C  
ENDBRANCH   4  21
ENDBRANCH   3   4
ENDBRANCH   2   3
TORSDOF 8
ENDMDL
MODEL      316
REMARK 921   NORMALIZED FREE ENERGY PREDICTED BY IDOCK:   -2.94 KCAL/MOL
REMARK 922        TOTAL FREE ENERGY PREDICTED BY IDOCK:   -5.29 KCAL/MOL
REMARK 923 INTER-LIGAND FREE ENERGY PREDICTED BY IDOCK:   -4.52 KCAL/MOL
REMARK 924 INTRA-LIGAND FREE ENERGY PREDICTED BY IDOCK:   -0.77 KCAL/MOL
REMARK 927      BINDING AFFINITY PREDICTED BY RF-SCORE:    0.00 PKD
ROOT
HETATM    1  C   UNL     1     -10.368  14.252  66.202  1.00  0.00    -0.305 C  
HETATM    2  C   UNL     1      -9.402  13.397  67.008  1.00  0.00    -0.243 C  
ENDROOT
BRANCH   2   3
HETATM    3  C   UNL     1      -9.674  11.885  66.866  1.00  0.00    -0.200 C  
BRANCH   3   4
HETATM    4  N   UNL     1      -9.638  11.075  68.111  1.00  0.00    -0.165 NA 
BRANCH   4   5
HETATM    5  C   UNL     1      -9.806   9.597  67.824  1.00  0.00    -0.159 C  
BRANCH   5   6
HETATM    6  C   UNL     1      -9.856   8.812  69.140  1.00  0.00    -0.181 C  
HETATM    7  H   UNL     1      -8.779   8.506  70.709  1.00  0.00     0.000 HD 
HETATM    8  O   UNL     1      -8.747   8.992  69.893  1.00  0.00    -0.137 OA 
BRANCH   6   9
HETATM    9  N   UNL     1     -10.847   8.054  69.459  1.00  0.00    -0.387 NA 
HETATM   10  H   UNL     1     -11.704   8.117  68.911  1.00  0.00     0.000 HD 
BRANCH   9  11
HETATM   11  C   UNL     1     -10.798   7.135  70.537  1.00  0.00    -0.246 A  
HETATM   12  C   UNL     1     -11.260   7.419  71.847  1.00  0.00    -0.282 A  
HETATM   13  C   UNL     1     -11.268   6.408  72.825  1.00  0.00    -0.261 A  
HETATM   14  C   UNL     1     -11.727   8.769  72.306  1.00  0.00    -0.398 C  
HETATM   15  C   UNL     1     -10.894   5.109  72.518  1.00  0.00    -0.282 A  
HETATM   16  C   UNL     1     -10.467   4.806  71.232  1.00  0.00    -0.121 A  
HETATM   17  C   UNL     1     -10.404   5.806  70.243  1.00  0.00    -0.319 A  
HETATM   18  C   UNL     1      -9.913   5.412  68.872  1.00  0.00    -0.247 C  
ENDBRANCH   9  11
ENDBRANCH   6   9
ENDBRANCH   5   6
BRANCH   5  19
HETATM   19  C   UNL     1      -8.686   8.951  66.961  1.00  0.00    -0.130 C  
HETATM   20  C   UNL     1      -9.163   8.157  65.744  1.00  0.00    -0.098 C  
ENDBRANCH   5  19
ENDBRANCH   4   5
BRANCH   4  21
HETATM   21  C   UNL     1     -10.658  11.562  69.079  1.00  0.00    -0.173 C  
HETATM   22  C   UNL     1     -12.110  11.642  68.605  1.00  0.00    -0.184 C  
ENDBRANCH   4  21
ENDBRANCH   3   4
ENDBRANCH   2   3
TORSDOF 8
ENDMDL
MODEL      317
REMARK 921   NORMALIZED FREE ENERGY PREDICTED BY IDOCK:   -2.93 KCAL/MOL
REMARK 922        TOTAL FREE ENERGY PREDICTED BY IDOCK:   -5.27 KCAL/MOL
REMARK 923 INTER-LIGAND FREE ENERGY PREDICTED BY IDOCK:   -4.49 KCAL/MOL
REMARK 924 INTRA-LIGAND FREE ENERGY PREDICTED BY IDOCK:   -0.78 KCAL/MOL
REMARK 927      BINDING AFFINITY PREDICTED BY RF-SCORE:    0.00 PKD
ROOT
HETATM    1  C   UNL     1      -8.513   6.987  65.835  1.00  0.00    -0.151 C  
HETATM    2  C   UNL     1      -9.441   7.197  67.022  1.00  0.00    -0.192 C  
ENDROOT
BRANCH   2   3
HETATM    3  C   UNL     1      -8.878   8.196  68.055  1.00  0.00    -0.131 C  
BRANCH   3   4
HETATM    4  N   UNL     1      -9.586   9.495  68.188  1.00  0.00    -0.137 NA 
BRANCH   4   5
HETATM    5  C   UNL     1      -8.629  10.626  68.507  1.00  0.00    -0.137 C  
BRANCH   5   6
HETATM    6  C   UNL     1      -9.257  11.968  68.114  1.00  0.00    -0.195 C  
HETATM    7  H   UNL     1     -10.388  12.713  66.742  1.00  0.00     0.000 HD 
HETATM    8  O   UNL     1      -9.999  11.882  66.985  1.00  0.00    -0.200 OA 
BRANCH   6   9
HETATM    9  N   UNL     1      -9.064  13.048  68.786  1.00  0.00    -0.386 NA 
HETATM   10  H   UNL     1      -8.350  13.048  69.513  1.00  0.00     0.000 HD 
BRANCH   9  11
HETATM   11  C   UNL     1      -9.801  14.238  68.561  1.00  0.00    -0.231 A  
HETATM   12  C   UNL     1     -11.071  14.509  69.129  1.00  0.00    -0.284 A  
HETATM   13  C   UNL     1     -11.677  15.763  68.933  1.00  0.00    -0.404 A  
HETATM   14  C   UNL     1     -11.870  13.521  69.926  1.00  0.00    -0.386 C  
HETATM   15  C   UNL     1     -11.027  16.775  68.245  1.00  0.00    -0.327 A  
HETATM   16  C   UNL     1      -9.769  16.537  67.706  1.00  0.00    -0.235 A  
HETATM   17  C   UNL     1      -9.155  15.278  67.846  1.00  0.00    -0.175 A  
HETATM   18  C   UNL     1      -7.797  15.082  67.220  1.00  0.00    -0.241 C  
ENDBRANCH   9  11
ENDBRANCH   6   9
ENDBRANCH   5   6
BRANCH   5  19
HETATM   19  C   UNL     1      -7.248  10.553  67.799  1.00  0.00    -0.085 C  
HETATM   20  C   UNL     1      -6.056  10.231  68.702  1.00  0.00    -0.047 C  
ENDBRANCH   5  19
ENDBRANCH   4   5
BRANCH   4  21
HETATM   21  C   UNL     1     -10.671   9.396  69.202  1.00  0.00    -0.197 C  
HETATM   22  C   UNL     1     -10.270   9.407  70.678  1.00  0.00    -0.353 C  
ENDBRANCH   4  21
ENDBRANCH   3   4
ENDBRANCH   2   3
TORSDOF 8
ENDMDL
MODEL      318
REMARK 921   NORMALIZED FREE ENERGY PREDICTED BY IDOCK:   -2.91 KCAL/MOL
REMARK 922        TOTAL FREE ENERGY PREDICTED BY IDOCK:   -5.24 KCAL/MOL
REMARK 923 INTER-LIGAND FREE ENERGY PREDICTED BY IDOCK:   -4.81 KCAL/MOL
REMARK 924 INTRA-LIGAND FREE ENERGY PREDICTED BY IDOCK:   -0.43 KCAL/MOL
REMARK 927      BINDING AFFINITY PREDICTED BY RF-SCORE:    0.00 PKD
ROOT
HETATM    1  C   UNL     1     -11.269   3.208  73.475  1.00  0.00    -0.286 C  
HETATM    2  C   UNL     1     -10.781   4.609  73.816  1.00  0.00    -0.356 C  
ENDROOT
BRANCH   2   3
HETATM    3  C   UNL     1     -11.363   5.691  72.882  1.00  0.00    -0.273 C  
BRANCH   3   4
HETATM    4  N   UNL     1     -10.552   6.921  72.690  1.00  0.00    -0.220 NA 
BRANCH   4   5
HETATM    5  C   UNL     1     -10.620   7.420  71.261  1.00  0.00    -0.216 C  
BRANCH   5   6
HETATM    6  C   UNL     1      -9.934   6.417  70.326  1.00  0.00    -0.168 C  
HETATM    7  H   UNL     1      -8.206   6.093  69.535  1.00  0.00     0.000 HD 
HETATM    8  O   UNL     1      -8.631   6.714  70.114  1.00  0.00    -0.137 OA 
BRANCH   6   9
HETATM    9  N   UNL     1     -10.558   5.425  69.793  1.00  0.00    -0.313 NA 
HETATM   10  H   UNL     1     -11.345   5.018  70.297  1.00  0.00     0.000 HD 
BRANCH   9  11
HETATM   11  C   UNL     1     -10.200   4.874  68.538  1.00  0.00    -0.034 A  
HETATM   12  C   UNL     1     -10.338   5.552  67.301  1.00  0.00    -0.290 A  
HETATM   13  C   UNL     1      -9.857   4.964  66.117  1.00  0.00    -0.222 A  
HETATM   14  C   UNL     1     -11.013   6.882  67.135  1.00  0.00    -0.427 C  
HETATM   15  C   UNL     1      -9.183   3.753  66.140  1.00  0.00    -0.166 A  
HETATM   16  C   UNL     1      -9.011   3.088  67.347  1.00  0.00    -0.187 A  
HETATM   17  C   UNL     1      -9.522   3.629  68.542  1.00  0.00    -0.212 A  
HETATM   18  C   UNL     1      -9.317   2.845  69.815  1.00  0.00    -0.207 C  
ENDBRANCH   9  11
ENDBRANCH   6   9
ENDBRANCH   5   6
BRANCH   5  19
HETATM   19  C   UNL     1      -9.956   8.801  71.002  1.00  0.00    -0.297 C  
HETATM   20  C   UNL     1     -10.853   9.854  70.349  1.00  0.00    -0.380 C  
ENDBRANCH   5  19
ENDBRANCH   4   5
BRANCH   4  21
HETATM   21  C   UNL     1      -9.147   6.690  73.122  1.00  0.00    -0.127 C  
HETATM   22  C   UNL     1      -8.522   7.699  74.086  1.00  0.00    -0.290 C  
ENDBRANCH   4  21
ENDBRANCH   3   4
ENDBRANCH   2   3
TORSDOF 8
ENDMDL
MODEL      319
REMARK 921   NORMALIZED FREE ENERGY PREDICTED BY IDOCK:   -2.90 KCAL/MOL
REMARK 922        TOTAL FREE ENERGY PREDICTED BY IDOCK:   -5.22 KCAL/MOL
REMARK 923 INTER-LIGAND FREE ENERGY PREDICTED BY IDOCK:   -4.78 KCAL/MOL
REMARK 924 INTRA-LIGAND FREE ENERGY PREDICTED BY IDOCK:   -0.45 KCAL/MOL
REMARK 927      BINDING AFFINITY PREDICTED BY RF-SCORE:    0.00 PKD
ROOT
HETATM    1  C   UNL     1     -10.962  11.308  64.022  1.00  0.00    -0.377 C  
HETATM    2  C   UNL     1      -9.692  10.543  63.675  1.00  0.00    -0.375 C  
ENDROOT
BRANCH   2   3
HETATM    3  C   UNL     1      -8.658  10.546  64.821  1.00  0.00    -0.166 C  
BRANCH   3   4
HETATM    4  N   UNL     1      -9.183  10.375  66.200  1.00  0.00    -0.164 NA 
BRANCH   4   5
HETATM    5  C   UNL     1      -8.099  10.568  67.241  1.00  0.00    -0.115 C  
BRANCH   5   6
HETATM    6  C   UNL     1      -8.728  10.974  68.579  1.00  0.00    -0.159 C  
HETATM    7  H   UNL     1      -9.404  10.159  70.191  1.00  0.00     0.000 HD 
HETATM    8  O   UNL     1      -9.015   9.908  69.361  1.00  0.00    -0.167 OA 
BRANCH   6   9
HETATM    9  N   UNL     1      -8.969  12.200  68.890  1.00  0.00    -0.373 NA 
HETATM   10  H   UNL     1      -8.544  12.581  69.735  1.00  0.00     0.000 HD 
BRANCH   9  11
HETATM   11  C   UNL     1      -9.798  13.044  68.109  1.00  0.00    -0.228 A  
HETATM   12  C   UNL     1     -11.155  12.768  67.806  1.00  0.00    -0.289 A  
HETATM   13  C   UNL     1     -11.928  13.717  67.113  1.00  0.00    -0.442 A  
HETATM   14  C   UNL     1     -11.855  11.485  68.145  1.00  0.00    -0.306 C  
HETATM   15  C   UNL     1     -11.409  14.957  66.773  1.00  0.00    -0.328 A  
HETATM   16  C   UNL     1     -10.090  15.255  67.089  1.00  0.00    -0.240 A  
HETATM   17  C   UNL     1      -9.277  14.310  67.742  1.00  0.00    -0.194 A  
HETATM   18  C   UNL     1      -7.848  14.692  68.037  1.00  0.00    -0.136 C  
ENDBRANCH   9  11
ENDBRANCH   6   9
ENDBRANCH   5   6
BRANCH   5  19
HETATM   19  C   UNL     1      -7.031  11.645  66.904  1.00  0.00    -0.123 C  
HETATM   20  C   UNL     1      -5.588  11.144  66.825  1.00  0.00    -0.100 C  
ENDBRANCH   5  19
ENDBRANCH   4   5
BRANCH   4  21
HETATM   21  C   UNL     1      -9.848   9.051  66.344  1.00  0.00    -0.286 C  
HETATM   22  C   UNL     1      -8.968   7.801  66.283  1.00  0.00    -0.209 C  
ENDBRANCH   4  21
ENDBRANCH   3   4
ENDBRANCH   2   3
TORSDOF 8
ENDMDL
MODEL      320
REMARK 921   NORMALIZED FREE ENERGY PREDICTED BY IDOCK:   -2.88 KCAL/MOL
REMARK 922        TOTAL FREE ENERGY PREDICTED BY IDOCK:   -5.20 KCAL/MOL
REMARK 923 INTER-LIGAND FREE ENERGY PREDICTED BY IDOCK:   -4.20 KCAL/MOL
REMARK 924 INTRA-LIGAND FREE ENERGY PREDICTED BY IDOCK:   -1.00 KCAL/MOL
REMARK 927      BINDING AFFINITY PREDICTED BY RF-SCORE:    0.00 PKD
ROOT
HETATM    1  C   UNL     1      -8.085   7.404  65.322  1.00  0.00    -0.131 C  
HETATM    2  C   UNL     1      -9.024   8.281  66.139  1.00  0.00    -0.222 C  
ENDROOT
BRANCH   2   3
HETATM    3  C   UNL     1      -8.504   9.724  66.306  1.00  0.00    -0.123 C  
BRANCH   3   4
HETATM    4  N   UNL     1      -9.068  10.515  67.430  1.00  0.00    -0.139 NA 
BRANCH   4   5
HETATM    5  C   UNL     1      -9.643  11.834  66.955  1.00  0.00    -0.187 C  
BRANCH   5   6
HETATM    6  C   UNL     1     -10.216  12.612  68.146  1.00  0.00    -0.240 C  
HETATM    7  H   UNL     1     -11.673  12.506  69.404  1.00  0.00     0.000 HD 
HETATM    8  O   UNL     1     -11.318  12.024  68.666  1.00  0.00    -0.229 OA 
BRANCH   6   9
HETATM    9  N   UNL     1      -9.701  13.714  68.567  1.00  0.00    -0.319 NA 
HETATM   10  H   UNL     1      -9.576  13.840  69.571  1.00  0.00     0.000 HD 
BRANCH   9  11
HETATM   11  C   UNL     1      -9.300  14.759  67.698  1.00  0.00    -0.195 A  
HETATM   12  C   UNL     1     -10.190  15.504  66.884  1.00  0.00    -0.279 A  
HETATM   13  C   UNL     1      -9.713  16.594  66.134  1.00  0.00    -0.329 A  
HETATM   14  C   UNL     1     -11.650  15.195  66.723  1.00  0.00    -0.136 C  
HETATM   15  C   UNL     1      -8.392  17.004  66.222  1.00  0.00    -0.308 A  
HETATM   16  C   UNL     1      -7.513  16.304  67.038  1.00  0.00    -0.257 A  
HETATM   17  C   UNL     1      -7.949  15.181  67.766  1.00  0.00    -0.155 A  
HETATM   18  C   UNL     1      -6.937  14.455  68.617  1.00  0.00    -0.102 C  
ENDBRANCH   9  11
ENDBRANCH   6   9
ENDBRANCH   5   6
BRANCH   5  19
HETATM   19  C   UNL     1     -10.780  11.727  65.901  1.00  0.00    -0.328 C  
HETATM   20  C   UNL     1     -10.572  12.535  64.619  1.00  0.00    -0.343 C  
ENDBRANCH   5  19
ENDBRANCH   4   5
BRANCH   4  21
HETATM   21  C   UNL     1      -8.043  10.717  68.490  1.00  0.00    -0.125 C  
HETATM   22  C   UNL     1      -6.682  10.046  68.303  1.00  0.00    -0.055 C  
ENDBRANCH   4  21
ENDBRANCH   3   4
ENDBRANCH   2   3
TORSDOF 8
ENDMDL
MODEL      321
REMARK 921   NORMALIZED FREE ENERGY PREDICTED BY IDOCK:   -2.88 KCAL/MOL
REMARK 922        TOTAL FREE ENERGY PREDICTED BY IDOCK:   -5.20 KCAL/MOL
REMARK 923 INTER-LIGAND FREE ENERGY PREDICTED BY IDOCK:   -4.29 KCAL/MOL
REMARK 924 INTRA-LIGAND FREE ENERGY PREDICTED BY IDOCK:   -0.91 KCAL/MOL
REMARK 927      BINDING AFFINITY PREDICTED BY RF-SCORE:    0.00 PKD
ROOT
HETATM    1  C   UNL     1     -12.121  12.391  70.144  1.00  0.00    -0.366 C  
HETATM    2  C   UNL     1     -11.761  11.890  68.752  1.00  0.00    -0.379 C  
ENDROOT
BRANCH   2   3
HETATM    3  C   UNL     1     -11.350  10.402  68.737  1.00  0.00    -0.214 C  
BRANCH   3   4
HETATM    4  N   UNL     1     -10.811   9.867  67.460  1.00  0.00    -0.278 NA 
BRANCH   4   5
HETATM    5  C   UNL     1      -9.510   9.119  67.670  1.00  0.00    -0.140 C  
BRANCH   5   6
HETATM    6  C   UNL     1      -9.737   7.615  67.480  1.00  0.00    -0.156 C  
HETATM    7  H   UNL     1     -11.100   6.403  66.856  1.00  0.00     0.000 HD 
HETATM    8  O   UNL     1     -10.960   7.335  66.974  1.00  0.00    -0.358 OA 
BRANCH   6   9
HETATM    9  N   UNL     1      -8.853   6.735  67.797  1.00  0.00    -0.119 NA 
HETATM   10  H   UNL     1      -7.925   7.054  68.075  1.00  0.00     0.000 HD 
BRANCH   9  11
HETATM   11  C   UNL     1      -9.112   5.341  67.777  1.00  0.00    -0.110 A  
HETATM   12  C   UNL     1      -9.042   4.534  66.613  1.00  0.00    -0.123 A  
HETATM   13  C   UNL     1      -9.211   3.142  66.711  1.00  0.00    -0.175 A  
HETATM   14  C   UNL     1      -8.828   5.065  65.226  1.00  0.00    -0.153 C  
HETATM   15  C   UNL     1      -9.382   2.523  67.939  1.00  0.00    -0.241 A  
HETATM   16  C   UNL     1      -9.423   3.295  69.093  1.00  0.00    -0.189 A  
HETATM   17  C   UNL     1      -9.302   4.695  69.024  1.00  0.00    -0.203 A  
HETATM   18  C   UNL     1      -9.375   5.474  70.314  1.00  0.00    -0.194 C  
ENDBRANCH   9  11
ENDBRANCH   6   9
ENDBRANCH   5   6
BRANCH   5  19
HETATM   19  C   UNL     1      -8.852   9.300  69.067  1.00  0.00    -0.136 C  
HETATM   20  C   UNL     1      -7.747  10.354  69.146  1.00  0.00    -0.126 C  
ENDBRANCH   5  19
ENDBRANCH   4   5
BRANCH   4  21
HETATM   21  C   UNL     1     -10.658  10.959  66.461  1.00  0.00    -0.237 C  
HETATM   22  C   UNL     1     -10.159  10.584  65.065  1.00  0.00    -0.390 C  
ENDBRANCH   4  21
ENDBRANCH   3   4
ENDBRANCH   2   3
TORSDOF 8
ENDMDL
MODEL      322
REMARK 921   NORMALIZED FREE ENERGY PREDICTED BY IDOCK:   -2.88 KCAL/MOL
REMARK 922        TOTAL FREE ENERGY PREDICTED BY IDOCK:   -5.20 KCAL/MOL
REMARK 923 INTER-LIGAND FREE ENERGY PREDICTED BY IDOCK:   -4.75 KCAL/MOL
REMARK 924 INTRA-LIGAND FREE ENERGY PREDICTED BY IDOCK:   -0.45 KCAL/MOL
REMARK 927      BINDING AFFINITY PREDICTED BY RF-SCORE:    0.00 PKD
ROOT
HETATM    1  C   UNL     1      -8.342  14.767  68.964  1.00  0.00    -0.144 C  
HETATM    2  C   UNL     1      -7.598  14.143  67.793  1.00  0.00    -0.175 C  
ENDROOT
BRANCH   2   3
HETATM    3  C   UNL     1      -8.418  13.051  67.074  1.00  0.00    -0.136 C  
BRANCH   3   4
HETATM    4  N   UNL     1      -9.603  13.501  66.299  1.00  0.00    -0.261 NA 
BRANCH   4   5
HETATM    5  C   UNL     1     -10.126  12.408  65.388  1.00  0.00    -0.269 C  
BRANCH   5   6
HETATM    6  C   UNL     1     -11.465  11.884  65.918  1.00  0.00    -0.278 C  
HETATM    7  H   UNL     1     -13.302  12.448  66.081  1.00  0.00     0.000 HD 
HETATM    8  O   UNL     1     -12.471  12.773  65.753  1.00  0.00    -0.579 OA 
BRANCH   6   9
HETATM    9  N   UNL     1     -11.587  10.731  66.478  1.00  0.00     0.115 NA 
HETATM   10  H   UNL     1     -12.069   9.991  65.968  1.00  0.00     0.000 HD 
BRANCH   9  11
HETATM   11  C   UNL     1     -11.082  10.444  67.770  1.00  0.00    -0.299 A  
HETATM   12  C   UNL     1     -11.270  11.276  68.902  1.00  0.00    -0.315 A  
HETATM   13  C   UNL     1     -10.821  10.855  70.167  1.00  0.00    -0.054 A  
HETATM   14  C   UNL     1     -11.902  12.636  68.858  1.00  0.00    -0.345 C  
HETATM   15  C   UNL     1     -10.252   9.605  70.348  1.00  0.00    -0.348 A  
HETATM   16  C   UNL     1     -10.086   8.764  69.255  1.00  0.00    -0.206 A  
HETATM   17  C   UNL     1     -10.484   9.174  67.969  1.00  0.00    -0.276 A  
HETATM   18  C   UNL     1     -10.257   8.220  66.823  1.00  0.00    -0.375 C  
ENDBRANCH   9  11
ENDBRANCH   6   9
ENDBRANCH   5   6
BRANCH   5  19
HETATM   19  C   UNL     1      -9.196  11.174  65.222  1.00  0.00    -0.218 C  
HETATM   20  C   UNL     1      -9.419  10.343  63.957  1.00  0.00    -0.351 C  
ENDBRANCH   5  19
ENDBRANCH   4   5
BRANCH   4  21
HETATM   21  C   UNL     1      -9.288  14.740  65.539  1.00  0.00     0.202 C  
HETATM   22  C   UNL     1     -10.441  15.690  65.212  1.00  0.00    -0.439 C  
ENDBRANCH   4  21
ENDBRANCH   3   4
ENDBRANCH   2   3
TORSDOF 8
ENDMDL
MODEL      323
REMARK 921   NORMALIZED FREE ENERGY PREDICTED BY IDOCK:   -2.87 KCAL/MOL
REMARK 922        TOTAL FREE ENERGY PREDICTED BY IDOCK:   -5.18 KCAL/MOL
REMARK 923 INTER-LIGAND FREE ENERGY PREDICTED BY IDOCK:   -3.63 KCAL/MOL
REMARK 924 INTRA-LIGAND FREE ENERGY PREDICTED BY IDOCK:   -1.54 KCAL/MOL
REMARK 927      BINDING AFFINITY PREDICTED BY RF-SCORE:    0.00 PKD
ROOT
HETATM    1  C   UNL     1      -8.378  11.959  66.645  1.00  0.00    -0.117 C  
HETATM    2  C   UNL     1      -9.830  11.794  67.073  1.00  0.00    -0.213 C  
ENDROOT
BRANCH   2   3
HETATM    3  C   UNL     1      -9.976  11.386  68.554  1.00  0.00    -0.201 C  
BRANCH   3   4
HETATM    4  N   UNL     1     -10.278   9.958  68.831  1.00  0.00    -0.186 NA 
BRANCH   4   5
HETATM    5  C   UNL     1      -9.125   9.265  69.528  1.00  0.00    -0.160 C  
BRANCH   5   6
HETATM    6  C   UNL     1      -9.616   8.612  70.825  1.00  0.00    -0.188 C  
HETATM    7  H   UNL     1     -10.864   8.947  72.256  1.00  0.00     0.000 HD 
HETATM    8  O   UNL     1     -10.559   9.352  71.453  1.00  0.00    -0.331 OA 
BRANCH   6   9
HETATM    9  N   UNL     1      -9.149   7.494  71.259  1.00  0.00    -0.141 NA 
HETATM   10  H   UNL     1      -8.930   7.410  72.252  1.00  0.00     0.000 HD 
BRANCH   9  11
HETATM   11  C   UNL     1      -8.925   6.374  70.420  1.00  0.00    -0.155 A  
HETATM   12  C   UNL     1      -9.917   5.783  69.598  1.00  0.00    -0.249 A  
HETATM   13  C   UNL     1      -9.573   4.741  68.718  1.00  0.00    -0.227 A  
HETATM   14  C   UNL     1     -11.367   6.169  69.611  1.00  0.00    -0.442 C  
HETATM   15  C   UNL     1      -8.260   4.316  68.586  1.00  0.00    -0.087 A  
HETATM   16  C   UNL     1      -7.270   4.903  69.363  1.00  0.00    -0.056 A  
HETATM   17  C   UNL     1      -7.589   5.918  70.285  1.00  0.00    -0.094 A  
HETATM   18  C   UNL     1      -6.469   6.499  71.110  1.00  0.00    -0.049 C  
ENDBRANCH   9  11
ENDBRANCH   6   9
ENDBRANCH   5   6
BRANCH   5  19
HETATM   19  C   UNL     1      -7.929  10.180  69.913  1.00  0.00    -0.149 C  
HETATM   20  C   UNL     1      -6.595   9.842  69.245  1.00  0.00    -0.049 C  
ENDBRANCH   5  19
ENDBRANCH   4   5
BRANCH   4  21
HETATM   21  C   UNL     1     -10.659   9.254  67.576  1.00  0.00    -0.262 C  
HETATM   22  C   UNL     1      -9.731   8.150  67.067  1.00  0.00    -0.275 C  
ENDBRANCH   4  21
ENDBRANCH   3   4
ENDBRANCH   2   3
TORSDOF 8
ENDMDL
MODEL      324
REMARK 921   NORMALIZED FREE ENERGY PREDICTED BY IDOCK:   -2.86 KCAL/MOL
REMARK 922        TOTAL FREE ENERGY PREDICTED BY IDOCK:   -5.17 KCAL/MOL
REMARK 923 INTER-LIGAND FREE ENERGY PREDICTED BY IDOCK:   -4.02 KCAL/MOL
REMARK 924 INTRA-LIGAND FREE ENERGY PREDICTED BY IDOCK:   -1.15 KCAL/MOL
REMARK 927      BINDING AFFINITY PREDICTED BY RF-SCORE:    0.00 PKD
ROOT
HETATM    1  C   UNL     1      -9.737  12.211  66.162  1.00  0.00    -0.254 C  
HETATM    2  C   UNL     1     -10.712  11.468  67.063  1.00  0.00    -0.300 C  
ENDROOT
BRANCH   2   3
HETATM    3  C   UNL     1     -10.212  11.347  68.518  1.00  0.00    -0.208 C  
BRANCH   3   4
HETATM    4  N   UNL     1      -9.346  10.182  68.836  1.00  0.00    -0.169 NA 
BRANCH   4   5
HETATM    5  C   UNL     1     -10.026   9.223  69.793  1.00  0.00    -0.199 C  
BRANCH   5   6
HETATM    6  C   UNL     1      -9.856   7.783  69.295  1.00  0.00    -0.173 C  
HETATM    7  H   UNL     1      -9.580   6.822  67.646  1.00  0.00     0.000 HD 
HETATM    8  O   UNL     1      -9.686   7.715  67.954  1.00  0.00    -0.142 OA 
BRANCH   6   9
HETATM    9  N   UNL     1      -9.899   6.766  70.084  1.00  0.00    -0.177 NA 
HETATM   10  H   UNL     1     -10.243   5.879  69.717  1.00  0.00     0.000 HD 
BRANCH   9  11
HETATM   11  C   UNL     1      -9.488   6.824  71.439  1.00  0.00    -0.160 A  
HETATM   12  C   UNL     1      -8.173   7.142  71.860  1.00  0.00    -0.104 A  
HETATM   13  C   UNL     1      -7.886   7.279  73.230  1.00  0.00    -0.115 A  
HETATM   14  C   UNL     1      -7.006   7.317  70.933  1.00  0.00    -0.056 C  
HETATM   15  C   UNL     1      -8.884   7.176  74.187  1.00  0.00    -0.245 A  
HETATM   16  C   UNL     1     -10.184   6.894  73.790  1.00  0.00    -0.396 A  
HETATM   17  C   UNL     1     -10.495   6.706  72.430  1.00  0.00    -0.232 A  
HETATM   18  C   UNL     1     -11.924   6.384  72.071  1.00  0.00    -0.375 C  
ENDBRANCH   9  11
ENDBRANCH   6   9
ENDBRANCH   5   6
BRANCH   5  19
HETATM   19  C   UNL     1     -11.550   9.448  69.997  1.00  0.00    -0.046 C  
HETATM   20  C   UNL     1     -11.966   9.935  71.387  1.00  0.00    -0.489 C  
ENDBRANCH   5  19
ENDBRANCH   4   5
BRANCH   4  21
HETATM   21  C   UNL     1      -8.032  10.639  69.364  1.00  0.00    -0.111 C  
HETATM   22  C   UNL     1      -6.814  10.515  68.448  1.00  0.00    -0.064 C  
ENDBRANCH   4  21
ENDBRANCH   3   4
ENDBRANCH   2   3
TORSDOF 8
ENDMDL
MODEL      325
REMARK 921   NORMALIZED FREE ENERGY PREDICTED BY IDOCK:   -2.85 KCAL/MOL
REMARK 922        TOTAL FREE ENERGY PREDICTED BY IDOCK:   -5.16 KCAL/MOL
REMARK 923 INTER-LIGAND FREE ENERGY PREDICTED BY IDOCK:   -4.70 KCAL/MOL
REMARK 924 INTRA-LIGAND FREE ENERGY PREDICTED BY IDOCK:   -0.46 KCAL/MOL
REMARK 927      BINDING AFFINITY PREDICTED BY RF-SCORE:    0.00 PKD
ROOT
HETATM    1  C   UNL     1     -10.952  16.057  64.864  1.00  0.00    -0.399 C  
HETATM    2  C   UNL     1     -11.159  14.564  65.071  1.00  0.00    -0.393 C  
ENDROOT
BRANCH   2   3
HETATM    3  C   UNL     1      -9.970  13.885  65.783  1.00  0.00    -0.284 C  
BRANCH   3   4
HETATM    4  N   UNL     1     -10.266  13.163  67.047  1.00  0.00    -0.248 NA 
BRANCH   4   5
HETATM    5  C   UNL     1      -9.950  11.685  66.936  1.00  0.00    -0.202 C  
BRANCH   5   6
HETATM    6  C   UNL     1      -9.653  11.324  65.476  1.00  0.00    -0.228 C  
HETATM    7  H   UNL     1     -10.595  10.905  63.846  1.00  0.00     0.000 HD 
HETATM    8  O   UNL     1     -10.780  11.129  64.751  1.00  0.00    -0.314 OA 
BRANCH   6   9
HETATM    9  N   UNL     1      -8.456  11.201  65.021  1.00  0.00    -0.380 NA 
HETATM   10  H   UNL     1      -8.018  12.008  64.578  1.00  0.00     0.000 HD 
BRANCH   9  11
HETATM   11  C   UNL     1      -7.718   9.993  65.109  1.00  0.00    -0.137 A  
HETATM   12  C   UNL     1      -6.973   9.596  66.248  1.00  0.00    -0.092 A  
HETATM   13  C   UNL     1      -6.360   8.330  66.281  1.00  0.00    -0.046 A  
HETATM   14  C   UNL     1      -6.746  10.458  67.454  1.00  0.00    -0.072 C  
HETATM   15  C   UNL     1      -6.523   7.425  65.244  1.00  0.00    -0.041 A  
HETATM   16  C   UNL     1      -7.274   7.787  64.134  1.00  0.00    -0.080 A  
HETATM   17  C   UNL     1      -7.863   9.062  64.050  1.00  0.00    -0.133 A  
HETATM   18  C   UNL     1      -8.649   9.396  62.807  1.00  0.00    -0.221 C  
ENDBRANCH   9  11
ENDBRANCH   6   9
ENDBRANCH   5   6
BRANCH   5  19
HETATM   19  C   UNL     1     -11.072  10.723  67.416  1.00  0.00    -0.363 C  
HETATM   20  C   UNL     1     -10.640   9.277  67.670  1.00  0.00    -0.324 C  
ENDBRANCH   5  19
ENDBRANCH   4   5
BRANCH   4  21
HETATM   21  C   UNL     1     -11.678  13.390  67.457  1.00  0.00    -0.366 C  
HETATM   22  C   UNL     1     -11.929  14.080  68.799  1.00  0.00    -0.382 C  
ENDBRANCH   4  21
ENDBRANCH   3   4
ENDBRANCH   2   3
TORSDOF 8
ENDMDL
MODEL      326
REMARK 921   NORMALIZED FREE ENERGY PREDICTED BY IDOCK:   -2.85 KCAL/MOL
REMARK 922        TOTAL FREE ENERGY PREDICTED BY IDOCK:   -5.15 KCAL/MOL
REMARK 923 INTER-LIGAND FREE ENERGY PREDICTED BY IDOCK:   -4.82 KCAL/MOL
REMARK 924 INTRA-LIGAND FREE ENERGY PREDICTED BY IDOCK:   -0.33 KCAL/MOL
REMARK 927      BINDING AFFINITY PREDICTED BY RF-SCORE:    0.00 PKD
ROOT
HETATM    1  C   UNL     1     -12.429  10.429  71.536  1.00  0.00    -0.508 C  
HETATM    2  C   UNL     1     -12.752   9.169  72.326  1.00  0.00    -0.447 C  
ENDROOT
BRANCH   2   3
HETATM    3  C   UNL     1     -12.062   7.911  71.758  1.00  0.00    -0.303 C  
BRANCH   3   4
HETATM    4  N   UNL     1     -10.597   7.790  71.980  1.00  0.00    -0.217 NA 
BRANCH   4   5
HETATM    5  C   UNL     1      -9.848   7.586  70.679  1.00  0.00    -0.179 C  
BRANCH   5   6
HETATM    6  C   UNL     1     -10.693   6.742  69.717  1.00  0.00    -0.249 C  
HETATM    7  H   UNL     1     -11.359   4.941  69.544  1.00  0.00     0.000 HD 
HETATM    8  O   UNL     1     -10.836   5.464  70.140  1.00  0.00    -0.281 OA 
BRANCH   6   9
HETATM    9  N   UNL     1     -11.179   7.214  68.623  1.00  0.00    -0.474 NA 
HETATM   10  H   UNL     1     -12.190   7.314  68.543  1.00  0.00     0.000 HD 
BRANCH   9  11
HETATM   11  C   UNL     1     -10.371   7.600  67.525  1.00  0.00    -0.257 A  
HETATM   12  C   UNL     1      -9.825   6.696  66.579  1.00  0.00    -0.165 A  
HETATM   13  C   UNL     1      -9.124   7.183  65.462  1.00  0.00     0.184 A  
HETATM   14  C   UNL     1      -9.906   5.202  66.693  1.00  0.00    -0.208 C  
HETATM   15  C   UNL     1      -9.008   8.543  65.224  1.00  0.00    -0.102 A  
HETATM   16  C   UNL     1      -9.562   9.444  66.123  1.00  0.00    -0.311 A  
HETATM   17  C   UNL     1     -10.231   8.989  67.275  1.00  0.00    -0.323 A  
HETATM   18  C   UNL     1     -10.792  10.021  68.220  1.00  0.00    -0.286 C  
ENDBRANCH   9  11
ENDBRANCH   6   9
ENDBRANCH   5   6
BRANCH   5  19
HETATM   19  C   UNL     1      -8.470   6.879  70.803  1.00  0.00    -0.136 C  
HETATM   20  C   UNL     1      -7.722   6.652  69.489  1.00  0.00    -0.104 C  
ENDBRANCH   5  19
ENDBRANCH   4   5
BRANCH   4  21
HETATM   21  C   UNL     1     -10.306   6.703  72.954  1.00  0.00    -0.213 C  
HETATM   22  C   UNL     1      -9.183   6.935  73.966  1.00  0.00    -0.243 C  
ENDBRANCH   4  21
ENDBRANCH   3   4
ENDBRANCH   2   3
TORSDOF 8
ENDMDL
MODEL      327
REMARK 921   NORMALIZED FREE ENERGY PREDICTED BY IDOCK:   -2.85 KCAL/MOL
REMARK 922        TOTAL FREE ENERGY PREDICTED BY IDOCK:   -5.15 KCAL/MOL
REMARK 923 INTER-LIGAND FREE ENERGY PREDICTED BY IDOCK:   -4.69 KCAL/MOL
REMARK 924 INTRA-LIGAND FREE ENERGY PREDICTED BY IDOCK:   -0.47 KCAL/MOL
REMARK 927      BINDING AFFINITY PREDICTED BY RF-SCORE:    0.00 PKD
ROOT
HETATM    1  C   UNL     1      -6.184   6.877  69.896  1.00  0.00    -0.031 C  
HETATM    2  C   UNL     1      -7.293   7.619  69.165  1.00  0.00    -0.089 C  
ENDROOT
BRANCH   2   3
HETATM    3  C   UNL     1      -8.364   8.189  70.118  1.00  0.00    -0.125 C  
BRANCH   3   4
HETATM    4  N   UNL     1      -9.296   7.214  70.741  1.00  0.00    -0.161 NA 
BRANCH   4   5
HETATM    5  C   UNL     1     -10.744   7.598  70.516  1.00  0.00    -0.236 C  
BRANCH   5   6
HETATM    6  C   UNL     1     -10.828   9.049  70.029  1.00  0.00    -0.231 C  
HETATM    7  H   UNL     1     -10.406  10.829  70.638  1.00  0.00     0.000 HD 
HETATM    8  O   UNL     1     -10.354   9.930  70.940  1.00  0.00    -0.253 OA 
BRANCH   6   9
HETATM    9  N   UNL     1     -11.324   9.370  68.885  1.00  0.00    -0.433 NA 
HETATM   10  H   UNL     1     -12.337   9.437  68.794  1.00  0.00     0.000 HD 
BRANCH   9  11
HETATM   11  C   UNL     1     -10.524   9.635  67.746  1.00  0.00    -0.256 A  
HETATM   12  C   UNL     1      -9.880  10.873  67.494  1.00  0.00    -0.192 A  
HETATM   13  C   UNL     1      -9.020  11.008  66.390  1.00  0.00    -0.190 A  
HETATM   14  C   UNL     1     -10.074  12.111  68.320  1.00  0.00    -0.210 C  
HETATM   15  C   UNL     1      -8.730   9.929  65.569  1.00  0.00    -0.170 A  
HETATM   16  C   UNL     1      -9.328   8.701  65.818  1.00  0.00    -0.227 A  
HETATM   17  C   UNL     1     -10.229   8.545  66.888  1.00  0.00    -0.375 A  
HETATM   18  C   UNL     1     -10.857   7.189  67.090  1.00  0.00    -0.403 C  
ENDBRANCH   9  11
ENDBRANCH   6   9
ENDBRANCH   5   6
BRANCH   5  19
HETATM   19  C   UNL     1     -11.668   7.489  71.760  1.00  0.00    -0.317 C  
HETATM   20  C   UNL     1     -13.167   7.406  71.467  1.00  0.00    -0.426 C  
ENDBRANCH   5  19
ENDBRANCH   4   5
BRANCH   4  21
HETATM   21  C   UNL     1      -8.992   7.056  72.190  1.00  0.00    -0.130 C  
HETATM   22  C   UNL     1      -8.164   8.148  72.867  1.00  0.00    -0.234 C  
ENDBRANCH   4  21
ENDBRANCH   3   4
ENDBRANCH   2   3
TORSDOF 8
ENDMDL
MODEL      328
REMARK 921   NORMALIZED FREE ENERGY PREDICTED BY IDOCK:   -2.84 KCAL/MOL
REMARK 922        TOTAL FREE ENERGY PREDICTED BY IDOCK:   -5.14 KCAL/MOL
REMARK 923 INTER-LIGAND FREE ENERGY PREDICTED BY IDOCK:   -5.03 KCAL/MOL
REMARK 924 INTRA-LIGAND FREE ENERGY PREDICTED BY IDOCK:   -0.11 KCAL/MOL
REMARK 927      BINDING AFFINITY PREDICTED BY RF-SCORE:    0.00 PKD
ROOT
HETATM    1  C   UNL     1      -8.777   9.455  64.831  1.00  0.00    -0.220 C  
HETATM    2  C   UNL     1      -9.622  10.512  64.135  1.00  0.00    -0.369 C  
ENDROOT
BRANCH   2   3
HETATM    3  C   UNL     1     -10.262  11.514  65.120  1.00  0.00    -0.274 C  
BRANCH   3   4
HETATM    4  N   UNL     1     -10.291  12.940  64.704  1.00  0.00    -0.346 NA 
BRANCH   4   5
HETATM    5  C   UNL     1      -9.752  13.851  65.787  1.00  0.00    -0.164 C  
BRANCH   5   6
HETATM    6  C   UNL     1     -10.677  13.811  67.010  1.00  0.00    -0.283 C  
HETATM    7  H   UNL     1     -12.525  14.120  67.463  1.00  0.00     0.000 HD 
HETATM    8  O   UNL     1     -11.952  14.145  66.706  1.00  0.00    -0.411 OA 
BRANCH   6   9
HETATM    9  N   UNL     1     -10.256  13.514  68.189  1.00  0.00    -0.242 NA 
HETATM   10  H   UNL     1     -10.372  14.199  68.935  1.00  0.00     0.000 HD 
BRANCH   9  11
HETATM   11  C   UNL     1      -9.637  12.276  68.497  1.00  0.00    -0.125 A  
HETATM   12  C   UNL     1     -10.333  11.048  68.627  1.00  0.00    -0.209 A  
HETATM   13  C   UNL     1      -9.620   9.853  68.830  1.00  0.00    -0.160 A  
HETATM   14  C   UNL     1     -11.827  10.914  68.599  1.00  0.00    -0.269 C  
HETATM   15  C   UNL     1      -8.234   9.836  68.841  1.00  0.00    -0.117 A  
HETATM   16  C   UNL     1      -7.535  11.026  68.685  1.00  0.00    -0.112 A  
HETATM   17  C   UNL     1      -8.220  12.245  68.526  1.00  0.00    -0.096 A  
HETATM   18  C   UNL     1      -7.399  13.502  68.382  1.00  0.00    -0.115 C  
ENDBRANCH   9  11
ENDBRANCH   6   9
ENDBRANCH   5   6
BRANCH   5  19
HETATM   19  C   UNL     1      -9.600  15.346  65.391  1.00  0.00    -0.161 C  
HETATM   20  C   UNL     1      -8.640  16.166  66.254  1.00  0.00    -0.373 C  
ENDBRANCH   5  19
ENDBRANCH   4   5
BRANCH   4  21
HETATM   21  C   UNL     1     -11.666  13.334  64.292  1.00  0.00    -0.407 C  
HETATM   22  C   UNL     1     -12.608  12.232  63.806  1.00  0.00    -0.577 C  
ENDBRANCH   4  21
ENDBRANCH   3   4
ENDBRANCH   2   3
TORSDOF 8
ENDMDL
MODEL      329
REMARK 921   NORMALIZED FREE ENERGY PREDICTED BY IDOCK:   -2.83 KCAL/MOL
REMARK 922        TOTAL FREE ENERGY PREDICTED BY IDOCK:   -5.13 KCAL/MOL
REMARK 923 INTER-LIGAND FREE ENERGY PREDICTED BY IDOCK:   -3.96 KCAL/MOL
REMARK 924 INTRA-LIGAND FREE ENERGY PREDICTED BY IDOCK:   -1.17 KCAL/MOL
REMARK 927      BINDING AFFINITY PREDICTED BY RF-SCORE:    0.00 PKD
ROOT
HETATM    1  C   UNL     1     -12.372   7.054  71.284  1.00  0.00    -0.426 C  
HETATM    2  C   UNL     1     -11.363   5.915  71.264  1.00  0.00    -0.238 C  
ENDROOT
BRANCH   2   3
HETATM    3  C   UNL     1     -10.083   6.260  70.474  1.00  0.00    -0.189 C  
BRANCH   3   4
HETATM    4  N   UNL     1      -9.965   7.649  69.960  1.00  0.00    -0.188 NA 
BRANCH   4   5
HETATM    5  C   UNL     1      -9.815   7.679  68.453  1.00  0.00    -0.166 C  
BRANCH   5   6
HETATM    6  C   UNL     1      -9.824   9.129  67.956  1.00  0.00    -0.168 C  
HETATM    7  H   UNL     1     -11.000  10.656  67.907  1.00  0.00     0.000 HD 
HETATM    8  O   UNL     1     -10.994   9.757  68.215  1.00  0.00    -0.229 OA 
BRANCH   6   9
HETATM    9  N   UNL     1      -8.825   9.659  67.341  1.00  0.00    -0.128 NA 
HETATM   10  H   UNL     1      -8.251  10.339  67.840  1.00  0.00     0.000 HD 
BRANCH   9  11
HETATM   11  C   UNL     1      -8.487   9.340  66.003  1.00  0.00    -0.136 A  
HETATM   12  C   UNL     1      -7.636   8.269  65.630  1.00  0.00    -0.083 A  
HETATM   13  C   UNL     1      -7.443   7.963  64.270  1.00  0.00    -0.103 A  
HETATM   14  C   UNL     1      -6.867   7.421  66.600  1.00  0.00    -0.062 C  
HETATM   15  C   UNL     1      -8.123   8.649  63.276  1.00  0.00    -0.169 A  
HETATM   16  C   UNL     1      -8.983   9.682  63.625  1.00  0.00    -0.248 A  
HETATM   17  C   UNL     1      -9.163  10.042  64.974  1.00  0.00    -0.277 A  
HETATM   18  C   UNL     1     -10.097  11.186  65.281  1.00  0.00    -0.329 C  
ENDBRANCH   9  11
ENDBRANCH   6   9
ENDBRANCH   5   6
BRANCH   5  19
HETATM   19  C   UNL     1     -10.915   6.926  67.655  1.00  0.00    -0.304 C  
HETATM   20  C   UNL     1     -10.433   6.164  66.419  1.00  0.00    -0.099 C  
ENDBRANCH   5  19
ENDBRANCH   4   5
BRANCH   4  21
HETATM   21  C   UNL     1      -8.845   8.360  70.634  1.00  0.00    -0.147 C  
HETATM   22  C   UNL     1      -9.007   8.703  72.116  1.00  0.00    -0.270 C  
ENDBRANCH   4  21
ENDBRANCH   3   4
ENDBRANCH   2   3
TORSDOF 8
ENDMDL
MODEL      330
REMARK 921   NORMALIZED FREE ENERGY PREDICTED BY IDOCK:   -2.83 KCAL/MOL
REMARK 922        TOTAL FREE ENERGY PREDICTED BY IDOCK:   -5.12 KCAL/MOL
REMARK 923 INTER-LIGAND FREE ENERGY PREDICTED BY IDOCK:   -4.41 KCAL/MOL
REMARK 924 INTRA-LIGAND FREE ENERGY PREDICTED BY IDOCK:   -0.72 KCAL/MOL
REMARK 927      BINDING AFFINITY PREDICTED BY RF-SCORE:    0.00 PKD
ROOT
HETATM    1  C   UNL     1     -10.586   7.232  67.205  1.00  0.00    -0.416 C  
HETATM    2  C   UNL     1      -9.239   7.496  66.548  1.00  0.00    -0.217 C  
ENDROOT
BRANCH   2   3
HETATM    3  C   UNL     1      -9.332   8.475  65.359  1.00  0.00     0.126 C  
BRANCH   3   4
HETATM    4  N   UNL     1      -8.142   9.325  65.093  1.00  0.00    -0.118 NA 
BRANCH   4   5
HETATM    5  C   UNL     1      -8.489  10.800  65.123  1.00  0.00    -0.101 C  
BRANCH   5   6
HETATM    6  C   UNL     1      -8.103  11.399  66.480  1.00  0.00    -0.141 C  
HETATM    7  H   UNL     1      -6.541  11.651  67.582  1.00  0.00     0.000 HD 
HETATM    8  O   UNL     1      -6.780  11.280  66.741  1.00  0.00    -0.122 OA 
BRANCH   6   9
HETATM    9  N   UNL     1      -8.965  11.929  67.275  1.00  0.00    -0.171 NA 
HETATM   10  H   UNL     1      -9.091  12.941  67.252  1.00  0.00     0.000 HD 
BRANCH   9  11
HETATM   11  C   UNL     1      -9.746  11.170  68.181  1.00  0.00    -0.181 A  
HETATM   12  C   UNL     1      -9.212  10.248  69.116  1.00  0.00    -0.203 A  
HETATM   13  C   UNL     1     -10.058   9.620  70.047  1.00  0.00    -0.293 A  
HETATM   14  C   UNL     1      -7.768   9.845  69.177  1.00  0.00    -0.098 C  
HETATM   15  C   UNL     1     -11.406   9.932  70.118  1.00  0.00    -0.335 A  
HETATM   16  C   UNL     1     -11.942  10.855  69.230  1.00  0.00    -0.382 A  
HETATM   17  C   UNL     1     -11.130  11.468  68.256  1.00  0.00    -0.295 A  
HETATM   18  C   UNL     1     -11.780  12.446  67.310  1.00  0.00    -0.419 C  
ENDBRANCH   9  11
ENDBRANCH   6   9
ENDBRANCH   5   6
BRANCH   5  19
HETATM   19  C   UNL     1      -9.987  11.141  64.893  1.00  0.00    -0.331 C  
HETATM   20  C   UNL     1     -10.288  12.014  63.674  1.00  0.00    -0.482 C  
ENDBRANCH   5  19
ENDBRANCH   4   5
BRANCH   4  21
HETATM   21  C   UNL     1      -7.504   8.939  63.806  1.00  0.00    -0.112 C  
HETATM   22  C   UNL     1      -6.315   9.769  63.322  1.00  0.00    -0.116 C  
ENDBRANCH   4  21
ENDBRANCH   3   4
ENDBRANCH   2   3
TORSDOF 8
ENDMDL
MODEL      331
REMARK 921   NORMALIZED FREE ENERGY PREDICTED BY IDOCK:   -2.83 KCAL/MOL
REMARK 922        TOTAL FREE ENERGY PREDICTED BY IDOCK:   -5.12 KCAL/MOL
REMARK 923 INTER-LIGAND FREE ENERGY PREDICTED BY IDOCK:   -3.80 KCAL/MOL
REMARK 924 INTRA-LIGAND FREE ENERGY PREDICTED BY IDOCK:   -1.32 KCAL/MOL
REMARK 927      BINDING AFFINITY PREDICTED BY RF-SCORE:    0.00 PKD
ROOT
HETATM    1  C   UNL     1     -10.407  14.166  66.209  1.00  0.00    -0.294 C  
HETATM    2  C   UNL     1      -9.205  13.438  66.795  1.00  0.00    -0.242 C  
ENDROOT
BRANCH   2   3
HETATM    3  C   UNL     1      -9.211  11.926  66.488  1.00  0.00    -0.214 C  
BRANCH   3   4
HETATM    4  N   UNL     1      -8.664  11.025  67.535  1.00  0.00    -0.127 NA 
BRANCH   4   5
HETATM    5  C   UNL     1      -8.356   9.647  66.985  1.00  0.00    -0.117 C  
BRANCH   5   6
HETATM    6  C   UNL     1      -7.476   8.875  67.975  1.00  0.00    -0.092 C  
HETATM    7  H   UNL     1      -5.798   9.066  68.905  1.00  0.00     0.000 HD 
HETATM    8  O   UNL     1      -6.343   9.544  68.292  1.00  0.00    -0.052 OA 
BRANCH   6   9
HETATM    9  N   UNL     1      -7.791   7.710  68.421  1.00  0.00    -0.119 NA 
HETATM   10  H   UNL     1      -7.131   6.943  68.290  1.00  0.00     0.000 HD 
BRANCH   9  11
HETATM   11  C   UNL     1      -9.013   7.444  69.087  1.00  0.00    -0.135 A  
HETATM   12  C   UNL     1     -10.142   6.845  68.473  1.00  0.00    -0.165 A  
HETATM   13  C   UNL     1     -11.274   6.524  69.242  1.00  0.00    -0.390 A  
HETATM   14  C   UNL     1     -10.248   6.545  67.007  1.00  0.00    -0.277 C  
HETATM   15  C   UNL     1     -11.290   6.719  70.615  1.00  0.00    -0.384 A  
HETATM   16  C   UNL     1     -10.182   7.277  71.238  1.00  0.00    -0.198 A  
HETATM   17  C   UNL     1      -9.050   7.651  70.489  1.00  0.00    -0.151 A  
HETATM   18  C   UNL     1      -7.889   8.270  71.227  1.00  0.00    -0.112 C  
ENDBRANCH   9  11
ENDBRANCH   6   9
ENDBRANCH   5   6
BRANCH   5  19
HETATM   19  C   UNL     1      -7.619   9.621  65.617  1.00  0.00    -0.107 C  
HETATM   20  C   UNL     1      -7.585   8.266  64.909  1.00  0.00    -0.097 C  
ENDBRANCH   5  19
ENDBRANCH   4   5
BRANCH   4  21
HETATM   21  C   UNL     1      -9.591  10.954  68.697  1.00  0.00    -0.190 C  
HETATM   22  C   UNL     1     -11.038  10.538  68.430  1.00  0.00    -0.335 C  
ENDBRANCH   4  21
ENDBRANCH   3   4
ENDBRANCH   2   3
TORSDOF 8
ENDMDL
MODEL      332
REMARK 921   NORMALIZED FREE ENERGY PREDICTED BY IDOCK:   -2.83 KCAL/MOL
REMARK 922        TOTAL FREE ENERGY PREDICTED BY IDOCK:   -5.12 KCAL/MOL
REMARK 923 INTER-LIGAND FREE ENERGY PREDICTED BY IDOCK:   -4.57 KCAL/MOL
REMARK 924 INTRA-LIGAND FREE ENERGY PREDICTED BY IDOCK:   -0.55 KCAL/MOL
REMARK 927      BINDING AFFINITY PREDICTED BY RF-SCORE:    0.00 PKD
ROOT
HETATM    1  C   UNL     1     -10.795   7.363  67.564  1.00  0.00    -0.257 C  
HETATM    2  C   UNL     1      -9.314   7.438  67.219  1.00  0.00    -0.159 C  
ENDROOT
BRANCH   2   3
HETATM    3  C   UNL     1      -8.403   7.016  68.391  1.00  0.00    -0.124 C  
BRANCH   3   4
HETATM    4  N   UNL     1      -8.939   5.992  69.325  1.00  0.00    -0.122 NA 
BRANCH   4   5
HETATM    5  C   UNL     1      -8.606   6.318  70.766  1.00  0.00    -0.135 C  
BRANCH   5   6
HETATM    6  C   UNL     1      -7.990   7.719  70.855  1.00  0.00    -0.097 C  
HETATM    7  H   UNL     1      -6.379   8.650  70.350  1.00  0.00     0.000 HD 
HETATM    8  O   UNL     1      -6.760   7.781  70.295  1.00  0.00    -0.038 OA 
BRANCH   6   9
HETATM    9  N   UNL     1      -8.588   8.705  71.427  1.00  0.00    -0.177 NA 
HETATM   10  H   UNL     1      -8.034   9.352  71.988  1.00  0.00     0.000 HD 
BRANCH   9  11
HETATM   11  C   UNL     1      -9.982   8.933  71.311  1.00  0.00    -0.288 A  
HETATM   12  C   UNL     1     -10.951   8.422  72.212  1.00  0.00    -0.431 A  
HETATM   13  C   UNL     1     -12.302   8.789  72.076  1.00  0.00    -0.444 A  
HETATM   14  C   UNL     1     -10.650   7.457  73.320  1.00  0.00    -0.442 C  
HETATM   15  C   UNL     1     -12.705   9.701  71.113  1.00  0.00    -0.407 A  
HETATM   16  C   UNL     1     -11.765  10.235  70.242  1.00  0.00    -0.388 A  
HETATM   17  C   UNL     1     -10.413   9.853  70.322  1.00  0.00    -0.348 A  
HETATM   18  C   UNL     1      -9.449  10.456  69.332  1.00  0.00    -0.204 C  
ENDBRANCH   9  11
ENDBRANCH   6   9
ENDBRANCH   5   6
BRANCH   5  19
HETATM   19  C   UNL     1      -7.610   5.347  71.460  1.00  0.00    -0.103 C  
HETATM   20  C   UNL     1      -8.018   4.863  72.852  1.00  0.00    -0.098 C  
ENDBRANCH   5  19
ENDBRANCH   4   5
BRANCH   4  21
HETATM   21  C   UNL     1      -8.455   4.637  68.946  1.00  0.00    -0.080 C  
HETATM   22  C   UNL     1      -9.401   3.740  68.145  1.00  0.00    -0.228 C  
ENDBRANCH   4  21
ENDBRANCH   3   4
ENDBRANCH   2   3
TORSDOF 8
ENDMDL
MODEL      333
REMARK 921   NORMALIZED FREE ENERGY PREDICTED BY IDOCK:   -2.82 KCAL/MOL
REMARK 922        TOTAL FREE ENERGY PREDICTED BY IDOCK:   -5.11 KCAL/MOL
REMARK 923 INTER-LIGAND FREE ENERGY PREDICTED BY IDOCK:   -4.87 KCAL/MOL
REMARK 924 INTRA-LIGAND FREE ENERGY PREDICTED BY IDOCK:   -0.24 KCAL/MOL
REMARK 927      BINDING AFFINITY PREDICTED BY RF-SCORE:    0.00 PKD
ROOT
HETATM    1  C   UNL     1     -10.660   8.197  66.935  1.00  0.00    -0.311 C  
HETATM    2  C   UNL     1      -9.158   7.953  66.888  1.00  0.00    -0.172 C  
ENDROOT
BRANCH   2   3
HETATM    3  C   UNL     1      -8.641   7.161  68.107  1.00  0.00    -0.129 C  
BRANCH   3   4
HETATM    4  N   UNL     1      -9.587   6.204  68.738  1.00  0.00    -0.124 NA 
BRANCH   4   5
HETATM    5  C   UNL     1      -9.400   6.139  70.240  1.00  0.00    -0.160 C  
BRANCH   5   6
HETATM    6  C   UNL     1      -8.440   7.244  70.695  1.00  0.00    -0.140 C  
HETATM    7  H   UNL     1      -6.593   7.758  70.494  1.00  0.00     0.000 HD 
HETATM    8  O   UNL     1      -7.187   7.073  70.212  1.00  0.00    -0.069 OA 
BRANCH   6   9
HETATM    9  N   UNL     1      -8.804   8.204  71.471  1.00  0.00    -0.142 NA 
HETATM   10  H   UNL     1      -8.227   8.420  72.283  1.00  0.00     0.000 HD 
BRANCH   9  11
HETATM   11  C   UNL     1      -9.972   8.976  71.246  1.00  0.00    -0.311 A  
HETATM   12  C   UNL     1     -10.095   9.958  70.232  1.00  0.00    -0.295 A  
HETATM   13  C   UNL     1     -11.329  10.598  70.017  1.00  0.00    -0.400 A  
HETATM   14  C   UNL     1      -8.967  10.415  69.354  1.00  0.00    -0.168 C  
HETATM   15  C   UNL     1     -12.458  10.241  70.738  1.00  0.00    -0.439 A  
HETATM   16  C   UNL     1     -12.363   9.260  71.716  1.00  0.00    -0.454 A  
HETATM   17  C   UNL     1     -11.132   8.633  71.986  1.00  0.00    -0.437 A  
HETATM   18  C   UNL     1     -11.095   7.590  73.074  1.00  0.00    -0.413 C  
ENDBRANCH   9  11
ENDBRANCH   6   9
ENDBRANCH   5   6
BRANCH   5  19
HETATM   19  C   UNL     1      -8.832   4.800  70.787  1.00  0.00    -0.153 C  
HETATM   20  C   UNL     1      -9.502   4.265  72.054  1.00  0.00    -0.192 C  
ENDBRANCH   5  19
ENDBRANCH   4   5
BRANCH   4  21
HETATM   21  C   UNL     1      -9.461   4.859  68.113  1.00  0.00    -0.137 C  
HETATM   22  C   UNL     1     -10.208   4.609  66.803  1.00  0.00    -0.226 C  
ENDBRANCH   4  21
ENDBRANCH   3   4
ENDBRANCH   2   3
TORSDOF 8
ENDMDL
MODEL      334
REMARK 921   NORMALIZED FREE ENERGY PREDICTED BY IDOCK:   -2.82 KCAL/MOL
REMARK 922        TOTAL FREE ENERGY PREDICTED BY IDOCK:   -5.10 KCAL/MOL
REMARK 923 INTER-LIGAND FREE ENERGY PREDICTED BY IDOCK:   -4.62 KCAL/MOL
REMARK 924 INTRA-LIGAND FREE ENERGY PREDICTED BY IDOCK:   -0.48 KCAL/MOL
REMARK 927      BINDING AFFINITY PREDICTED BY RF-SCORE:    0.00 PKD
ROOT
HETATM    1  C   UNL     1      -9.308   4.360  66.617  1.00  0.00    -0.169 C  
HETATM    2  C   UNL     1     -10.487   5.091  67.244  1.00  0.00    -0.151 C  
ENDROOT
BRANCH   2   3
HETATM    3  C   UNL     1     -10.424   6.619  67.039  1.00  0.00    -0.298 C  
BRANCH   3   4
HETATM    4  N   UNL     1     -10.432   7.461  68.263  1.00  0.00    -0.200 NA 
BRANCH   4   5
HETATM    5  C   UNL     1      -9.205   8.346  68.343  1.00  0.00    -0.135 C  
BRANCH   5   6
HETATM    6  C   UNL     1      -9.304   9.471  67.307  1.00  0.00    -0.134 C  
HETATM    7  H   UNL     1      -8.373  11.079  66.791  1.00  0.00     0.000 HD 
HETATM    8  O   UNL     1      -8.311  10.382  67.434  1.00  0.00    -0.120 OA 
BRANCH   6   9
HETATM    9  N   UNL     1     -10.253   9.533  66.439  1.00  0.00    -0.256 NA 
HETATM   10  H   UNL     1     -10.864   8.725  66.327  1.00  0.00     0.000 HD 
BRANCH   9  11
HETATM   11  C   UNL     1     -10.485  10.675  65.632  1.00  0.00    -0.165 A  
HETATM   12  C   UNL     1     -11.116  11.859  66.089  1.00  0.00    -0.374 A  
HETATM   13  C   UNL     1     -11.207  12.980  65.244  1.00  0.00    -0.316 A  
HETATM   14  C   UNL     1     -11.750  12.013  67.440  1.00  0.00    -0.352 C  
HETATM   15  C   UNL     1     -10.631  12.978  63.984  1.00  0.00    -0.371 A  
HETATM   16  C   UNL     1      -9.983  11.837  63.530  1.00  0.00    -0.430 A  
HETATM   17  C   UNL     1      -9.914  10.683  64.334  1.00  0.00    -0.415 A  
HETATM   18  C   UNL     1      -9.213   9.472  63.772  1.00  0.00    -0.076 C  
ENDBRANCH   9  11
ENDBRANCH   6   9
ENDBRANCH   5   6
BRANCH   5  19
HETATM   19  C   UNL     1      -7.847   7.631  68.098  1.00  0.00    -0.121 C  
HETATM   20  C   UNL     1      -7.021   7.331  69.351  1.00  0.00    -0.062 C  
ENDBRANCH   5  19
ENDBRANCH   4   5
BRANCH   4  21
HETATM   21  C   UNL     1     -10.574   6.614  69.478  1.00  0.00    -0.241 C  
HETATM   22  C   UNL     1     -10.556   7.310  70.840  1.00  0.00    -0.234 C  
ENDBRANCH   4  21
ENDBRANCH   3   4
ENDBRANCH   2   3
TORSDOF 8
ENDMDL
MODEL      335
REMARK 921   NORMALIZED FREE ENERGY PREDICTED BY IDOCK:   -2.80 KCAL/MOL
REMARK 922        TOTAL FREE ENERGY PREDICTED BY IDOCK:   -5.08 KCAL/MOL
REMARK 923 INTER-LIGAND FREE ENERGY PREDICTED BY IDOCK:   -5.57 KCAL/MOL
REMARK 924 INTRA-LIGAND FREE ENERGY PREDICTED BY IDOCK:    0.49 KCAL/MOL
REMARK 927      BINDING AFFINITY PREDICTED BY RF-SCORE:    0.00 PKD
ROOT
HETATM    1  C   UNL     1      -6.361  21.337  66.633  1.00  0.00    -0.349 C  
HETATM    2  C   UNL     1      -6.342  19.879  66.198  1.00  0.00    -0.203 C  
ENDROOT
BRANCH   2   3
HETATM    3  C   UNL     1      -7.746  19.334  65.862  1.00  0.00    -0.216 C  
BRANCH   3   4
HETATM    4  N   UNL     1      -8.269  18.245  66.727  1.00  0.00    -0.245 NA 
BRANCH   4   5
HETATM    5  C   UNL     1      -7.900  16.877  66.190  1.00  0.00    -0.242 C  
BRANCH   5   6
HETATM    6  C   UNL     1      -9.139  15.975  66.167  1.00  0.00    -0.351 C  
HETATM    7  H   UNL     1     -10.832  15.828  65.256  1.00  0.00     0.000 HD 
HETATM    8  O   UNL     1     -10.064  16.388  65.270  1.00  0.00    -0.545 OA 
BRANCH   6   9
HETATM    9  N   UNL     1      -9.271  14.956  66.943  1.00  0.00    -0.232 NA 
HETATM   10  H   UNL     1      -8.678  14.142  66.784  1.00  0.00     0.000 HD 
BRANCH   9  11
HETATM   11  C   UNL     1     -10.203  14.917  68.010  1.00  0.00    -0.228 A  
HETATM   12  C   UNL     1     -11.520  14.406  67.900  1.00  0.00    -0.346 A  
HETATM   13  C   UNL     1     -12.337  14.310  69.041  1.00  0.00    -0.147 A  
HETATM   14  C   UNL     1     -12.155  13.973  66.611  1.00  0.00    -0.487 C  
HETATM   15  C   UNL     1     -11.858  14.645  70.297  1.00  0.00    -0.363 A  
HETATM   16  C   UNL     1     -10.559  15.120  70.429  1.00  0.00    -0.166 A  
HETATM   17  C   UNL     1      -9.732  15.270  69.300  1.00  0.00    -0.254 A  
HETATM   18  C   UNL     1      -8.339  15.809  69.513  1.00  0.00    -0.135 C  
ENDBRANCH   9  11
ENDBRANCH   6   9
ENDBRANCH   5   6
BRANCH   5  19
HETATM   19  C   UNL     1      -6.807  16.116  66.991  1.00  0.00    -0.216 C  
HETATM   20  C   UNL     1      -5.364  16.541  66.710  1.00  0.00     0.093 C  
ENDBRANCH   5  19
ENDBRANCH   4   5
BRANCH   4  21
HETATM   21  C   UNL     1      -9.740  18.383  66.906  1.00  0.00    -0.319 C  
HETATM   22  C   UNL     1     -10.415  19.625  66.324  1.00  0.00    -0.621 C  
ENDBRANCH   4  21
ENDBRANCH   3   4
ENDBRANCH   2   3
TORSDOF 8
ENDMDL
MODEL      336
REMARK 921   NORMALIZED FREE ENERGY PREDICTED BY IDOCK:   -2.79 KCAL/MOL
REMARK 922        TOTAL FREE ENERGY PREDICTED BY IDOCK:   -5.06 KCAL/MOL
REMARK 923 INTER-LIGAND FREE ENERGY PREDICTED BY IDOCK:   -4.24 KCAL/MOL
REMARK 924 INTRA-LIGAND FREE ENERGY PREDICTED BY IDOCK:   -0.83 KCAL/MOL
REMARK 927      BINDING AFFINITY PREDICTED BY RF-SCORE:    0.00 PKD
ROOT
HETATM    1  C   UNL     1     -11.305  13.553  67.739  1.00  0.00    -0.327 C  
HETATM    2  C   UNL     1     -11.672  12.100  68.003  1.00  0.00    -0.409 C  
ENDROOT
BRANCH   2   3
HETATM    3  C   UNL     1     -10.639  11.371  68.888  1.00  0.00    -0.202 C  
BRANCH   3   4
HETATM    4  N   UNL     1     -11.169  10.392  69.872  1.00  0.00    -0.285 NA 
BRANCH   4   5
HETATM    5  C   UNL     1     -11.254   8.998  69.286  1.00  0.00     0.176 C  
BRANCH   5   6
HETATM    6  C   UNL     1     -10.883   7.960  70.352  1.00  0.00    -0.244 C  
HETATM    7  H   UNL     1     -11.658   6.446  71.260  1.00  0.00     0.000 HD 
HETATM    8  O   UNL     1     -11.889   7.089  70.599  1.00  0.00    -0.339 OA 
BRANCH   6   9
HETATM    9  N   UNL     1      -9.743   7.956  70.950  1.00  0.00    -0.164 NA 
HETATM   10  H   UNL     1      -9.669   8.407  71.861  1.00  0.00     0.000 HD 
BRANCH   9  11
HETATM   11  C   UNL     1      -8.586   7.352  70.398  1.00  0.00    -0.144 A  
HETATM   12  C   UNL     1      -8.485   5.978  70.066  1.00  0.00    -0.131 A  
HETATM   13  C   UNL     1      -7.332   5.491  69.424  1.00  0.00    -0.066 A  
HETATM   14  C   UNL     1      -9.531   4.951  70.386  1.00  0.00    -0.233 C  
HETATM   15  C   UNL     1      -6.308   6.343  69.043  1.00  0.00    -0.038 A  
HETATM   16  C   UNL     1      -6.403   7.698  69.333  1.00  0.00    -0.035 A  
HETATM   17  C   UNL     1      -7.523   8.209  70.015  1.00  0.00    -0.065 A  
HETATM   18  C   UNL     1      -7.553   9.687  70.316  1.00  0.00    -0.175 C  
ENDBRANCH   9  11
ENDBRANCH   6   9
ENDBRANCH   5   6
BRANCH   5  19
HETATM   19  C   UNL     1     -10.336   8.729  68.061  1.00  0.00    -0.273 C  
HETATM   20  C   UNL     1     -10.597   7.420  67.314  1.00  0.00    -0.393 C  
ENDBRANCH   5  19
ENDBRANCH   4   5
BRANCH   4  21
HETATM   21  C   UNL     1     -12.485  10.845  70.399  1.00  0.00    -0.327 C  
HETATM   22  C   UNL     1     -12.857  10.444  71.828  1.00  0.00    -0.561 C  
ENDBRANCH   4  21
ENDBRANCH   3   4
ENDBRANCH   2   3
TORSDOF 8
ENDMDL
MODEL      337
REMARK 921   NORMALIZED FREE ENERGY PREDICTED BY IDOCK:   -2.78 KCAL/MOL
REMARK 922        TOTAL FREE ENERGY PREDICTED BY IDOCK:   -5.05 KCAL/MOL
REMARK 923 INTER-LIGAND FREE ENERGY PREDICTED BY IDOCK:   -3.72 KCAL/MOL
REMARK 924 INTRA-LIGAND FREE ENERGY PREDICTED BY IDOCK:   -1.33 KCAL/MOL
REMARK 927      BINDING AFFINITY PREDICTED BY RF-SCORE:    0.00 PKD
ROOT
HETATM    1  C   UNL     1      -7.203  11.640  66.942  1.00  0.00    -0.125 C  
HETATM    2  C   UNL     1      -8.717  11.498  66.984  1.00  0.00    -0.169 C  
ENDROOT
BRANCH   2   3
HETATM    3  C   UNL     1      -9.257  11.244  68.407  1.00  0.00    -0.178 C  
BRANCH   3   4
HETATM    4  N   UNL     1      -9.943   9.947  68.644  1.00  0.00    -0.159 NA 
BRANCH   4   5
HETATM    5  C   UNL     1      -9.164   9.067  69.599  1.00  0.00    -0.159 C  
BRANCH   5   6
HETATM    6  C   UNL     1      -9.991   8.810  70.864  1.00  0.00    -0.222 C  
HETATM    7  H   UNL     1     -11.386   9.645  71.901  1.00  0.00     0.000 HD 
HETATM    8  O   UNL     1     -10.873   9.804  71.117  1.00  0.00    -0.334 OA 
BRANCH   6   9
HETATM    9  N   UNL     1      -9.827   7.768  71.601  1.00  0.00    -0.161 NA 
HETATM   10  H   UNL     1     -10.021   7.842  72.600  1.00  0.00     0.000 HD 
BRANCH   9  11
HETATM   11  C   UNL     1      -9.390   6.522  71.087  1.00  0.00    -0.163 A  
HETATM   12  C   UNL     1      -8.154   5.911  71.421  1.00  0.00    -0.115 A  
HETATM   13  C   UNL     1      -7.854   4.623  70.943  1.00  0.00    -0.077 A  
HETATM   14  C   UNL     1      -7.083   6.563  72.245  1.00  0.00    -0.077 C  
HETATM   15  C   UNL     1      -8.773   3.900  70.200  1.00  0.00    -0.120 A  
HETATM   16  C   UNL     1     -10.000   4.470  69.889  1.00  0.00    -0.273 A  
HETATM   17  C   UNL     1     -10.314   5.775  70.314  1.00  0.00    -0.319 A  
HETATM   18  C   UNL     1     -11.656   6.341  69.925  1.00  0.00    -0.361 C  
ENDBRANCH   9  11
ENDBRANCH   6   9
ENDBRANCH   5   6
BRANCH   5  19
HETATM   19  C   UNL     1      -7.795   9.634  70.067  1.00  0.00    -0.173 C  
HETATM   20  C   UNL     1      -6.559   8.963  69.465  1.00  0.00    -0.044 C  
ENDBRANCH   5  19
ENDBRANCH   4   5
BRANCH   4  21
HETATM   21  C   UNL     1     -10.206   9.254  67.354  1.00  0.00    -0.243 C  
HETATM   22  C   UNL     1      -9.817   7.779  67.245  1.00  0.00    -0.249 C  
ENDBRANCH   4  21
ENDBRANCH   3   4
ENDBRANCH   2   3
TORSDOF 8
ENDMDL
MODEL      338
REMARK 921   NORMALIZED FREE ENERGY PREDICTED BY IDOCK:   -2.78 KCAL/MOL
REMARK 922        TOTAL FREE ENERGY PREDICTED BY IDOCK:   -5.05 KCAL/MOL
REMARK 923 INTER-LIGAND FREE ENERGY PREDICTED BY IDOCK:   -4.76 KCAL/MOL
REMARK 924 INTRA-LIGAND FREE ENERGY PREDICTED BY IDOCK:   -0.29 KCAL/MOL
REMARK 927      BINDING AFFINITY PREDICTED BY RF-SCORE:    0.00 PKD
ROOT
HETATM    1  C   UNL     1      -7.421  14.578  67.479  1.00  0.00    -0.216 C  
HETATM    2  C   UNL     1      -8.282  13.481  68.088  1.00  0.00    -0.162 C  
ENDROOT
BRANCH   2   3
HETATM    3  C   UNL     1      -7.833  12.064  67.672  1.00  0.00    -0.149 C  
BRANCH   3   4
HETATM    4  N   UNL     1      -8.866  11.180  67.073  1.00  0.00    -0.146 NA 
BRANCH   4   5
HETATM    5  C   UNL     1     -10.156  11.207  67.867  1.00  0.00    -0.176 C  
BRANCH   5   6
HETATM    6  C   UNL     1     -10.367   9.859  68.565  1.00  0.00    -0.196 C  
HETATM    7  H   UNL     1     -10.986   8.078  68.161  1.00  0.00     0.000 HD 
HETATM    8  O   UNL     1     -10.855   8.914  67.729  1.00  0.00    -0.181 OA 
BRANCH   6   9
HETATM    9  N   UNL     1     -10.124   9.679  69.816  1.00  0.00    -0.217 NA 
HETATM   10  H   UNL     1      -9.199   9.919  70.171  1.00  0.00     0.000 HD 
BRANCH   9  11
HETATM   11  C   UNL     1     -11.084   9.163  70.721  1.00  0.00    -0.275 A  
HETATM   12  C   UNL     1     -12.274   9.838  71.092  1.00  0.00    -0.453 A  
HETATM   13  C   UNL     1     -13.219   9.200  71.916  1.00  0.00    -0.479 A  
HETATM   14  C   UNL     1     -12.609  11.245  70.692  1.00  0.00    -0.377 C  
HETATM   15  C   UNL     1     -13.044   7.887  72.326  1.00  0.00    -0.099 A  
HETATM   16  C   UNL     1     -11.898   7.200  71.948  1.00  0.00    -0.336 A  
HETATM   17  C   UNL     1     -10.913   7.826  71.161  1.00  0.00    -0.259 A  
HETATM   18  C   UNL     1      -9.684   7.028  70.803  1.00  0.00    -0.170 C  
ENDBRANCH   9  11
ENDBRANCH   6   9
ENDBRANCH   5   6
BRANCH   5  19
HETATM   19  C   UNL     1     -11.443  11.492  67.043  1.00  0.00    -0.290 C  
HETATM   20  C   UNL     1     -11.219  12.041  65.633  1.00  0.00    -0.377 C  
ENDBRANCH   5  19
ENDBRANCH   4   5
BRANCH   4  21
HETATM   21  C   UNL     1      -8.344   9.794  66.927  1.00  0.00    -0.120 C  
HETATM   22  C   UNL     1      -6.900   9.622  66.452  1.00  0.00    -0.084 C  
ENDBRANCH   4  21
ENDBRANCH   3   4
ENDBRANCH   2   3
TORSDOF 8
ENDMDL
MODEL      339
REMARK 921   NORMALIZED FREE ENERGY PREDICTED BY IDOCK:   -2.77 KCAL/MOL
REMARK 922        TOTAL FREE ENERGY PREDICTED BY IDOCK:   -5.03 KCAL/MOL
REMARK 923 INTER-LIGAND FREE ENERGY PREDICTED BY IDOCK:   -4.42 KCAL/MOL
REMARK 924 INTRA-LIGAND FREE ENERGY PREDICTED BY IDOCK:   -0.61 KCAL/MOL
REMARK 927      BINDING AFFINITY PREDICTED BY RF-SCORE:    0.00 PKD
ROOT
HETATM    1  C   UNL     1     -13.682  12.925  72.350  1.00  0.00    -0.530 C  
HETATM    2  C   UNL     1     -12.731  12.424  71.272  1.00  0.00    -0.347 C  
ENDROOT
BRANCH   2   3
HETATM    3  C   UNL     1     -13.023  10.970  70.843  1.00  0.00    -0.224 C  
BRANCH   3   4
HETATM    4  N   UNL     1     -11.851  10.073  70.667  1.00  0.00    -0.304 NA 
BRANCH   4   5
HETATM    5  C   UNL     1     -11.336  10.096  69.242  1.00  0.00    -0.156 C  
BRANCH   5   6
HETATM    6  C   UNL     1     -10.241   9.038  69.067  1.00  0.00    -0.205 C  
HETATM    7  H   UNL     1      -8.452   8.661  69.678  1.00  0.00     0.000 HD 
HETATM    8  O   UNL     1      -9.130   9.317  69.787  1.00  0.00    -0.152 OA 
BRANCH   6   9
HETATM    9  N   UNL     1     -10.379   8.018  68.293  1.00  0.00    -0.222 NA 
HETATM   10  H   UNL     1     -11.289   7.850  67.866  1.00  0.00     0.000 HD 
BRANCH   9  11
HETATM   11  C   UNL     1      -9.321   7.119  68.008  1.00  0.00    -0.129 A  
HETATM   12  C   UNL     1      -8.236   7.413  67.144  1.00  0.00    -0.118 A  
HETATM   13  C   UNL     1      -7.178   6.497  67.006  1.00  0.00    -0.078 A  
HETATM   14  C   UNL     1      -8.133   8.653  66.306  1.00  0.00    -0.103 C  
HETATM   15  C   UNL     1      -7.137   5.329  67.751  1.00  0.00    -0.067 A  
HETATM   16  C   UNL     1      -8.177   5.038  68.624  1.00  0.00    -0.085 A  
HETATM   17  C   UNL     1      -9.272   5.913  68.752  1.00  0.00    -0.120 A  
HETATM   18  C   UNL     1     -10.376   5.527  69.704  1.00  0.00    -0.359 C  
ENDBRANCH   9  11
ENDBRANCH   6   9
ENDBRANCH   5   6
BRANCH   5  19
HETATM   19  C   UNL     1     -10.732  11.448  68.770  1.00  0.00    -0.240 C  
HETATM   20  C   UNL     1     -10.666  11.650  67.255  1.00  0.00    -0.281 C  
ENDBRANCH   5  19
ENDBRANCH   4   5
BRANCH   4  21
HETATM   21  C   UNL     1     -12.183   8.691  71.105  1.00  0.00    -0.238 C  
HETATM   22  C   UNL     1     -11.471   8.145  72.344  1.00  0.00    -0.462 C  
ENDBRANCH   4  21
ENDBRANCH   3   4
ENDBRANCH   2   3
TORSDOF 8
ENDMDL
MODEL      340
REMARK 921   NORMALIZED FREE ENERGY PREDICTED BY IDOCK:   -2.76 KCAL/MOL
REMARK 922        TOTAL FREE ENERGY PREDICTED BY IDOCK:   -5.02 KCAL/MOL
REMARK 923 INTER-LIGAND FREE ENERGY PREDICTED BY IDOCK:   -4.04 KCAL/MOL
REMARK 924 INTRA-LIGAND FREE ENERGY PREDICTED BY IDOCK:   -0.98 KCAL/MOL
REMARK 927      BINDING AFFINITY PREDICTED BY RF-SCORE:    0.00 PKD
ROOT
HETATM    1  C   UNL     1     -11.005   3.336  73.630  1.00  0.00    -0.330 C  
HETATM    2  C   UNL     1     -10.463   4.756  73.705  1.00  0.00    -0.301 C  
ENDROOT
BRANCH   2   3
HETATM    3  C   UNL     1     -10.929   5.641  72.530  1.00  0.00    -0.264 C  
BRANCH   3   4
HETATM    4  N   UNL     1      -9.976   6.672  72.045  1.00  0.00    -0.166 NA 
BRANCH   4   5
HETATM    5  C   UNL     1      -9.430   6.330  70.674  1.00  0.00    -0.168 C  
BRANCH   5   6
HETATM    6  C   UNL     1      -9.247   7.611  69.851  1.00  0.00    -0.147 C  
HETATM    7  H   UNL     1      -9.938   9.408  69.761  1.00  0.00     0.000 HD 
HETATM    8  O   UNL     1     -10.052   8.615  70.270  1.00  0.00    -0.181 OA 
BRANCH   6   9
HETATM    9  N   UNL     1      -8.430   7.689  68.860  1.00  0.00    -0.129 NA 
HETATM   10  H   UNL     1      -7.647   7.037  68.822  1.00  0.00     0.000 HD 
BRANCH   9  11
HETATM   11  C   UNL     1      -8.570   8.639  67.818  1.00  0.00    -0.136 A  
HETATM   12  C   UNL     1      -9.548   8.562  66.795  1.00  0.00    -0.273 A  
HETATM   13  C   UNL     1      -9.679   9.609  65.865  1.00  0.00    -0.343 A  
HETATM   14  C   UNL     1     -10.470   7.396  66.591  1.00  0.00    -0.201 C  
HETATM   15  C   UNL     1      -8.910  10.759  65.965  1.00  0.00    -0.192 A  
HETATM   16  C   UNL     1      -7.968  10.864  66.979  1.00  0.00    -0.132 A  
HETATM   17  C   UNL     1      -7.781   9.815  67.898  1.00  0.00    -0.087 A  
HETATM   18  C   UNL     1      -6.727   9.987  68.963  1.00  0.00    -0.053 C  
ENDBRANCH   9  11
ENDBRANCH   6   9
ENDBRANCH   5   6
BRANCH   5  19
HETATM   19  C   UNL     1     -10.309   5.373  69.822  1.00  0.00    -0.375 C  
HETATM   20  C   UNL     1      -9.654   4.049  69.426  1.00  0.00    -0.257 C  
ENDBRANCH   5  19
ENDBRANCH   4   5
BRANCH   4  21
HETATM   21  C   UNL     1      -8.882   6.875  73.033  1.00  0.00    -0.126 C  
HETATM   22  C   UNL     1      -8.795   8.233  73.732  1.00  0.00    -0.181 C  
ENDBRANCH   4  21
ENDBRANCH   3   4
ENDBRANCH   2   3
TORSDOF 8
ENDMDL
MODEL      341
REMARK 921   NORMALIZED FREE ENERGY PREDICTED BY IDOCK:   -2.75 KCAL/MOL
REMARK 922        TOTAL FREE ENERGY PREDICTED BY IDOCK:   -5.01 KCAL/MOL
REMARK 923 INTER-LIGAND FREE ENERGY PREDICTED BY IDOCK:   -4.76 KCAL/MOL
REMARK 924 INTRA-LIGAND FREE ENERGY PREDICTED BY IDOCK:   -0.26 KCAL/MOL
REMARK 927      BINDING AFFINITY PREDICTED BY RF-SCORE:    0.00 PKD
ROOT
HETATM    1  C   UNL     1     -13.401  12.174  71.717  1.00  0.00    -0.342 C  
HETATM    2  C   UNL     1     -12.165  12.144  70.829  1.00  0.00    -0.367 C  
ENDROOT
BRANCH   2   3
HETATM    3  C   UNL     1     -12.193  10.996  69.798  1.00  0.00    -0.318 C  
BRANCH   3   4
HETATM    4  N   UNL     1     -11.332   9.819  70.079  1.00  0.00    -0.239 NA 
BRANCH   4   5
HETATM    5  C   UNL     1     -10.978   9.067  68.812  1.00  0.00     0.072 C  
BRANCH   5   6
HETATM    6  C   UNL     1     -10.361   7.710  69.166  1.00  0.00    -0.213 C  
HETATM    7  H   UNL     1      -8.641   6.942  69.578  1.00  0.00     0.000 HD 
HETATM    8  O   UNL     1      -9.023   7.784  69.358  1.00  0.00    -0.142 OA 
BRANCH   6   9
HETATM    9  N   UNL     1     -11.056   6.629  69.240  1.00  0.00    -0.425 NA 
HETATM   10  H   UNL     1     -12.059   6.705  69.406  1.00  0.00     0.000 HD 
BRANCH   9  11
HETATM   11  C   UNL     1     -10.489   5.337  69.102  1.00  0.00    -0.157 A  
HETATM   12  C   UNL     1      -9.999   4.808  67.881  1.00  0.00    -0.161 A  
HETATM   13  C   UNL     1      -9.357   3.557  67.863  1.00  0.00    -0.238 A  
HETATM   14  C   UNL     1     -10.144   5.482  66.548  1.00  0.00    -0.241 C  
HETATM   15  C   UNL     1      -9.130   2.849  69.033  1.00  0.00    -0.206 A  
HETATM   16  C   UNL     1      -9.576   3.366  70.242  1.00  0.00    -0.215 A  
HETATM   17  C   UNL     1     -10.262   4.594  70.288  1.00  0.00    -0.205 A  
HETATM   18  C   UNL     1     -10.737   5.088  71.632  1.00  0.00    -0.128 C  
ENDBRANCH   9  11
ENDBRANCH   6   9
ENDBRANCH   5   6
BRANCH   5  19
HETATM   19  C   UNL     1      -9.974   9.783  67.866  1.00  0.00    -0.196 C  
HETATM   20  C   UNL     1      -9.700   9.079  66.536  1.00  0.00    -0.311 C  
ENDBRANCH   5  19
ENDBRANCH   4   5
BRANCH   4  21
HETATM   21  C   UNL     1     -11.978   8.928  71.080  1.00  0.00    -0.293 C  
HETATM   22  C   UNL     1     -11.168   8.541  72.319  1.00  0.00    -0.432 C  
ENDBRANCH   4  21
ENDBRANCH   3   4
ENDBRANCH   2   3
TORSDOF 8
ENDMDL
MODEL      342
REMARK 921   NORMALIZED FREE ENERGY PREDICTED BY IDOCK:   -2.74 KCAL/MOL
REMARK 922        TOTAL FREE ENERGY PREDICTED BY IDOCK:   -5.00 KCAL/MOL
REMARK 923 INTER-LIGAND FREE ENERGY PREDICTED BY IDOCK:   -4.38 KCAL/MOL
REMARK 924 INTRA-LIGAND FREE ENERGY PREDICTED BY IDOCK:   -0.62 KCAL/MOL
REMARK 927      BINDING AFFINITY PREDICTED BY RF-SCORE:    0.00 PKD
ROOT
HETATM    1  C   UNL     1     -12.091  12.304  64.536  1.00  0.00    -0.462 C  
HETATM    2  C   UNL     1     -10.837  11.966  63.742  1.00  0.00    -0.481 C  
ENDROOT
BRANCH   2   3
HETATM    3  C   UNL     1      -9.884  11.018  64.500  1.00  0.00    -0.290 C  
BRANCH   3   4
HETATM    4  N   UNL     1     -10.286  10.617  65.873  1.00  0.00    -0.256 NA 
BRANCH   4   5
HETATM    5  C   UNL     1      -9.350  11.186  66.920  1.00  0.00    -0.175 C  
BRANCH   5   6
HETATM    6  C   UNL     1     -10.111  12.161  67.825  1.00  0.00    -0.199 C  
HETATM    7  H   UNL     1     -10.713  12.303  69.651  1.00  0.00     0.000 HD 
HETATM    8  O   UNL     1     -10.242  11.699  69.090  1.00  0.00    -0.111 OA 
BRANCH   6   9
HETATM    9  N   UNL     1     -10.586  13.278  67.398  1.00  0.00    -0.245 NA 
HETATM   10  H   UNL     1     -11.142  13.276  66.543  1.00  0.00     0.000 HD 
BRANCH   9  11
HETATM   11  C   UNL     1     -10.372  14.511  68.063  1.00  0.00    -0.229 A  
HETATM   12  C   UNL     1      -9.391  15.461  67.685  1.00  0.00    -0.203 A  
HETATM   13  C   UNL     1      -9.324  16.704  68.340  1.00  0.00    -0.224 A  
HETATM   14  C   UNL     1      -8.353  15.230  66.625  1.00  0.00    -0.216 C  
HETATM   15  C   UNL     1     -10.246  17.054  69.313  1.00  0.00    -0.246 A  
HETATM   16  C   UNL     1     -11.234  16.147  69.676  1.00  0.00    -0.331 A  
HETATM   17  C   UNL     1     -11.300  14.878  69.071  1.00  0.00    -0.310 A  
HETATM   18  C   UNL     1     -12.385  13.935  69.526  1.00  0.00    -0.275 C  
ENDBRANCH   9  11
ENDBRANCH   6   9
ENDBRANCH   5   6
BRANCH   5  19
HETATM   19  C   UNL     1      -8.118  11.956  66.369  1.00  0.00     0.091 C  
HETATM   20  C   UNL     1      -6.787  11.661  67.064  1.00  0.00    -0.144 C  
ENDBRANCH   5  19
ENDBRANCH   4   5
BRANCH   4  21
HETATM   21  C   UNL     1     -10.383   9.136  65.975  1.00  0.00     0.145 C  
HETATM   22  C   UNL     1      -9.395   8.418  66.895  1.00  0.00    -0.221 C  
ENDBRANCH   4  21
ENDBRANCH   3   4
ENDBRANCH   2   3
TORSDOF 8
ENDMDL
MODEL      343
REMARK 921   NORMALIZED FREE ENERGY PREDICTED BY IDOCK:   -2.71 KCAL/MOL
REMARK 922        TOTAL FREE ENERGY PREDICTED BY IDOCK:   -4.96 KCAL/MOL
REMARK 923 INTER-LIGAND FREE ENERGY PREDICTED BY IDOCK:   -3.96 KCAL/MOL
REMARK 924 INTRA-LIGAND FREE ENERGY PREDICTED BY IDOCK:   -1.00 KCAL/MOL
REMARK 927      BINDING AFFINITY PREDICTED BY RF-SCORE:    0.00 PKD
ROOT
HETATM    1  C   UNL     1     -11.796   6.735  70.918  1.00  0.00    -0.438 C  
HETATM    2  C   UNL     1     -11.395   6.144  69.574  1.00  0.00    -0.426 C  
ENDROOT
BRANCH   2   3
HETATM    3  C   UNL     1     -10.021   5.443  69.612  1.00  0.00    -0.227 C  
BRANCH   3   4
HETATM    4  N   UNL     1      -8.820   6.315  69.544  1.00  0.00    -0.134 NA 
BRANCH   4   5
HETATM    5  C   UNL     1      -8.359   6.526  68.117  1.00  0.00    -0.116 C  
BRANCH   5   6
HETATM    6  C   UNL     1      -9.004   7.793  67.543  1.00  0.00    -0.123 C  
HETATM    7  H   UNL     1     -10.246   8.313  66.163  1.00  0.00     0.000 HD 
HETATM    8  O   UNL     1      -9.846   7.528  66.518  1.00  0.00    -0.208 OA 
BRANCH   6   9
HETATM    9  N   UNL     1      -8.736   8.971  67.989  1.00  0.00    -0.129 NA 
HETATM   10  H   UNL     1      -8.077   9.061  68.761  1.00  0.00     0.000 HD 
BRANCH   9  11
HETATM   11  C   UNL     1      -9.317  10.148  67.454  1.00  0.00    -0.148 A  
HETATM   12  C   UNL     1      -8.862  10.798  66.279  1.00  0.00    -0.182 A  
HETATM   13  C   UNL     1      -9.568  11.901  65.766  1.00  0.00    -0.241 A  
HETATM   14  C   UNL     1      -7.621  10.416  65.526  1.00  0.00    -0.144 C  
HETATM   15  C   UNL     1     -10.749  12.332  66.349  1.00  0.00    -0.284 A  
HETATM   16  C   UNL     1     -11.226  11.688  67.483  1.00  0.00    -0.355 A  
HETATM   17  C   UNL     1     -10.518  10.610  68.048  1.00  0.00    -0.228 A  
HETATM   18  C   UNL     1     -11.083   9.968  69.291  1.00  0.00    -0.248 C  
ENDBRANCH   9  11
ENDBRANCH   6   9
ENDBRANCH   5   6
BRANCH   5  19
HETATM   19  C   UNL     1      -8.687   5.371  67.129  1.00  0.00    -0.107 C  
HETATM   20  C   UNL     1      -7.550   4.381  66.869  1.00  0.00    -0.085 C  
ENDBRANCH   5  19
ENDBRANCH   4   5
BRANCH   4  21
HETATM   21  C   UNL     1      -7.729   5.764  70.394  1.00  0.00    -0.095 C  
HETATM   22  C   UNL     1      -6.338   6.384  70.259  1.00  0.00    -0.039 C  
ENDBRANCH   4  21
ENDBRANCH   3   4
ENDBRANCH   2   3
TORSDOF 8
ENDMDL
MODEL      344
REMARK 921   NORMALIZED FREE ENERGY PREDICTED BY IDOCK:   -2.71 KCAL/MOL
REMARK 922        TOTAL FREE ENERGY PREDICTED BY IDOCK:   -4.95 KCAL/MOL
REMARK 923 INTER-LIGAND FREE ENERGY PREDICTED BY IDOCK:   -3.92 KCAL/MOL
REMARK 924 INTRA-LIGAND FREE ENERGY PREDICTED BY IDOCK:   -1.03 KCAL/MOL
REMARK 927      BINDING AFFINITY PREDICTED BY RF-SCORE:    0.00 PKD
ROOT
HETATM    1  C   UNL     1      -6.599   6.435  67.043  1.00  0.00    -0.058 C  
HETATM    2  C   UNL     1      -7.471   7.635  67.383  1.00  0.00    -0.100 C  
ENDROOT
BRANCH   2   3
HETATM    3  C   UNL     1      -8.491   7.339  68.502  1.00  0.00    -0.125 C  
BRANCH   3   4
HETATM    4  N   UNL     1      -9.929   7.393  68.133  1.00  0.00    -0.160 NA 
BRANCH   4   5
HETATM    5  C   UNL     1     -10.694   8.374  68.998  1.00  0.00    -0.080 C  
BRANCH   5   6
HETATM    6  C   UNL     1     -10.712   9.754  68.329  1.00  0.00    -0.233 C  
HETATM    7  H   UNL     1     -11.487  10.633  66.798  1.00  0.00     0.000 HD 
HETATM    8  O   UNL     1     -11.476   9.778  67.212  1.00  0.00     0.136 OA 
BRANCH   6   9
HETATM    9  N   UNL     1     -10.046  10.756  68.786  1.00  0.00    -0.183 NA 
HETATM   10  H   UNL     1      -9.330  10.583  69.491  1.00  0.00     0.000 HD 
BRANCH   9  11
HETATM   11  C   UNL     1     -10.262  12.087  68.352  1.00  0.00    -0.209 A  
HETATM   12  C   UNL     1      -9.613  12.678  67.239  1.00  0.00    -0.203 A  
HETATM   13  C   UNL     1      -9.971  13.972  66.820  1.00  0.00    -0.268 A  
HETATM   14  C   UNL     1      -8.509  12.027  66.459  1.00  0.00    -0.065 C  
HETATM   15  C   UNL     1     -11.001  14.667  67.436  1.00  0.00    -0.309 A  
HETATM   16  C   UNL     1     -11.667  14.092  68.510  1.00  0.00    -0.380 A  
HETATM   17  C   UNL     1     -11.302  12.817  68.981  1.00  0.00    -0.346 A  
HETATM   18  C   UNL     1     -12.054  12.260  70.164  1.00  0.00    -0.364 C  
ENDBRANCH   9  11
ENDBRANCH   6   9
ENDBRANCH   5   6
BRANCH   5  19
HETATM   19  C   UNL     1     -10.135   8.580  70.433  1.00  0.00    -0.208 C  
HETATM   20  C   UNL     1     -10.908   7.878  71.551  1.00  0.00    -0.268 C  
ENDBRANCH   5  19
ENDBRANCH   4   5
BRANCH   4  21
HETATM   21  C   UNL     1     -10.531   6.033  68.187  1.00  0.00    -0.236 C  
HETATM   22  C   UNL     1      -9.865   4.993  69.088  1.00  0.00    -0.262 C  
ENDBRANCH   4  21
ENDBRANCH   3   4
ENDBRANCH   2   3
TORSDOF 8
ENDMDL
MODEL      345
REMARK 921   NORMALIZED FREE ENERGY PREDICTED BY IDOCK:   -2.69 KCAL/MOL
REMARK 922        TOTAL FREE ENERGY PREDICTED BY IDOCK:   -4.92 KCAL/MOL
REMARK 923 INTER-LIGAND FREE ENERGY PREDICTED BY IDOCK:   -4.00 KCAL/MOL
REMARK 924 INTRA-LIGAND FREE ENERGY PREDICTED BY IDOCK:   -0.92 KCAL/MOL
REMARK 927      BINDING AFFINITY PREDICTED BY RF-SCORE:    0.00 PKD
ROOT
HETATM    1  C   UNL     1      -8.937  15.459  68.219  1.00  0.00    -0.185 C  
HETATM    2  C   UNL     1      -9.789  14.275  67.787  1.00  0.00    -0.223 C  
ENDROOT
BRANCH   2   3
HETATM    3  C   UNL     1      -8.994  13.224  66.984  1.00  0.00    -0.228 C  
BRANCH   3   4
HETATM    4  N   UNL     1      -9.765  12.377  66.037  1.00  0.00    -0.253 NA 
BRANCH   4   5
HETATM    5  C   UNL     1      -9.258  10.950  66.020  1.00  0.00    -0.188 C  
BRANCH   5   6
HETATM    6  C   UNL     1      -9.853  10.171  67.199  1.00  0.00    -0.187 C  
HETATM    7  H   UNL     1     -11.573   9.740  67.954  1.00  0.00     0.000 HD 
HETATM    8  O   UNL     1     -11.205  10.222  67.224  1.00  0.00    -0.252 OA 
BRANCH   6   9
HETATM    9  N   UNL     1      -9.124   9.564  68.069  1.00  0.00    -0.123 NA 
HETATM   10  H   UNL     1      -8.222   9.970  68.316  1.00  0.00     0.000 HD 
BRANCH   9  11
HETATM   11  C   UNL     1      -9.519   8.358  68.700  1.00  0.00    -0.147 A  
HETATM   12  C   UNL     1     -10.278   8.296  69.896  1.00  0.00    -0.201 A  
HETATM   13  C   UNL     1     -10.714   7.053  70.389  1.00  0.00    -0.259 A  
HETATM   14  C   UNL     1     -10.640   9.488  70.732  1.00  0.00    -0.387 C  
HETATM   15  C   UNL     1     -10.474   5.879  69.692  1.00  0.00    -0.346 A  
HETATM   16  C   UNL     1      -9.758   5.925  68.503  1.00  0.00    -0.151 A  
HETATM   17  C   UNL     1      -9.269   7.148  68.006  1.00  0.00    -0.130 A  
HETATM   18  C   UNL     1      -8.483   7.122  66.719  1.00  0.00    -0.121 C  
ENDBRANCH   9  11
ENDBRANCH   6   9
ENDBRANCH   5   6
BRANCH   5  19
HETATM   19  C   UNL     1      -7.715  10.786  66.109  1.00  0.00    -0.149 C  
HETATM   20  C   UNL     1      -7.071   9.961  64.993  1.00  0.00    -0.131 C  
ENDBRANCH   5  19
ENDBRANCH   4   5
BRANCH   4  21
HETATM   21  C   UNL     1      -9.753  12.977  64.675  1.00  0.00     0.149 C  
HETATM   22  C   UNL     1     -10.557  12.275  63.580  1.00  0.00    -0.488 C  
ENDBRANCH   4  21
ENDBRANCH   3   4
ENDBRANCH   2   3
TORSDOF 8
ENDMDL
MODEL      346
REMARK 921   NORMALIZED FREE ENERGY PREDICTED BY IDOCK:   -2.66 KCAL/MOL
REMARK 922        TOTAL FREE ENERGY PREDICTED BY IDOCK:   -4.87 KCAL/MOL
REMARK 923 INTER-LIGAND FREE ENERGY PREDICTED BY IDOCK:   -3.84 KCAL/MOL
REMARK 924 INTRA-LIGAND FREE ENERGY PREDICTED BY IDOCK:   -1.03 KCAL/MOL
REMARK 927      BINDING AFFINITY PREDICTED BY RF-SCORE:    0.00 PKD
ROOT
HETATM    1  C   UNL     1      -5.644   7.985  67.633  1.00  0.00    -0.038 C  
HETATM    2  C   UNL     1      -6.045   7.315  68.940  1.00  0.00    -0.026 C  
ENDROOT
BRANCH   2   3
HETATM    3  C   UNL     1      -6.803   8.263  69.893  1.00  0.00    -0.043 C  
BRANCH   3   4
HETATM    4  N   UNL     1      -8.286   8.244  69.819  1.00  0.00    -0.121 NA 
BRANCH   4   5
HETATM    5  C   UNL     1      -8.852   9.627  69.564  1.00  0.00    -0.190 C  
BRANCH   5   6
HETATM    6  C   UNL     1      -9.972   9.547  68.519  1.00  0.00    -0.167 C  
HETATM    7  H   UNL     1     -10.189   9.399  66.609  1.00  0.00     0.000 HD 
HETATM    8  O   UNL     1      -9.495   9.449  67.256  1.00  0.00    -0.129 OA 
BRANCH   6   9
HETATM    9  N   UNL     1     -11.219   9.595  68.833  1.00  0.00    -0.459 NA 
HETATM   10  H   UNL     1     -11.844   8.882  68.457  1.00  0.00     0.000 HD 
BRANCH   9  11
HETATM   11  C   UNL     1     -11.763  10.594  69.678  1.00  0.00    -0.296 A  
HETATM   12  C   UNL     1     -11.859  11.966  69.331  1.00  0.00    -0.389 A  
HETATM   13  C   UNL     1     -12.511  12.866  70.193  1.00  0.00    -0.144 A  
HETATM   14  C   UNL     1     -11.271  12.568  68.089  1.00  0.00    -0.312 C  
HETATM   15  C   UNL     1     -13.127  12.429  71.356  1.00  0.00    -0.299 A  
HETATM   16  C   UNL     1     -13.068  11.085  71.697  1.00  0.00    -0.543 A  
HETATM   17  C   UNL     1     -12.384  10.166  70.878  1.00  0.00    -0.461 A  
HETATM   18  C   UNL     1     -12.343   8.724  71.318  1.00  0.00    -0.313 C  
ENDBRANCH   9  11
ENDBRANCH   6   9
ENDBRANCH   5   6
BRANCH   5  19
HETATM   19  C   UNL     1      -7.835  10.682  69.050  1.00  0.00    -0.137 C  
HETATM   20  C   UNL     1      -8.245  12.144  69.238  1.00  0.00     0.626 C  
ENDBRANCH   5  19
ENDBRANCH   4   5
BRANCH   4  21
HETATM   21  C   UNL     1      -8.861   7.638  71.051  1.00  0.00    -0.142 C  
HETATM   22  C   UNL     1      -8.607   8.348  72.381  1.00  0.00    -0.261 C  
ENDBRANCH   4  21
ENDBRANCH   3   4
ENDBRANCH   2   3
TORSDOF 8
ENDMDL
MODEL      347
REMARK 921   NORMALIZED FREE ENERGY PREDICTED BY IDOCK:   -2.66 KCAL/MOL
REMARK 922        TOTAL FREE ENERGY PREDICTED BY IDOCK:   -4.87 KCAL/MOL
REMARK 923 INTER-LIGAND FREE ENERGY PREDICTED BY IDOCK:   -4.00 KCAL/MOL
REMARK 924 INTRA-LIGAND FREE ENERGY PREDICTED BY IDOCK:   -0.87 KCAL/MOL
REMARK 927      BINDING AFFINITY PREDICTED BY RF-SCORE:    0.00 PKD
ROOT
HETATM    1  C   UNL     1     -11.125   6.566  66.928  1.00  0.00    -0.342 C  
HETATM    2  C   UNL     1      -9.758   5.899  66.859  1.00  0.00    -0.168 C  
ENDROOT
BRANCH   2   3
HETATM    3  C   UNL     1      -9.144   5.643  68.251  1.00  0.00    -0.110 C  
BRANCH   3   4
HETATM    4  N   UNL     1     -10.077   5.236  69.333  1.00  0.00    -0.221 NA 
BRANCH   4   5
HETATM    5  C   UNL     1     -10.087   6.237  70.471  1.00  0.00    -0.189 C  
BRANCH   5   6
HETATM    6  C   UNL     1      -8.807   7.080  70.436  1.00  0.00    -0.155 C  
HETATM    7  H   UNL     1      -6.894   6.844  70.450  1.00  0.00     0.000 HD 
HETATM    8  O   UNL     1      -7.687   6.321  70.472  1.00  0.00    -0.097 OA 
BRANCH   6   9
HETATM    9  N   UNL     1      -8.823   8.366  70.401  1.00  0.00    -0.142 NA 
HETATM   10  H   UNL     1      -8.542   8.880  71.235  1.00  0.00     0.000 HD 
BRANCH   9  11
HETATM   11  C   UNL     1      -9.214   9.101  69.254  1.00  0.00    -0.146 A  
HETATM   12  C   UNL     1      -8.450   9.186  68.063  1.00  0.00    -0.121 A  
HETATM   13  C   UNL     1      -8.970   9.852  66.938  1.00  0.00    -0.154 A  
HETATM   14  C   UNL     1      -7.065   8.632  67.905  1.00  0.00    -0.083 C  
HETATM   15  C   UNL     1     -10.253  10.377  66.944  1.00  0.00    -0.281 A  
HETATM   16  C   UNL     1     -11.027  10.277  68.092  1.00  0.00    -0.328 A  
HETATM   17  C   UNL     1     -10.519   9.656  69.249  1.00  0.00    -0.232 A  
HETATM   18  C   UNL     1     -11.406   9.600  70.467  1.00  0.00    -0.360 C  
ENDBRANCH   9  11
ENDBRANCH   6   9
ENDBRANCH   5   6
BRANCH   5  19
HETATM   19  C   UNL     1     -10.183   5.628  71.897  1.00  0.00    -0.244 C  
HETATM   20  C   UNL     1     -11.519   5.832  72.616  1.00  0.00    -0.337 C  
ENDBRANCH   5  19
ENDBRANCH   4   5
BRANCH   4  21
HETATM   21  C   UNL     1      -9.752   3.866  69.814  1.00  0.00    -0.156 C  
HETATM   22  C   UNL     1      -8.712   3.064  69.030  1.00  0.00    -0.133 C  
ENDBRANCH   4  21
ENDBRANCH   3   4
ENDBRANCH   2   3
TORSDOF 8
ENDMDL
MODEL      348
REMARK 921   NORMALIZED FREE ENERGY PREDICTED BY IDOCK:   -2.66 KCAL/MOL
REMARK 922        TOTAL FREE ENERGY PREDICTED BY IDOCK:   -4.87 KCAL/MOL
REMARK 923 INTER-LIGAND FREE ENERGY PREDICTED BY IDOCK:   -4.01 KCAL/MOL
REMARK 924 INTRA-LIGAND FREE ENERGY PREDICTED BY IDOCK:   -0.87 KCAL/MOL
REMARK 927      BINDING AFFINITY PREDICTED BY RF-SCORE:    0.00 PKD
ROOT
HETATM    1  C   UNL     1     -11.904  11.700  69.708  1.00  0.00    -0.428 C  
HETATM    2  C   UNL     1     -11.537  11.325  68.280  1.00  0.00    -0.370 C  
ENDROOT
BRANCH   2   3
HETATM    3  C   UNL     1     -11.014   9.879  68.154  1.00  0.00    -0.207 C  
BRANCH   3   4
HETATM    4  N   UNL     1     -10.307   9.527  66.896  1.00  0.00    -0.244 NA 
BRANCH   4   5
HETATM    5  C   UNL     1      -8.867   9.132  67.153  1.00  0.00    -0.119 C  
BRANCH   5   6
HETATM    6  C   UNL     1      -8.816   7.752  67.820  1.00  0.00    -0.126 C  
HETATM    7  H   UNL     1      -8.988   5.889  67.354  1.00  0.00     0.000 HD 
HETATM    8  O   UNL     1      -9.020   6.744  66.940  1.00  0.00    -0.121 OA 
BRANCH   6   9
HETATM    9  N   UNL     1      -8.623   7.598  69.083  1.00  0.00    -0.138 NA 
HETATM   10  H   UNL     1      -8.344   8.408  69.636  1.00  0.00     0.000 HD 
BRANCH   9  11
HETATM   11  C   UNL     1      -8.783   6.353  69.741  1.00  0.00    -0.138 A  
HETATM   12  C   UNL     1     -10.037   5.796  70.100  1.00  0.00    -0.274 A  
HETATM   13  C   UNL     1     -10.101   4.506  70.655  1.00  0.00    -0.232 A  
HETATM   14  C   UNL     1     -11.350   6.510  69.964  1.00  0.00    -0.472 C  
HETATM   15  C   UNL     1      -8.963   3.728  70.800  1.00  0.00    -0.157 A  
HETATM   16  C   UNL     1      -7.730   4.246  70.426  1.00  0.00    -0.049 A  
HETATM   17  C   UNL     1      -7.626   5.551  69.910  1.00  0.00    -0.074 A  
HETATM   18  C   UNL     1      -6.254   6.058  69.542  1.00  0.00    -0.030 C  
ENDBRANCH   9  11
ENDBRANCH   6   9
ENDBRANCH   5   6
BRANCH   5  19
HETATM   19  C   UNL     1      -8.060  10.099  68.064  1.00  0.00    -0.112 C  
HETATM   20  C   UNL     1      -6.983  10.927  67.360  1.00  0.00    -0.084 C  
ENDBRANCH   5  19
ENDBRANCH   4   5
BRANCH   4  21
HETATM   21  C   UNL     1     -10.400  10.643  65.917  1.00  0.00    -0.224 C  
HETATM   22  C   UNL     1      -9.871  10.397  64.503  1.00  0.00    -0.405 C  
ENDBRANCH   4  21
ENDBRANCH   3   4
ENDBRANCH   2   3
TORSDOF 8
ENDMDL
MODEL      349
REMARK 921   NORMALIZED FREE ENERGY PREDICTED BY IDOCK:   -2.66 KCAL/MOL
REMARK 922        TOTAL FREE ENERGY PREDICTED BY IDOCK:   -4.87 KCAL/MOL
REMARK 923 INTER-LIGAND FREE ENERGY PREDICTED BY IDOCK:   -4.18 KCAL/MOL
REMARK 924 INTRA-LIGAND FREE ENERGY PREDICTED BY IDOCK:   -0.69 KCAL/MOL
REMARK 927      BINDING AFFINITY PREDICTED BY RF-SCORE:    0.00 PKD
ROOT
HETATM    1  C   UNL     1     -13.019  13.654  65.382  1.00  0.00    -0.331 C  
HETATM    2  C   UNL     1     -12.035  14.506  64.593  1.00  0.00    -0.478 C  
ENDROOT
BRANCH   2   3
HETATM    3  C   UNL     1     -10.593  13.958  64.642  1.00  0.00    -0.412 C  
BRANCH   3   4
HETATM    4  N   UNL     1     -10.435  12.502  64.890  1.00  0.00    -0.294 NA 
BRANCH   4   5
HETATM    5  C   UNL     1      -9.666  12.230  66.166  1.00  0.00    -0.245 C  
BRANCH   5   6
HETATM    6  C   UNL     1     -10.211  10.968  66.845  1.00  0.00    -0.222 C  
HETATM    7  H   UNL     1     -11.693  10.417  67.947  1.00  0.00     0.000 HD 
HETATM    8  O   UNL     1     -11.356  11.200  67.527  1.00  0.00    -0.354 OA 
BRANCH   6   9
HETATM    9  N   UNL     1      -9.612   9.830  66.777  1.00  0.00    -0.169 NA 
HETATM   10  H   UNL     1      -9.178   9.560  65.895  1.00  0.00     0.000 HD 
BRANCH   9  11
HETATM   11  C   UNL     1      -9.528   8.937  67.874  1.00  0.00    -0.142 A  
HETATM   12  C   UNL     1     -10.155   7.666  67.917  1.00  0.00    -0.231 A  
HETATM   13  C   UNL     1      -9.927   6.805  69.006  1.00  0.00    -0.161 A  
HETATM   14  C   UNL     1     -11.104   7.155  66.874  1.00  0.00    -0.048 C  
HETATM   15  C   UNL     1      -9.044   7.145  70.018  1.00  0.00    -0.145 A  
HETATM   16  C   UNL     1      -8.399   8.374  69.978  1.00  0.00    -0.123 A  
HETATM   17  C   UNL     1      -8.639   9.277  68.925  1.00  0.00    -0.130 A  
HETATM   18  C   UNL     1      -7.920  10.602  68.954  1.00  0.00    -0.132 C  
ENDBRANCH   9  11
ENDBRANCH   6   9
ENDBRANCH   5   6
BRANCH   5  19
HETATM   19  C   UNL     1      -9.710  13.364  67.229  1.00  0.00    -0.232 C  
HETATM   20  C   UNL     1      -8.358  13.776  67.814  1.00  0.00    -0.180 C  
ENDBRANCH   5  19
ENDBRANCH   4   5
BRANCH   4  21
HETATM   21  C   UNL     1      -9.799  11.841  63.718  1.00  0.00    -0.304 C  
HETATM   22  C   UNL     1     -10.395  10.517  63.236  1.00  0.00     0.155 C  
ENDBRANCH   4  21
ENDBRANCH   3   4
ENDBRANCH   2   3
TORSDOF 8
ENDMDL
MODEL      350
REMARK 921   NORMALIZED FREE ENERGY PREDICTED BY IDOCK:   -2.65 KCAL/MOL
REMARK 922        TOTAL FREE ENERGY PREDICTED BY IDOCK:   -4.86 KCAL/MOL
REMARK 923 INTER-LIGAND FREE ENERGY PREDICTED BY IDOCK:   -3.94 KCAL/MOL
REMARK 924 INTRA-LIGAND FREE ENERGY PREDICTED BY IDOCK:   -0.92 KCAL/MOL
REMARK 927      BINDING AFFINITY PREDICTED BY RF-SCORE:    0.00 PKD
ROOT
HETATM    1  C   UNL     1     -12.079   7.269  70.602  1.00  0.00    -0.226 C  
HETATM    2  C   UNL     1     -11.125   6.206  70.076  1.00  0.00    -0.462 C  
ENDROOT
BRANCH   2   3
HETATM    3  C   UNL     1     -10.238   6.715  68.920  1.00  0.00    -0.177 C  
BRANCH   3   4
HETATM    4  N   UNL     1      -9.386   7.901  69.198  1.00  0.00    -0.154 NA 
BRANCH   4   5
HETATM    5  C   UNL     1      -8.966   8.601  67.922  1.00  0.00    -0.140 C  
BRANCH   5   6
HETATM    6  C   UNL     1      -9.833   9.845  67.699  1.00  0.00    -0.163 C  
HETATM    7  H   UNL     1     -11.047  10.572  66.390  1.00  0.00     0.000 HD 
HETATM    8  O   UNL     1     -10.509   9.802  66.527  1.00  0.00    -0.211 OA 
BRANCH   6   9
HETATM    9  N   UNL     1      -9.877  10.820  68.537  1.00  0.00    -0.169 NA 
HETATM   10  H   UNL     1     -10.239  10.642  69.473  1.00  0.00     0.000 HD 
BRANCH   9  11
HETATM   11  C   UNL     1      -9.442  12.131  68.218  1.00  0.00    -0.204 A  
HETATM   12  C   UNL     1      -8.082  12.518  68.118  1.00  0.00    -0.167 A  
HETATM   13  C   UNL     1      -7.749  13.816  67.692  1.00  0.00    -0.187 A  
HETATM   14  C   UNL     1      -6.923  11.635  68.476  1.00  0.00    -0.085 C  
HETATM   15  C   UNL     1      -8.726  14.716  67.298  1.00  0.00    -0.224 A  
HETATM   16  C   UNL     1     -10.063  14.344  67.361  1.00  0.00    -0.243 A  
HETATM   17  C   UNL     1     -10.432  13.068  67.827  1.00  0.00    -0.232 A  
HETATM   18  C   UNL     1     -11.902  12.737  67.888  1.00  0.00    -0.392 C  
ENDBRANCH   9  11
ENDBRANCH   6   9
ENDBRANCH   5   6
BRANCH   5  19
HETATM   19  C   UNL     1      -9.065   7.748  66.626  1.00  0.00    -0.195 C  
HETATM   20  C   UNL     1      -7.827   7.764  65.727  1.00  0.00    -0.104 C  
ENDBRANCH   5  19
ENDBRANCH   4   5
BRANCH   4  21
HETATM   21  C   UNL     1      -8.209   7.514  70.022  1.00  0.00    -0.130 C  
HETATM   22  C   UNL     1      -7.412   8.632  70.695  1.00  0.00    -0.074 C  
ENDBRANCH   4  21
ENDBRANCH   3   4
ENDBRANCH   2   3
TORSDOF 8
ENDMDL
MODEL      351
REMARK 921   NORMALIZED FREE ENERGY PREDICTED BY IDOCK:   -2.64 KCAL/MOL
REMARK 922        TOTAL FREE ENERGY PREDICTED BY IDOCK:   -4.84 KCAL/MOL
REMARK 923 INTER-LIGAND FREE ENERGY PREDICTED BY IDOCK:   -4.07 KCAL/MOL
REMARK 924 INTRA-LIGAND FREE ENERGY PREDICTED BY IDOCK:   -0.77 KCAL/MOL
REMARK 927      BINDING AFFINITY PREDICTED BY RF-SCORE:    0.00 PKD
ROOT
HETATM    1  C   UNL     1      -6.876   3.454  64.631  1.00  0.00    -0.048 C  
HETATM    2  C   UNL     1      -7.215   2.919  66.015  1.00  0.00    -0.066 C  
ENDROOT
BRANCH   2   3
HETATM    3  C   UNL     1      -7.718   4.016  66.976  1.00  0.00    -0.085 C  
BRANCH   3   4
HETATM    4  N   UNL     1      -9.086   3.846  67.532  1.00  0.00    -0.139 NA 
BRANCH   4   5
HETATM    5  C   UNL     1      -9.420   4.928  68.539  1.00  0.00    -0.143 C  
BRANCH   5   6
HETATM    6  C   UNL     1     -10.649   5.715  68.069  1.00  0.00    -0.188 C  
HETATM    7  H   UNL     1     -11.553   6.186  66.433  1.00  0.00     0.000 HD 
HETATM    8  O   UNL     1     -10.791   5.698  66.724  1.00  0.00    -0.291 OA 
BRANCH   6   9
HETATM    9  N   UNL     1     -11.429   6.335  68.884  1.00  0.00    -0.495 NA 
HETATM   10  H   UNL     1     -12.390   6.008  68.982  1.00  0.00     0.000 HD 
BRANCH   9  11
HETATM   11  C   UNL     1     -11.012   7.452  69.650  1.00  0.00    -0.172 A  
HETATM   12  C   UNL     1     -10.584   8.684  69.095  1.00  0.00    -0.193 A  
HETATM   13  C   UNL     1     -10.290   9.772  69.937  1.00  0.00    -0.291 A  
HETATM   14  C   UNL     1     -10.377   8.926  67.629  1.00  0.00    -0.313 C  
HETATM   15  C   UNL     1     -10.474   9.688  71.309  1.00  0.00    -0.216 A  
HETATM   16  C   UNL     1     -10.921   8.498  71.867  1.00  0.00    -0.394 A  
HETATM   17  C   UNL     1     -11.181   7.378  71.056  1.00  0.00    -0.285 A  
HETATM   18  C   UNL     1     -11.645   6.111  71.729  1.00  0.00    -0.333 C  
ENDBRANCH   9  11
ENDBRANCH   6   9
ENDBRANCH   5   6
BRANCH   5  19
HETATM   19  C   UNL     1      -8.296   5.968  68.802  1.00  0.00    -0.106 C  
HETATM   20  C   UNL     1      -7.447   5.724  70.051  1.00  0.00    -0.075 C  
ENDBRANCH   5  19
ENDBRANCH   4   5
BRANCH   4  21
HETATM   21  C   UNL     1      -9.244   2.487  68.118  1.00  0.00    -0.205 C  
HETATM   22  C   UNL     1      -9.568   2.387  69.609  1.00  0.00    -0.036 C  
ENDBRANCH   4  21
ENDBRANCH   3   4
ENDBRANCH   2   3
TORSDOF 8
ENDMDL
MODEL      352
REMARK 921   NORMALIZED FREE ENERGY PREDICTED BY IDOCK:   -2.64 KCAL/MOL
REMARK 922        TOTAL FREE ENERGY PREDICTED BY IDOCK:   -4.84 KCAL/MOL
REMARK 923 INTER-LIGAND FREE ENERGY PREDICTED BY IDOCK:   -4.57 KCAL/MOL
REMARK 924 INTRA-LIGAND FREE ENERGY PREDICTED BY IDOCK:   -0.27 KCAL/MOL
REMARK 927      BINDING AFFINITY PREDICTED BY RF-SCORE:    0.00 PKD
ROOT
HETATM    1  C   UNL     1     -11.396  11.485  63.117  1.00  0.00    -0.068 C  
HETATM    2  C   UNL     1     -10.256  11.733  64.094  1.00  0.00    -0.363 C  
ENDROOT
BRANCH   2   3
HETATM    3  C   UNL     1      -9.749  10.439  64.766  1.00  0.00    -0.320 C  
BRANCH   3   4
HETATM    4  N   UNL     1     -10.309  10.110  66.102  1.00  0.00    -0.204 NA 
BRANCH   4   5
HETATM    5  C   UNL     1     -10.181  11.273  67.065  1.00  0.00    -0.215 C  
BRANCH   5   6
HETATM    6  C   UNL     1      -8.758  11.842  67.008  1.00  0.00    -0.181 C  
HETATM    7  H   UNL     1      -6.935  11.262  67.240  1.00  0.00     0.000 HD 
HETATM    8  O   UNL     1      -7.816  10.909  67.276  1.00  0.00    -0.110 OA 
BRANCH   6   9
HETATM    9  N   UNL     1      -8.516  13.081  66.755  1.00  0.00    -0.419 NA 
HETATM   10  H   UNL     1      -8.121  13.325  65.847  1.00  0.00     0.000 HD 
BRANCH   9  11
HETATM   11  C   UNL     1      -8.774  14.121  67.683  1.00  0.00    -0.187 A  
HETATM   12  C   UNL     1      -7.898  14.486  68.735  1.00  0.00    -0.145 A  
HETATM   13  C   UNL     1      -8.190  15.601  69.540  1.00  0.00    -0.175 A  
HETATM   14  C   UNL     1      -6.653  13.732  69.100  1.00  0.00    -0.112 C  
HETATM   15  C   UNL     1      -9.292  16.402  69.286  1.00  0.00    -0.175 A  
HETATM   16  C   UNL     1     -10.146  16.077  68.240  1.00  0.00    -0.229 A  
HETATM   17  C   UNL     1      -9.906  14.941  67.444  1.00  0.00    -0.221 A  
HETATM   18  C   UNL     1     -10.883  14.635  66.337  1.00  0.00    -0.315 C  
ENDBRANCH   9  11
ENDBRANCH   6   9
ENDBRANCH   5   6
BRANCH   5  19
HETATM   19  C   UNL     1     -10.471  10.942  68.556  1.00  0.00    -0.209 C  
HETATM   20  C   UNL     1     -11.316  11.971  69.309  1.00  0.00    -0.330 C  
ENDBRANCH   5  19
ENDBRANCH   4   5
BRANCH   4  21
HETATM   21  C   UNL     1      -9.675   8.878  66.644  1.00  0.00    -0.237 C  
HETATM   22  C   UNL     1     -10.569   7.660  66.879  1.00  0.00    -0.359 C  
ENDBRANCH   4  21
ENDBRANCH   3   4
ENDBRANCH   2   3
TORSDOF 8
ENDMDL
MODEL      353
REMARK 921   NORMALIZED FREE ENERGY PREDICTED BY IDOCK:   -2.63 KCAL/MOL
REMARK 922        TOTAL FREE ENERGY PREDICTED BY IDOCK:   -4.83 KCAL/MOL
REMARK 923 INTER-LIGAND FREE ENERGY PREDICTED BY IDOCK:   -4.91 KCAL/MOL
REMARK 924 INTRA-LIGAND FREE ENERGY PREDICTED BY IDOCK:    0.08 KCAL/MOL
REMARK 927      BINDING AFFINITY PREDICTED BY RF-SCORE:    0.00 PKD
ROOT
HETATM    1  C   UNL     1     -11.834  14.283  69.462  1.00  0.00    -0.378 C  
HETATM    2  C   UNL     1     -12.028  14.107  67.962  1.00  0.00    -0.372 C  
ENDROOT
BRANCH   2   3
HETATM    3  C   UNL     1     -11.851  12.645  67.501  1.00  0.00    -0.334 C  
BRANCH   3   4
HETATM    4  N   UNL     1     -11.484  12.429  66.078  1.00  0.00    -0.363 NA 
BRANCH   4   5
HETATM    5  C   UNL     1     -10.335  11.452  65.936  1.00  0.00    -0.250 C  
BRANCH   5   6
HETATM    6  C   UNL     1      -9.322  11.670  67.066  1.00  0.00    -0.181 C  
HETATM    7  H   UNL     1      -9.065  11.200  68.918  1.00  0.00     0.000 HD 
HETATM    8  O   UNL     1      -9.693  11.065  68.218  1.00  0.00    -0.164 OA 
BRANCH   6   9
HETATM    9  N   UNL     1      -8.257  12.377  66.917  1.00  0.00    -0.337 NA 
HETATM   10  H   UNL     1      -7.715  12.266  66.060  1.00  0.00     0.000 HD 
BRANCH   9  11
HETATM   11  C   UNL     1      -7.804  13.303  67.889  1.00  0.00    -0.152 A  
HETATM   12  C   UNL     1      -6.977  12.964  68.989  1.00  0.00    -0.058 A  
HETATM   13  C   UNL     1      -6.491  13.971  69.842  1.00  0.00    -0.098 A  
HETATM   14  C   UNL     1      -6.588  11.561  69.355  1.00  0.00    -0.117 C  
HETATM   15  C   UNL     1      -6.749  15.309  69.593  1.00  0.00    -0.181 A  
HETATM   16  C   UNL     1      -7.533  15.663  68.503  1.00  0.00    -0.123 A  
HETATM   17  C   UNL     1      -8.072  14.676  67.656  1.00  0.00    -0.185 A  
HETATM   18  C   UNL     1      -8.931  15.128  66.502  1.00  0.00    -0.326 C  
ENDBRANCH   9  11
ENDBRANCH   6   9
ENDBRANCH   5   6
BRANCH   5  19
HETATM   19  C   UNL     1      -9.543  11.538  64.602  1.00  0.00    -0.186 C  
HETATM   20  C   UNL     1      -9.637  10.309  63.696  1.00  0.00    -0.334 C  
ENDBRANCH   5  19
ENDBRANCH   4   5
BRANCH   4  21
HETATM   21  C   UNL     1     -11.181  13.727  65.416  1.00  0.00    -0.302 C  
HETATM   22  C   UNL     1     -12.209  14.281  64.428  1.00  0.00    -0.471 C  
ENDBRANCH   4  21
ENDBRANCH   3   4
ENDBRANCH   2   3
TORSDOF 8
ENDMDL
MODEL      354
REMARK 921   NORMALIZED FREE ENERGY PREDICTED BY IDOCK:   -2.63 KCAL/MOL
REMARK 922        TOTAL FREE ENERGY PREDICTED BY IDOCK:   -4.83 KCAL/MOL
REMARK 923 INTER-LIGAND FREE ENERGY PREDICTED BY IDOCK:   -4.47 KCAL/MOL
REMARK 924 INTRA-LIGAND FREE ENERGY PREDICTED BY IDOCK:   -0.36 KCAL/MOL
REMARK 927      BINDING AFFINITY PREDICTED BY RF-SCORE:    0.00 PKD
ROOT
HETATM    1  C   UNL     1      -5.502  11.061  70.714  1.00  0.00    -0.124 C  
HETATM    2  C   UNL     1      -5.995   9.944  69.806  1.00  0.00    -0.043 C  
ENDROOT
BRANCH   2   3
HETATM    3  C   UNL     1      -6.970  10.441  68.718  1.00  0.00    -0.068 C  
BRANCH   3   4
HETATM    4  N   UNL     1      -8.296   9.774  68.649  1.00  0.00    -0.109 NA 
BRANCH   4   5
HETATM    5  C   UNL     1      -9.130  10.303  67.500  1.00  0.00    -0.137 C  
BRANCH   5   6
HETATM    6  C   UNL     1      -9.378  11.804  67.683  1.00  0.00    -0.180 C  
HETATM    7  H   UNL     1     -10.610  12.990  68.573  1.00  0.00     0.000 HD 
HETATM    8  O   UNL     1     -10.457  12.060  68.459  1.00  0.00    -0.218 OA 
BRANCH   6   9
HETATM    9  N   UNL     1      -8.642  12.702  67.128  1.00  0.00    -0.196 NA 
HETATM   10  H   UNL     1      -7.648  12.510  67.006  1.00  0.00     0.000 HD 
BRANCH   9  11
HETATM   11  C   UNL     1      -9.151  13.947  66.680  1.00  0.00    -0.190 A  
HETATM   12  C   UNL     1     -10.046  14.096  65.591  1.00  0.00    -0.350 A  
HETATM   13  C   UNL     1     -10.580  15.361  65.287  1.00  0.00    -0.450 A  
HETATM   14  C   UNL     1     -10.463  12.980  64.679  1.00  0.00    -0.400 C  
HETATM   15  C   UNL     1     -10.301  16.467  66.074  1.00  0.00    -0.365 A  
HETATM   16  C   UNL     1      -9.449  16.334  67.162  1.00  0.00    -0.231 A  
HETATM   17  C   UNL     1      -8.863  15.091  67.466  1.00  0.00    -0.193 A  
HETATM   18  C   UNL     1      -7.931  15.021  68.651  1.00  0.00    -0.153 C  
ENDBRANCH   9  11
ENDBRANCH   6   9
ENDBRANCH   5   6
BRANCH   5  19
HETATM   19  C   UNL     1     -10.523   9.637  67.322  1.00  0.00    -0.323 C  
HETATM   20  C   UNL     1     -10.510   8.216  66.755  1.00  0.00    -0.316 C  
ENDBRANCH   5  19
ENDBRANCH   4   5
BRANCH   4  21
HETATM   21  C   UNL     1      -9.011   9.902  69.947  1.00  0.00    -0.202 C  
HETATM   22  C   UNL     1      -9.409   8.615  70.672  1.00  0.00    -0.218 C  
ENDBRANCH   4  21
ENDBRANCH   3   4
ENDBRANCH   2   3
TORSDOF 8
ENDMDL
MODEL      355
REMARK 921   NORMALIZED FREE ENERGY PREDICTED BY IDOCK:   -2.63 KCAL/MOL
REMARK 922        TOTAL FREE ENERGY PREDICTED BY IDOCK:   -4.83 KCAL/MOL
REMARK 923 INTER-LIGAND FREE ENERGY PREDICTED BY IDOCK:   -3.98 KCAL/MOL
REMARK 924 INTRA-LIGAND FREE ENERGY PREDICTED BY IDOCK:   -0.84 KCAL/MOL
REMARK 927      BINDING AFFINITY PREDICTED BY RF-SCORE:    0.00 PKD
ROOT
HETATM    1  C   UNL     1      -6.673   4.506  69.442  1.00  0.00    -0.045 C  
HETATM    2  C   UNL     1      -7.907   5.378  69.621  1.00  0.00    -0.078 C  
ENDROOT
BRANCH   2   3
HETATM    3  C   UNL     1      -8.255   6.194  68.358  1.00  0.00    -0.115 C  
BRANCH   3   4
HETATM    4  N   UNL     1      -9.494   7.012  68.406  1.00  0.00    -0.133 NA 
BRANCH   4   5
HETATM    5  C   UNL     1      -9.228   8.402  68.947  1.00  0.00    -0.147 C  
BRANCH   5   6
HETATM    6  C   UNL     1      -9.914   9.447  68.060  1.00  0.00    -0.176 C  
HETATM    7  H   UNL     1     -11.676   9.908  67.428  1.00  0.00     0.000 HD 
HETATM    8  O   UNL     1     -11.252   9.260  67.978  1.00  0.00     0.009 OA 
BRANCH   6   9
HETATM    9  N   UNL     1      -9.262  10.375  67.450  1.00  0.00    -0.142 NA 
HETATM   10  H   UNL     1      -8.539  10.879  67.962  1.00  0.00     0.000 HD 
BRANCH   9  11
HETATM   11  C   UNL     1      -9.505  10.726  66.099  1.00  0.00    -0.187 A  
HETATM   12  C   UNL     1      -9.210   9.891  64.993  1.00  0.00    -0.295 A  
HETATM   13  C   UNL     1      -9.584  10.282  63.695  1.00  0.00    -0.334 A  
HETATM   14  C   UNL     1      -8.472   8.588  65.089  1.00  0.00    -0.193 C  
HETATM   15  C   UNL     1     -10.301  11.447  63.475  1.00  0.00    -0.476 A  
HETATM   16  C   UNL     1     -10.625  12.264  64.550  1.00  0.00    -0.346 A  
HETATM   17  C   UNL     1     -10.226  11.923  65.856  1.00  0.00    -0.270 A  
HETATM   18  C   UNL     1     -10.594  12.864  66.975  1.00  0.00    -0.261 C  
ENDBRANCH   9  11
ENDBRANCH   6   9
ENDBRANCH   5   6
BRANCH   5  19
HETATM   19  C   UNL     1      -7.732   8.808  69.043  1.00  0.00    -0.091 C  
HETATM   20  C   UNL     1      -7.296   9.421  70.376  1.00  0.00    -0.124 C  
ENDBRANCH   5  19
ENDBRANCH   4   5
BRANCH   4  21
HETATM   21  C   UNL     1     -10.549   6.313  69.189  1.00  0.00    -0.268 C  
HETATM   22  C   UNL     1     -10.975   6.931  70.521  1.00  0.00    -0.313 C  
ENDBRANCH   4  21
ENDBRANCH   3   4
ENDBRANCH   2   3
TORSDOF 8
ENDMDL
MODEL      356
REMARK 921   NORMALIZED FREE ENERGY PREDICTED BY IDOCK:   -2.62 KCAL/MOL
REMARK 922        TOTAL FREE ENERGY PREDICTED BY IDOCK:   -4.82 KCAL/MOL
REMARK 923 INTER-LIGAND FREE ENERGY PREDICTED BY IDOCK:   -3.45 KCAL/MOL
REMARK 924 INTRA-LIGAND FREE ENERGY PREDICTED BY IDOCK:   -1.37 KCAL/MOL
REMARK 927      BINDING AFFINITY PREDICTED BY RF-SCORE:    0.00 PKD
ROOT
HETATM    1  C   UNL     1      -7.841   4.211  65.288  1.00  0.00    -0.086 C  
HETATM    2  C   UNL     1      -7.788   4.861  66.663  1.00  0.00    -0.099 C  
ENDROOT
BRANCH   2   3
HETATM    3  C   UNL     1      -8.536   6.209  66.719  1.00  0.00    -0.111 C  
BRANCH   3   4
HETATM    4  N   UNL     1      -9.216   6.548  67.997  1.00  0.00    -0.113 NA 
BRANCH   4   5
HETATM    5  C   UNL     1      -8.476   7.631  68.756  1.00  0.00    -0.129 C  
BRANCH   5   6
HETATM    6  C   UNL     1      -9.417   8.809  69.033  1.00  0.00    -0.160 C  
HETATM    7  H   UNL     1     -10.575  10.019  68.078  1.00  0.00     0.000 HD 
HETATM    8  O   UNL     1      -9.992   9.289  67.906  1.00  0.00    -0.170 OA 
BRANCH   6   9
HETATM    9  N   UNL     1      -9.603   9.286  70.214  1.00  0.00    -0.217 NA 
HETATM   10  H   UNL     1      -9.816  10.278  70.311  1.00  0.00     0.000 HD 
BRANCH   9  11
HETATM   11  C   UNL     1      -9.525   8.493  71.386  1.00  0.00    -0.213 A  
HETATM   12  C   UNL     1      -8.361   8.365  72.186  1.00  0.00    -0.225 A  
HETATM   13  C   UNL     1      -8.411   7.640  73.390  1.00  0.00    -0.204 A  
HETATM   14  C   UNL     1      -7.020   8.932  71.825  1.00  0.00    -0.035 C  
HETATM   15  C   UNL     1      -9.598   7.096  73.853  1.00  0.00    -0.319 A  
HETATM   16  C   UNL     1     -10.755   7.237  73.098  1.00  0.00    -0.411 A  
HETATM   17  C   UNL     1     -10.729   7.918  71.866  1.00  0.00    -0.290 A  
HETATM   18  C   UNL     1     -12.016   8.017  71.087  1.00  0.00    -0.297 C  
ENDBRANCH   9  11
ENDBRANCH   6   9
ENDBRANCH   5   6
BRANCH   5  19
HETATM   19  C   UNL     1      -7.226   8.215  68.041  1.00  0.00    -0.094 C  
HETATM   20  C   UNL     1      -5.879   7.875  68.680  1.00  0.00    -0.035 C  
ENDBRANCH   5  19
ENDBRANCH   4   5
BRANCH   4  21
HETATM   21  C   UNL     1      -9.401   5.328  68.828  1.00  0.00    -0.121 C  
HETATM   22  C   UNL     1      -8.649   5.249  70.157  1.00  0.00    -0.122 C  
ENDBRANCH   4  21
ENDBRANCH   3   4
ENDBRANCH   2   3
TORSDOF 8
ENDMDL
MODEL      357
REMARK 921   NORMALIZED FREE ENERGY PREDICTED BY IDOCK:   -2.58 KCAL/MOL
REMARK 922        TOTAL FREE ENERGY PREDICTED BY IDOCK:   -4.75 KCAL/MOL
REMARK 923 INTER-LIGAND FREE ENERGY PREDICTED BY IDOCK:   -5.25 KCAL/MOL
REMARK 924 INTRA-LIGAND FREE ENERGY PREDICTED BY IDOCK:    0.50 KCAL/MOL
REMARK 927      BINDING AFFINITY PREDICTED BY RF-SCORE:    0.00 PKD
ROOT
HETATM    1  C   UNL     1     -10.145   5.855  66.730  1.00  0.00    -0.235 C  
HETATM    2  C   UNL     1      -9.127   6.986  66.704  1.00  0.00    -0.175 C  
ENDROOT
BRANCH   2   3
HETATM    3  C   UNL     1      -9.480   8.134  67.674  1.00  0.00    -0.145 C  
BRANCH   3   4
HETATM    4  N   UNL     1      -9.277   9.519  67.177  1.00  0.00    -0.133 NA 
BRANCH   4   5
HETATM    5  C   UNL     1      -9.013  10.489  68.312  1.00  0.00    -0.139 C  
BRANCH   5   6
HETATM    6  C   UNL     1     -10.289  10.681  69.140  1.00  0.00    -0.221 C  
HETATM    7  H   UNL     1     -12.008  11.545  69.009  1.00  0.00     0.000 HD 
HETATM    8  O   UNL     1     -11.217  11.426  68.496  1.00  0.00    -0.207 OA 
BRANCH   6   9
HETATM    9  N   UNL     1     -10.427  10.199  70.325  1.00  0.00    -0.394 NA 
HETATM   10  H   UNL     1      -9.651  10.289  70.981  1.00  0.00     0.000 HD 
BRANCH   9  11
HETATM   11  C   UNL     1     -11.608   9.548  70.760  1.00  0.00    -0.308 A  
HETATM   12  C   UNL     1     -11.772   8.141  70.806  1.00  0.00    -0.211 A  
HETATM   13  C   UNL     1     -12.943   7.586  71.353  1.00  0.00    -0.379 A  
HETATM   14  C   UNL     1     -10.777   7.154  70.270  1.00  0.00    -0.258 C  
HETATM   15  C   UNL     1     -13.925   8.388  71.914  1.00  0.00    -0.483 A  
HETATM   16  C   UNL     1     -13.768   9.767  71.904  1.00  0.00    -0.336 A  
HETATM   17  C   UNL     1     -12.628  10.356  71.323  1.00  0.00    -0.525 A  
HETATM   18  C   UNL     1     -12.530  11.861  71.329  1.00  0.00    -0.319 C  
ENDBRANCH   9  11
ENDBRANCH   6   9
ENDBRANCH   5   6
BRANCH   5  19
HETATM   19  C   UNL     1      -8.539  11.906  67.885  1.00  0.00    -0.162 C  
HETATM   20  C   UNL     1      -7.063  12.215  68.143  1.00  0.00    -0.088 C  
ENDBRANCH   5  19
ENDBRANCH   4   5
BRANCH   4  21
HETATM   21  C   UNL     1     -10.435   9.950  66.349  1.00  0.00    -0.127 C  
HETATM   22  C   UNL     1     -10.149  10.471  64.939  1.00  0.00    -0.403 C  
ENDBRANCH   4  21
ENDBRANCH   3   4
ENDBRANCH   2   3
TORSDOF 8
ENDMDL
MODEL      358
REMARK 921   NORMALIZED FREE ENERGY PREDICTED BY IDOCK:   -2.57 KCAL/MOL
REMARK 922        TOTAL FREE ENERGY PREDICTED BY IDOCK:   -4.75 KCAL/MOL
REMARK 923 INTER-LIGAND FREE ENERGY PREDICTED BY IDOCK:   -4.08 KCAL/MOL
REMARK 924 INTRA-LIGAND FREE ENERGY PREDICTED BY IDOCK:   -0.67 KCAL/MOL
REMARK 927      BINDING AFFINITY PREDICTED BY RF-SCORE:    0.00 PKD
ROOT
HETATM    1  C   UNL     1     -13.703   9.588  71.278  1.00  0.00    -0.235 C  
HETATM    2  C   UNL     1     -12.347  10.202  71.592  1.00  0.00    -0.471 C  
ENDROOT
BRANCH   2   3
HETATM    3  C   UNL     1     -11.398  10.219  70.375  1.00  0.00    -0.332 C  
BRANCH   3   4
HETATM    4  N   UNL     1     -10.153   9.415  70.482  1.00  0.00    -0.255 NA 
BRANCH   4   5
HETATM    5  C   UNL     1     -10.022   8.429  69.339  1.00  0.00    -0.191 C  
BRANCH   5   6
HETATM    6  C   UNL     1      -8.543   8.108  69.095  1.00  0.00    -0.136 C  
HETATM    7  H   UNL     1      -6.834   8.998  69.061  1.00  0.00     0.000 HD 
HETATM    8  O   UNL     1      -7.750   9.198  69.212  1.00  0.00    -0.077 OA 
BRANCH   6   9
HETATM    9  N   UNL     1      -8.131   6.928  68.787  1.00  0.00    -0.119 NA 
HETATM   10  H   UNL     1      -7.466   6.467  69.408  1.00  0.00     0.000 HD 
BRANCH   9  11
HETATM   11  C   UNL     1      -8.560   6.240  67.625  1.00  0.00    -0.114 A  
HETATM   12  C   UNL     1      -8.120   6.543  66.312  1.00  0.00    -0.115 A  
HETATM   13  C   UNL     1      -8.520   5.736  65.232  1.00  0.00    -0.148 A  
HETATM   14  C   UNL     1      -7.258   7.719  65.958  1.00  0.00    -0.073 C  
HETATM   15  C   UNL     1      -9.288   4.599  65.430  1.00  0.00    -0.160 A  
HETATM   16  C   UNL     1      -9.703   4.270  66.713  1.00  0.00    -0.241 A  
HETATM   17  C   UNL     1      -9.358   5.083  67.810  1.00  0.00    -0.146 A  
HETATM   18  C   UNL     1      -9.858   4.678  69.174  1.00  0.00    -0.242 C  
ENDBRANCH   9  11
ENDBRANCH   6   9
ENDBRANCH   5   6
BRANCH   5  19
HETATM   19  C   UNL     1     -10.609   8.898  67.979  1.00  0.00    -0.226 C  
HETATM   20  C   UNL     1      -9.845  10.025  67.281  1.00  0.00    -0.225 C  
ENDBRANCH   5  19
ENDBRANCH   4   5
BRANCH   4  21
HETATM   21  C   UNL     1     -10.085   8.733  71.803  1.00  0.00    -0.333 C  
HETATM   22  C   UNL     1     -10.595   7.294  71.889  1.00  0.00    -0.238 C  
ENDBRANCH   4  21
ENDBRANCH   3   4
ENDBRANCH   2   3
TORSDOF 8
ENDMDL
MODEL      359
REMARK 921   NORMALIZED FREE ENERGY PREDICTED BY IDOCK:   -2.56 KCAL/MOL
REMARK 922        TOTAL FREE ENERGY PREDICTED BY IDOCK:   -4.72 KCAL/MOL
REMARK 923 INTER-LIGAND FREE ENERGY PREDICTED BY IDOCK:   -4.24 KCAL/MOL
REMARK 924 INTRA-LIGAND FREE ENERGY PREDICTED BY IDOCK:   -0.49 KCAL/MOL
REMARK 927      BINDING AFFINITY PREDICTED BY RF-SCORE:    0.00 PKD
ROOT
HETATM    1  C   UNL     1     -11.236  11.619  63.584  1.00  0.00    -0.497 C  
HETATM    2  C   UNL     1     -10.553  11.744  64.938  1.00  0.00    -0.344 C  
ENDROOT
BRANCH   2   3
HETATM    3  C   UNL     1     -10.053  10.391  65.486  1.00  0.00    -0.283 C  
BRANCH   3   4
HETATM    4  N   UNL     1      -8.991  10.437  66.524  1.00  0.00    -0.144 NA 
BRANCH   4   5
HETATM    5  C   UNL     1      -9.471  11.120  67.788  1.00  0.00    -0.168 C  
BRANCH   5   6
HETATM    6  C   UNL     1      -8.273  11.668  68.572  1.00  0.00    -0.144 C  
HETATM    7  H   UNL     1      -6.572  11.074  69.257  1.00  0.00     0.000 HD 
HETATM    8  O   UNL     1      -7.314  10.734  68.772  1.00  0.00    -0.088 OA 
BRANCH   6   9
HETATM    9  N   UNL     1      -8.221  12.880  69.002  1.00  0.00    -0.315 NA 
HETATM   10  H   UNL     1      -7.976  13.039  69.979  1.00  0.00     0.000 HD 
BRANCH   9  11
HETATM   11  C   UNL     1      -8.487  14.002  68.179  1.00  0.00    -0.172 A  
HETATM   12  C   UNL     1      -9.765  14.598  68.034  1.00  0.00    -0.216 A  
HETATM   13  C   UNL     1      -9.911  15.775  67.277  1.00  0.00    -0.238 A  
HETATM   14  C   UNL     1     -11.031  14.039  68.614  1.00  0.00    -0.281 C  
HETATM   15  C   UNL     1      -8.814  16.410  66.718  1.00  0.00    -0.255 A  
HETATM   16  C   UNL     1      -7.550  15.857  66.875  1.00  0.00    -0.255 A  
HETATM   17  C   UNL     1      -7.376  14.656  67.588  1.00  0.00    -0.204 A  
HETATM   18  C   UNL     1      -5.979  14.100  67.704  1.00  0.00    -0.044 C  
ENDBRANCH   9  11
ENDBRANCH   6   9
ENDBRANCH   5   6
BRANCH   5  19
HETATM   19  C   UNL     1     -10.275  10.223  68.770  1.00  0.00    -0.205 C  
HETATM   20  C   UNL     1     -11.765  10.549  68.895  1.00  0.00    -0.217 C  
ENDBRANCH   5  19
ENDBRANCH   4   5
BRANCH   4  21
HETATM   21  C   UNL     1      -7.764  11.085  65.985  1.00  0.00    -0.059 C  
HETATM   22  C   UNL     1      -6.860  10.254  65.074  1.00  0.00    -0.111 C  
ENDBRANCH   4  21
ENDBRANCH   3   4
ENDBRANCH   2   3
TORSDOF 8
ENDMDL
MODEL      360
REMARK 921   NORMALIZED FREE ENERGY PREDICTED BY IDOCK:   -2.55 KCAL/MOL
REMARK 922        TOTAL FREE ENERGY PREDICTED BY IDOCK:   -4.71 KCAL/MOL
REMARK 923 INTER-LIGAND FREE ENERGY PREDICTED BY IDOCK:   -4.05 KCAL/MOL
REMARK 924 INTRA-LIGAND FREE ENERGY PREDICTED BY IDOCK:   -0.66 KCAL/MOL
REMARK 927      BINDING AFFINITY PREDICTED BY RF-SCORE:    0.00 PKD
ROOT
HETATM    1  C   UNL     1     -13.178   9.426  71.083  1.00  0.00    -0.288 C  
HETATM    2  C   UNL     1     -13.324   8.214  71.992  1.00  0.00    -0.309 C  
ENDROOT
BRANCH   2   3
HETATM    3  C   UNL     1     -12.329   7.084  71.652  1.00  0.00    -0.368 C  
BRANCH   3   4
HETATM    4  N   UNL     1     -10.887   7.440  71.639  1.00  0.00    -0.219 NA 
BRANCH   4   5
HETATM    5  C   UNL     1     -10.015   6.238  71.338  1.00  0.00    -0.186 C  
BRANCH   5   6
HETATM    6  C   UNL     1      -9.752   6.149  69.831  1.00  0.00    -0.163 C  
HETATM    7  H   UNL     1     -10.530   5.371  68.248  1.00  0.00     0.000 HD 
HETATM    8  O   UNL     1     -10.693   5.425  69.183  1.00  0.00    -0.220 OA 
BRANCH   6   9
HETATM    9  N   UNL     1      -8.727   6.692  69.272  1.00  0.00    -0.131 NA 
HETATM   10  H   UNL     1      -7.849   6.173  69.257  1.00  0.00     0.000 HD 
BRANCH   9  11
HETATM   11  C   UNL     1      -8.764   7.976  68.675  1.00  0.00    -0.131 A  
HETATM   12  C   UNL     1      -9.434   8.272  67.461  1.00  0.00    -0.182 A  
HETATM   13  C   UNL     1      -9.506   9.600  67.002  1.00  0.00    -0.195 A  
HETATM   14  C   UNL     1     -10.070   7.244  66.572  1.00  0.00    -0.163 C  
HETATM   15  C   UNL     1      -8.989  10.647  67.748  1.00  0.00    -0.140 A  
HETATM   16  C   UNL     1      -8.355  10.379  68.954  1.00  0.00    -0.138 A  
HETATM   17  C   UNL     1      -8.227   9.057  69.419  1.00  0.00    -0.117 A  
HETATM   18  C   UNL     1      -7.510   8.835  70.727  1.00  0.00    -0.087 C  
ENDBRANCH   9  11
ENDBRANCH   6   9
ENDBRANCH   5   6
BRANCH   5  19
HETATM   19  C   UNL     1     -10.596   4.864  71.773  1.00  0.00    -0.164 C  
HETATM   20  C   UNL     1      -9.781   4.103  72.821  1.00  0.00    -0.185 C  
ENDBRANCH   5  19
ENDBRANCH   4   5
BRANCH   4  21
HETATM   21  C   UNL     1     -10.500   8.088  72.922  1.00  0.00    -0.332 C  
HETATM   22  C   UNL     1      -9.299   7.516  73.676  1.00  0.00    -0.329 C  
ENDBRANCH   4  21
ENDBRANCH   3   4
ENDBRANCH   2   3
TORSDOF 8
ENDMDL
MODEL      361
REMARK 921   NORMALIZED FREE ENERGY PREDICTED BY IDOCK:   -2.53 KCAL/MOL
REMARK 922        TOTAL FREE ENERGY PREDICTED BY IDOCK:   -4.69 KCAL/MOL
REMARK 923 INTER-LIGAND FREE ENERGY PREDICTED BY IDOCK:   -3.70 KCAL/MOL
REMARK 924 INTRA-LIGAND FREE ENERGY PREDICTED BY IDOCK:   -0.99 KCAL/MOL
REMARK 927      BINDING AFFINITY PREDICTED BY RF-SCORE:    0.00 PKD
ROOT
HETATM    1  C   UNL     1     -11.198  11.838  63.493  1.00  0.00    -0.494 C  
HETATM    2  C   UNL     1     -10.116  10.866  63.940  1.00  0.00    -0.422 C  
ENDROOT
BRANCH   2   3
HETATM    3  C   UNL     1     -10.192  10.533  65.445  1.00  0.00    -0.270 C  
BRANCH   3   4
HETATM    4  N   UNL     1      -8.908  10.248  66.136  1.00  0.00    -0.148 NA 
BRANCH   4   5
HETATM    5  C   UNL     1      -9.016   9.040  67.045  1.00  0.00    -0.126 C  
BRANCH   5   6
HETATM    6  C   UNL     1      -8.349   7.829  66.383  1.00  0.00    -0.131 C  
HETATM    7  H   UNL     1      -6.870   6.627  66.673  1.00  0.00     0.000 HD 
HETATM    8  O   UNL     1      -7.283   7.378  67.083  1.00  0.00    -0.084 OA 
BRANCH   6   9
HETATM    9  N   UNL     1      -8.763   7.330  65.271  1.00  0.00    -0.354 NA 
HETATM   10  H   UNL     1      -9.236   7.944  64.608  1.00  0.00     0.000 HD 
BRANCH   9  11
HETATM   11  C   UNL     1      -8.591   5.966  64.926  1.00  0.00    -0.033 A  
HETATM   12  C   UNL     1      -9.469   4.927  65.323  1.00  0.00    -0.106 A  
HETATM   13  C   UNL     1      -9.275   3.619  64.843  1.00  0.00    -0.147 A  
HETATM   14  C   UNL     1     -10.615   5.104  66.276  1.00  0.00    -0.325 C  
HETATM   15  C   UNL     1      -8.274   3.330  63.930  1.00  0.00    -0.089 A  
HETATM   16  C   UNL     1      -7.422   4.342  63.507  1.00  0.00    -0.055 A  
HETATM   17  C   UNL     1      -7.562   5.652  64.003  1.00  0.00    -0.077 A  
HETATM   18  C   UNL     1      -6.591   6.699  63.516  1.00  0.00    -0.041 C  
ENDBRANCH   9  11
ENDBRANCH   6   9
ENDBRANCH   5   6
BRANCH   5  19
HETATM   19  C   UNL     1     -10.462   8.609  67.416  1.00  0.00    -0.351 C  
HETATM   20  C   UNL     1     -10.648   8.070  68.835  1.00  0.00    -0.160 C  
ENDBRANCH   5  19
ENDBRANCH   4   5
BRANCH   4  21
HETATM   21  C   UNL     1      -8.438  11.449  66.878  1.00  0.00    -0.157 C  
HETATM   22  C   UNL     1      -7.804  11.235  68.254  1.00  0.00    -0.130 C  
ENDBRANCH   4  21
ENDBRANCH   3   4
ENDBRANCH   2   3
TORSDOF 8
ENDMDL
MODEL      362
REMARK 921   NORMALIZED FREE ENERGY PREDICTED BY IDOCK:   -2.53 KCAL/MOL
REMARK 922        TOTAL FREE ENERGY PREDICTED BY IDOCK:   -4.69 KCAL/MOL
REMARK 923 INTER-LIGAND FREE ENERGY PREDICTED BY IDOCK:   -3.91 KCAL/MOL
REMARK 924 INTRA-LIGAND FREE ENERGY PREDICTED BY IDOCK:   -0.77 KCAL/MOL
REMARK 927      BINDING AFFINITY PREDICTED BY RF-SCORE:    0.00 PKD
ROOT
HETATM    1  C   UNL     1     -11.631  12.726  69.117  1.00  0.00    -0.373 C  
HETATM    2  C   UNL     1     -11.844  11.237  69.347  1.00  0.00    -0.424 C  
ENDROOT
BRANCH   2   3
HETATM    3  C   UNL     1     -10.579  10.399  69.069  1.00  0.00    -0.221 C  
BRANCH   3   4
HETATM    4  N   UNL     1     -10.261   9.319  70.039  1.00  0.00    -0.201 NA 
BRANCH   4   5
HETATM    5  C   UNL     1     -10.336   7.949  69.398  1.00  0.00    -0.220 C  
BRANCH   5   6
HETATM    6  C   UNL     1      -9.004   7.213  69.582  1.00  0.00    -0.141 C  
HETATM    7  H   UNL     1      -8.320   5.590  70.366  1.00  0.00     0.000 HD 
HETATM    8  O   UNL     1      -9.145   6.046  70.253  1.00  0.00    -0.148 OA 
BRANCH   6   9
HETATM    9  N   UNL     1      -7.885   7.687  69.159  1.00  0.00    -0.116 NA 
HETATM   10  H   UNL     1      -7.295   8.201  69.813  1.00  0.00     0.000 HD 
BRANCH   9  11
HETATM   11  C   UNL     1      -7.435   7.526  67.824  1.00  0.00    -0.101 A  
HETATM   12  C   UNL     1      -7.291   6.273  67.178  1.00  0.00    -0.083 A  
HETATM   13  C   UNL     1      -6.939   6.219  65.817  1.00  0.00    -0.057 A  
HETATM   14  C   UNL     1      -7.453   4.945  67.858  1.00  0.00    -0.078 C  
HETATM   15  C   UNL     1      -6.794   7.375  65.066  1.00  0.00    -0.050 A  
HETATM   16  C   UNL     1      -6.961   8.611  65.676  1.00  0.00    -0.075 A  
HETATM   17  C   UNL     1      -7.268   8.700  67.047  1.00  0.00    -0.076 A  
HETATM   18  C   UNL     1      -7.417  10.074  67.650  1.00  0.00    -0.090 C  
ENDBRANCH   9  11
ENDBRANCH   6   9
ENDBRANCH   5   6
BRANCH   5  19
HETATM   19  C   UNL     1     -10.647   7.938  67.875  1.00  0.00    -0.215 C  
HETATM   20  C   UNL     1     -10.948   6.565  67.271  1.00  0.00    -0.475 C  
ENDBRANCH   5  19
ENDBRANCH   4   5
BRANCH   4  21
HETATM   21  C   UNL     1     -11.147   9.414  71.231  1.00  0.00    -0.376 C  
HETATM   22  C   UNL     1     -11.207   8.210  72.172  1.00  0.00    -0.393 C  
ENDBRANCH   4  21
ENDBRANCH   3   4
ENDBRANCH   2   3
TORSDOF 8
ENDMDL
MODEL      363
REMARK 921   NORMALIZED FREE ENERGY PREDICTED BY IDOCK:   -2.51 KCAL/MOL
REMARK 922        TOTAL FREE ENERGY PREDICTED BY IDOCK:   -4.66 KCAL/MOL
REMARK 923 INTER-LIGAND FREE ENERGY PREDICTED BY IDOCK:   -4.11 KCAL/MOL
REMARK 924 INTRA-LIGAND FREE ENERGY PREDICTED BY IDOCK:   -0.55 KCAL/MOL
REMARK 927      BINDING AFFINITY PREDICTED BY RF-SCORE:    0.00 PKD
ROOT
HETATM    1  C   UNL     1     -11.187   3.070  73.462  1.00  0.00    -0.293 C  
HETATM    2  C   UNL     1     -10.811   4.533  73.275  1.00  0.00    -0.346 C  
ENDROOT
BRANCH   2   3
HETATM    3  C   UNL     1     -10.159   4.816  71.905  1.00  0.00    -0.198 C  
BRANCH   3   4
HETATM    4  N   UNL     1     -10.465   6.125  71.272  1.00  0.00    -0.216 NA 
BRANCH   4   5
HETATM    5  C   UNL     1      -9.278   7.065  71.327  1.00  0.00    -0.152 C  
BRANCH   5   6
HETATM    6  C   UNL     1      -8.986   7.618  69.927  1.00  0.00    -0.144 C  
HETATM    7  H   UNL     1      -7.896   8.962  69.078  1.00  0.00     0.000 HD 
HETATM    8  O   UNL     1      -8.076   8.620  69.945  1.00  0.00    -0.104 OA 
BRANCH   6   9
HETATM    9  N   UNL     1      -9.574   7.178  68.870  1.00  0.00    -0.142 NA 
HETATM   10  H   UNL     1     -10.229   6.402  68.964  1.00  0.00     0.000 HD 
BRANCH   9  11
HETATM   11  C   UNL     1      -9.353   7.724  67.581  1.00  0.00    -0.142 A  
HETATM   12  C   UNL     1      -9.878   8.964  67.139  1.00  0.00    -0.267 A  
HETATM   13  C   UNL     1      -9.516   9.473  65.879  1.00  0.00    -0.307 A  
HETATM   14  C   UNL     1     -10.854   9.795  67.919  1.00  0.00    -0.298 C  
HETATM   15  C   UNL     1      -8.596   8.818  65.077  1.00  0.00    -0.196 A  
HETATM   16  C   UNL     1      -8.048   7.617  65.506  1.00  0.00    -0.130 A  
HETATM   17  C   UNL     1      -8.424   7.057  66.742  1.00  0.00    -0.118 A  
HETATM   18  C   UNL     1      -7.805   5.741  67.139  1.00  0.00    -0.102 C  
ENDBRANCH   9  11
ENDBRANCH   6   9
ENDBRANCH   5   6
BRANCH   5  19
HETATM   19  C   UNL     1      -7.953   6.441  71.847  1.00  0.00    -0.104 C  
HETATM   20  C   UNL     1      -7.150   5.642  70.820  1.00  0.00    -0.069 C  
ENDBRANCH   5  19
ENDBRANCH   4   5
BRANCH   4  21
HETATM   21  C   UNL     1     -11.673   6.733  71.892  1.00  0.00    -0.310 C  
HETATM   22  C   UNL     1     -11.525   8.111  72.540  1.00  0.00    -0.470 C  
ENDBRANCH   4  21
ENDBRANCH   3   4
ENDBRANCH   2   3
TORSDOF 8
ENDMDL
MODEL      364
REMARK 921   NORMALIZED FREE ENERGY PREDICTED BY IDOCK:   -2.51 KCAL/MOL
REMARK 922        TOTAL FREE ENERGY PREDICTED BY IDOCK:   -4.65 KCAL/MOL
REMARK 923 INTER-LIGAND FREE ENERGY PREDICTED BY IDOCK:   -4.03 KCAL/MOL
REMARK 924 INTRA-LIGAND FREE ENERGY PREDICTED BY IDOCK:   -0.63 KCAL/MOL
REMARK 927      BINDING AFFINITY PREDICTED BY RF-SCORE:    0.00 PKD
ROOT
HETATM    1  C   UNL     1     -10.862   3.581  73.271  1.00  0.00    -0.288 C  
HETATM    2  C   UNL     1     -10.578   5.026  73.658  1.00  0.00    -0.321 C  
ENDROOT
BRANCH   2   3
HETATM    3  C   UNL     1     -11.287   6.044  72.741  1.00  0.00    -0.242 C  
BRANCH   3   4
HETATM    4  N   UNL     1     -10.723   7.418  72.700  1.00  0.00    -0.261 NA 
BRANCH   4   5
HETATM    5  C   UNL     1     -10.127   7.740  71.345  1.00  0.00    -0.182 C  
BRANCH   5   6
HETATM    6  C   UNL     1     -10.607   9.120  70.879  1.00  0.00    -0.273 C  
HETATM    7  H   UNL     1     -12.244  10.024  70.410  1.00  0.00     0.000 HD 
HETATM    8  O   UNL     1     -11.947   9.169  70.698  1.00  0.00    -0.239 OA 
BRANCH   6   9
HETATM    9  N   UNL     1      -9.800  10.100  70.666  1.00  0.00    -0.239 NA 
HETATM   10  H   UNL     1      -9.777  10.866  71.338  1.00  0.00     0.000 HD 
BRANCH   9  11
HETATM   11  C   UNL     1      -8.942  10.161  69.540  1.00  0.00    -0.188 A  
HETATM   12  C   UNL     1      -7.612   9.669  69.523  1.00  0.00    -0.104 A  
HETATM   13  C   UNL     1      -6.873   9.678  68.327  1.00  0.00    -0.069 A  
HETATM   14  C   UNL     1      -6.886   9.150  70.730  1.00  0.00    -0.087 C  
HETATM   15  C   UNL     1      -7.441  10.099  67.135  1.00  0.00    -0.091 A  
HETATM   16  C   UNL     1      -8.752  10.557  67.126  1.00  0.00    -0.130 A  
HETATM   17  C   UNL     1      -9.503  10.603  68.316  1.00  0.00    -0.161 A  
HETATM   18  C   UNL     1     -10.915  11.130  68.239  1.00  0.00    -0.278 C  
ENDBRANCH   9  11
ENDBRANCH   6   9
ENDBRANCH   5   6
BRANCH   5  19
HETATM   19  C   UNL     1     -10.471   6.739  70.207  1.00  0.00    -0.238 C  
HETATM   20  C   UNL     1     -10.070   7.176  68.797  1.00  0.00    -0.175 C  
ENDBRANCH   5  19
ENDBRANCH   4   5
BRANCH   4  21
HETATM   21  C   UNL     1      -9.729   7.606  73.792  1.00  0.00    -0.181 C  
HETATM   22  C   UNL     1      -8.304   7.996  73.399  1.00  0.00    -0.278 C  
ENDBRANCH   4  21
ENDBRANCH   3   4
ENDBRANCH   2   3
TORSDOF 8
ENDMDL
MODEL      365
REMARK 921   NORMALIZED FREE ENERGY PREDICTED BY IDOCK:   -2.51 KCAL/MOL
REMARK 922        TOTAL FREE ENERGY PREDICTED BY IDOCK:   -4.65 KCAL/MOL
REMARK 923 INTER-LIGAND FREE ENERGY PREDICTED BY IDOCK:   -4.11 KCAL/MOL
REMARK 924 INTRA-LIGAND FREE ENERGY PREDICTED BY IDOCK:   -0.54 KCAL/MOL
REMARK 927      BINDING AFFINITY PREDICTED BY RF-SCORE:    0.00 PKD
ROOT
HETATM    1  C   UNL     1      -5.631  11.015  66.708  1.00  0.00    -0.087 C  
HETATM    2  C   UNL     1      -6.803  11.843  67.216  1.00  0.00    -0.142 C  
ENDROOT
BRANCH   2   3
HETATM    3  C   UNL     1      -8.162  11.136  67.034  1.00  0.00    -0.146 C  
BRANCH   3   4
HETATM    4  N   UNL     1      -9.355  11.817  67.599  1.00  0.00    -0.176 NA 
BRANCH   4   5
HETATM    5  C   UNL     1      -9.904  11.079  68.803  1.00  0.00    -0.198 C  
BRANCH   5   6
HETATM    6  C   UNL     1      -9.622   9.578  68.669  1.00  0.00    -0.146 C  
HETATM    7  H   UNL     1      -8.437   8.238  69.386  1.00  0.00     0.000 HD 
HETATM    8  O   UNL     1      -8.611   9.168  69.470  1.00  0.00    -0.126 OA 
BRANCH   6   9
HETATM    9  N   UNL     1     -10.272   8.820  67.857  1.00  0.00    -0.207 NA 
HETATM   10  H   UNL     1     -10.965   9.245  67.242  1.00  0.00     0.000 HD 
BRANCH   9  11
HETATM   11  C   UNL     1     -10.067   7.419  67.780  1.00  0.00    -0.184 A  
HETATM   12  C   UNL     1     -10.702   6.473  68.623  1.00  0.00    -0.323 A  
HETATM   13  C   UNL     1     -10.518   5.097  68.402  1.00  0.00    -0.084 A  
HETATM   14  C   UNL     1     -11.562   6.831  69.800  1.00  0.00    -0.284 C  
HETATM   15  C   UNL     1      -9.775   4.635  67.327  1.00  0.00    -0.216 A  
HETATM   16  C   UNL     1      -9.169   5.548  66.473  1.00  0.00    -0.144 A  
HETATM   17  C   UNL     1      -9.298   6.932  66.694  1.00  0.00    -0.198 A  
HETATM   18  C   UNL     1      -8.598   7.867  65.739  1.00  0.00    -0.167 C  
ENDBRANCH   9  11
ENDBRANCH   6   9
ENDBRANCH   5   6
BRANCH   5  19
HETATM   19  C   UNL     1     -11.433  11.227  69.040  1.00  0.00    -0.369 C  
HETATM   20  C   UNL     1     -11.879  12.539  69.688  1.00  0.00    -0.382 C  
ENDBRANCH   5  19
ENDBRANCH   4   5
BRANCH   4  21
HETATM   21  C   UNL     1     -10.395  12.001  66.551  1.00  0.00    -0.210 C  
HETATM   22  C   UNL     1     -10.114  11.432  65.159  1.00  0.00    -0.319 C  
ENDBRANCH   4  21
ENDBRANCH   3   4
ENDBRANCH   2   3
TORSDOF 8
ENDMDL
MODEL      366
REMARK 921   NORMALIZED FREE ENERGY PREDICTED BY IDOCK:   -2.49 KCAL/MOL
REMARK 922        TOTAL FREE ENERGY PREDICTED BY IDOCK:   -4.63 KCAL/MOL
REMARK 923 INTER-LIGAND FREE ENERGY PREDICTED BY IDOCK:   -3.64 KCAL/MOL
REMARK 924 INTRA-LIGAND FREE ENERGY PREDICTED BY IDOCK:   -0.99 KCAL/MOL
REMARK 927      BINDING AFFINITY PREDICTED BY RF-SCORE:    0.00 PKD
ROOT
HETATM    1  C   UNL     1      -5.217   6.498  68.165  1.00  0.00    -0.008 C  
HETATM    2  C   UNL     1      -6.210   7.624  67.917  1.00  0.00    -0.049 C  
ENDROOT
BRANCH   2   3
HETATM    3  C   UNL     1      -7.668   7.127  67.814  1.00  0.00    -0.112 C  
BRANCH   3   4
HETATM    4  N   UNL     1      -8.426   7.514  66.596  1.00  0.00    -0.125 NA 
BRANCH   4   5
HETATM    5  C   UNL     1      -9.803   8.045  66.937  1.00  0.00    -0.248 C  
BRANCH   5   6
HETATM    6  C   UNL     1      -9.820   9.573  66.808  1.00  0.00    -0.216 C  
HETATM    7  H   UNL     1      -9.893  10.929  65.440  1.00  0.00     0.000 HD 
HETATM    8  O   UNL     1      -9.882   9.983  65.520  1.00  0.00    -0.268 OA 
BRANCH   6   9
HETATM    9  N   UNL     1      -9.756  10.356  67.827  1.00  0.00    -0.158 NA 
HETATM   10  H   UNL     1     -10.019   9.989  68.741  1.00  0.00     0.000 HD 
BRANCH   9  11
HETATM   11  C   UNL     1      -9.334  11.706  67.736  1.00  0.00    -0.178 A  
HETATM   12  C   UNL     1      -7.996  12.109  67.496  1.00  0.00    -0.163 A  
HETATM   13  C   UNL     1      -7.692  13.470  67.316  1.00  0.00    -0.093 A  
HETATM   14  C   UNL     1      -6.825  11.172  67.451  1.00  0.00    -0.089 C  
HETATM   15  C   UNL     1      -8.689  14.433  67.300  1.00  0.00    -0.228 A  
HETATM   16  C   UNL     1     -10.009  14.053  67.504  1.00  0.00    -0.236 A  
HETATM   17  C   UNL     1     -10.341  12.705  67.732  1.00  0.00    -0.221 A  
HETATM   18  C   UNL     1     -11.792  12.364  67.965  1.00  0.00    -0.376 C  
ENDBRANCH   9  11
ENDBRANCH   6   9
ENDBRANCH   5   6
BRANCH   5  19
HETATM   19  C   UNL     1     -10.314   7.711  68.366  1.00  0.00    -0.228 C  
HETATM   20  C   UNL     1     -11.054   6.380  68.511  1.00  0.00    -0.385 C  
ENDBRANCH   5  19
ENDBRANCH   4   5
BRANCH   4  21
HETATM   21  C   UNL     1      -8.501   6.372  65.645  1.00  0.00    -0.146 C  
HETATM   22  C   UNL     1      -8.335   4.961  66.210  1.00  0.00    -0.111 C  
ENDBRANCH   4  21
ENDBRANCH   3   4
ENDBRANCH   2   3
TORSDOF 8
ENDMDL
MODEL      367
REMARK 921   NORMALIZED FREE ENERGY PREDICTED BY IDOCK:   -2.49 KCAL/MOL
REMARK 922        TOTAL FREE ENERGY PREDICTED BY IDOCK:   -4.62 KCAL/MOL
REMARK 923 INTER-LIGAND FREE ENERGY PREDICTED BY IDOCK:   -4.41 KCAL/MOL
REMARK 924 INTRA-LIGAND FREE ENERGY PREDICTED BY IDOCK:   -0.22 KCAL/MOL
REMARK 927      BINDING AFFINITY PREDICTED BY RF-SCORE:    0.00 PKD
ROOT
HETATM    1  C   UNL     1     -11.259   3.116  73.366  1.00  0.00    -0.251 C  
HETATM    2  C   UNL     1     -11.123   4.613  73.124  1.00  0.00    -0.371 C  
ENDROOT
BRANCH   2   3
HETATM    3  C   UNL     1     -10.505   4.945  71.749  1.00  0.00    -0.144 C  
BRANCH   3   4
HETATM    4  N   UNL     1     -10.938   6.213  71.107  1.00  0.00    -0.273 NA 
BRANCH   4   5
HETATM    5  C   UNL     1      -9.919   7.317  71.304  1.00  0.00    -0.188 C  
BRANCH   5   6
HETATM    6  C   UNL     1     -10.016   8.328  70.155  1.00  0.00    -0.187 C  
HETATM    7  H   UNL     1     -10.506   8.389  68.291  1.00  0.00     0.000 HD 
HETATM    8  O   UNL     1     -10.446   7.763  69.003  1.00  0.00    -0.216 OA 
BRANCH   6   9
HETATM    9  N   UNL     1      -9.695   9.567  70.291  1.00  0.00    -0.248 NA 
HETATM   10  H   UNL     1      -9.477   9.913  71.225  1.00  0.00     0.000 HD 
BRANCH   9  11
HETATM   11  C   UNL     1      -9.631  10.470  69.202  1.00  0.00    -0.199 A  
HETATM   12  C   UNL     1      -8.672  10.396  68.160  1.00  0.00    -0.125 A  
HETATM   13  C   UNL     1      -8.752  11.274  67.065  1.00  0.00    -0.152 A  
HETATM   14  C   UNL     1      -7.512   9.444  68.144  1.00  0.00    -0.079 C  
HETATM   15  C   UNL     1      -9.796  12.178  66.943  1.00  0.00    -0.213 A  
HETATM   16  C   UNL     1     -10.761  12.244  67.940  1.00  0.00    -0.243 A  
HETATM   17  C   UNL     1     -10.684  11.410  69.071  1.00  0.00    -0.245 A  
HETATM   18  C   UNL     1     -11.754  11.548  70.124  1.00  0.00    -0.395 C  
ENDBRANCH   9  11
ENDBRANCH   6   9
ENDBRANCH   5   6
BRANCH   5  19
HETATM   19  C   UNL     1      -8.436   6.856  71.369  1.00  0.00    -0.119 C  
HETATM   20  C   UNL     1      -7.907   6.147  70.121  1.00  0.00    -0.102 C  
ENDBRANCH   5  19
ENDBRANCH   4   5
BRANCH   4  21
HETATM   21  C   UNL     1     -12.282   6.616  71.602  1.00  0.00    -0.352 C  
HETATM   22  C   UNL     1     -12.429   8.011  72.210  1.00  0.00    -0.302 C  
ENDBRANCH   4  21
ENDBRANCH   3   4
ENDBRANCH   2   3
TORSDOF 8
ENDMDL
MODEL      368
REMARK 921   NORMALIZED FREE ENERGY PREDICTED BY IDOCK:   -2.48 KCAL/MOL
REMARK 922        TOTAL FREE ENERGY PREDICTED BY IDOCK:   -4.60 KCAL/MOL
REMARK 923 INTER-LIGAND FREE ENERGY PREDICTED BY IDOCK:   -4.31 KCAL/MOL
REMARK 924 INTRA-LIGAND FREE ENERGY PREDICTED BY IDOCK:   -0.29 KCAL/MOL
REMARK 927      BINDING AFFINITY PREDICTED BY RF-SCORE:    0.00 PKD
ROOT
HETATM    1  C   UNL     1      -5.854  11.043  66.129  1.00  0.00    -0.142 C  
HETATM    2  C   UNL     1      -7.269  11.179  66.673  1.00  0.00    -0.144 C  
ENDROOT
BRANCH   2   3
HETATM    3  C   UNL     1      -7.832   9.851  67.221  1.00  0.00    -0.102 C  
BRANCH   3   4
HETATM    4  N   UNL     1      -9.271   9.579  66.975  1.00  0.00    -0.137 NA 
BRANCH   4   5
HETATM    5  C   UNL     1      -9.847   8.630  68.006  1.00  0.00    -0.169 C  
BRANCH   5   6
HETATM    6  C   UNL     1      -8.728   8.101  68.910  1.00  0.00    -0.137 C  
HETATM    7  H   UNL     1      -7.223   6.898  68.833  1.00  0.00     0.000 HD 
HETATM    8  O   UNL     1      -7.917   7.226  68.272  1.00  0.00    -0.119 OA 
BRANCH   6   9
HETATM    9  N   UNL     1      -8.610   8.447  70.145  1.00  0.00    -0.128 NA 
HETATM   10  H   UNL     1      -8.005   9.235  70.374  1.00  0.00     0.000 HD 
BRANCH   9  11
HETATM   11  C   UNL     1      -9.284   7.782  71.199  1.00  0.00    -0.146 A  
HETATM   12  C   UNL     1      -8.814   6.600  71.825  1.00  0.00    -0.130 A  
HETATM   13  C   UNL     1      -9.497   6.072  72.935  1.00  0.00    -0.151 A  
HETATM   14  C   UNL     1      -7.621   5.815  71.365  1.00  0.00    -0.105 C  
HETATM   15  C   UNL     1     -10.593   6.722  73.480  1.00  0.00    -0.358 A  
HETATM   16  C   UNL     1     -11.050   7.897  72.898  1.00  0.00    -0.442 A  
HETATM   17  C   UNL     1     -10.416   8.427  71.759  1.00  0.00    -0.353 A  
HETATM   18  C   UNL     1     -10.975   9.696  71.166  1.00  0.00    -0.430 C  
ENDBRANCH   9  11
ENDBRANCH   6   9
ENDBRANCH   5   6
BRANCH   5  19
HETATM   19  C   UNL     1     -10.587   7.388  67.435  1.00  0.00    -0.371 C  
HETATM   20  C   UNL     1     -11.127   6.404  68.474  1.00  0.00    -0.385 C  
ENDBRANCH   5  19
ENDBRANCH   4   5
BRANCH   4  21
HETATM   21  C   UNL     1      -9.476   9.070  65.591  1.00  0.00    -0.203 C  
HETATM   22  C   UNL     1      -8.298   8.375  64.906  1.00  0.00    -0.159 C  
ENDBRANCH   4  21
ENDBRANCH   3   4
ENDBRANCH   2   3
TORSDOF 8
ENDMDL
MODEL      369
REMARK 921   NORMALIZED FREE ENERGY PREDICTED BY IDOCK:   -2.47 KCAL/MOL
REMARK 922        TOTAL FREE ENERGY PREDICTED BY IDOCK:   -4.59 KCAL/MOL
REMARK 923 INTER-LIGAND FREE ENERGY PREDICTED BY IDOCK:   -4.48 KCAL/MOL
REMARK 924 INTRA-LIGAND FREE ENERGY PREDICTED BY IDOCK:   -0.11 KCAL/MOL
REMARK 927      BINDING AFFINITY PREDICTED BY RF-SCORE:    0.00 PKD
ROOT
HETATM    1  C   UNL     1     -10.721   5.891  67.131  1.00  0.00    -0.387 C  
HETATM    2  C   UNL     1      -9.441   6.474  66.548  1.00  0.00    -0.190 C  
ENDROOT
BRANCH   2   3
HETATM    3  C   UNL     1      -8.708   7.414  67.528  1.00  0.00    -0.124 C  
BRANCH   3   4
HETATM    4  N   UNL     1      -8.167   8.679  66.968  1.00  0.00    -0.106 NA 
BRANCH   4   5
HETATM    5  C   UNL     1      -8.304   9.829  67.945  1.00  0.00    -0.114 C  
BRANCH   5   6
HETATM    6  C   UNL     1      -9.553   9.631  68.811  1.00  0.00    -0.152 C  
HETATM    7  H   UNL     1     -11.469   9.527  68.622  1.00  0.00     0.000 HD 
HETATM    8  O   UNL     1     -10.695   9.650  68.085  1.00  0.00    -0.229 OA 
BRANCH   6   9
HETATM    9  N   UNL     1      -9.496   9.491  70.089  1.00  0.00    -0.231 NA 
HETATM   10  H   UNL     1      -8.811  10.038  70.609  1.00  0.00     0.000 HD 
BRANCH   9  11
HETATM   11  C   UNL     1     -10.344   8.610  70.806  1.00  0.00    -0.204 A  
HETATM   12  C   UNL     1     -11.677   8.915  71.180  1.00  0.00    -0.356 A  
HETATM   13  C   UNL     1     -12.477   7.936  71.797  1.00  0.00    -0.352 A  
HETATM   14  C   UNL     1     -12.322  10.257  70.996  1.00  0.00    -0.483 C  
HETATM   15  C   UNL     1     -12.010   6.645  71.992  1.00  0.00    -0.361 A  
HETATM   16  C   UNL     1     -10.717   6.321  71.605  1.00  0.00    -0.284 A  
HETATM   17  C   UNL     1      -9.876   7.290  71.026  1.00  0.00    -0.183 A  
HETATM   18  C   UNL     1      -8.477   6.875  70.647  1.00  0.00    -0.136 C  
ENDBRANCH   9  11
ENDBRANCH   6   9
ENDBRANCH   5   6
BRANCH   5  19
HETATM   19  C   UNL     1      -8.421  11.241  67.305  1.00  0.00    -0.144 C  
HETATM   20  C   UNL     1      -7.462  12.298  67.855  1.00  0.00    -0.121 C  
ENDBRANCH   5  19
ENDBRANCH   4   5
BRANCH   4  21
HETATM   21  C   UNL     1      -8.813   8.990  65.664  1.00  0.00    -0.185 C  
HETATM   22  C   UNL     1      -7.942   8.948  64.408  1.00  0.00    -0.137 C  
ENDBRANCH   4  21
ENDBRANCH   3   4
ENDBRANCH   2   3
TORSDOF 8
ENDMDL
MODEL      370
REMARK 921   NORMALIZED FREE ENERGY PREDICTED BY IDOCK:   -2.46 KCAL/MOL
REMARK 922        TOTAL FREE ENERGY PREDICTED BY IDOCK:   -4.58 KCAL/MOL
REMARK 923 INTER-LIGAND FREE ENERGY PREDICTED BY IDOCK:   -3.59 KCAL/MOL
REMARK 924 INTRA-LIGAND FREE ENERGY PREDICTED BY IDOCK:   -1.00 KCAL/MOL
REMARK 927      BINDING AFFINITY PREDICTED BY RF-SCORE:    0.00 PKD
ROOT
HETATM    1  C   UNL     1     -11.257  11.762  63.471  1.00  0.00    -0.494 C  
HETATM    2  C   UNL     1     -10.315  10.842  64.234  1.00  0.00    -0.401 C  
ENDROOT
BRANCH   2   3
HETATM    3  C   UNL     1     -10.573  10.847  65.756  1.00  0.00    -0.163 C  
BRANCH   3   4
HETATM    4  N   UNL     1      -9.382  10.762  66.639  1.00  0.00    -0.164 NA 
BRANCH   4   5
HETATM    5  C   UNL     1      -9.721  10.143  67.980  1.00  0.00    -0.142 C  
BRANCH   5   6
HETATM    6  C   UNL     1      -9.044   8.773  68.108  1.00  0.00    -0.140 C  
HETATM    7  H   UNL     1      -7.821   7.843  69.272  1.00  0.00     0.000 HD 
HETATM    8  O   UNL     1      -8.240   8.692  69.193  1.00  0.00    -0.114 OA 
BRANCH   6   9
HETATM    9  N   UNL     1      -9.219   7.830  67.249  1.00  0.00    -0.136 NA 
HETATM   10  H   UNL     1      -9.489   8.080  66.299  1.00  0.00     0.000 HD 
BRANCH   9  11
HETATM   11  C   UNL     1      -9.051   6.459  67.567  1.00  0.00    -0.114 A  
HETATM   12  C   UNL     1     -10.017   5.674  68.247  1.00  0.00    -0.197 A  
HETATM   13  C   UNL     1      -9.807   4.295  68.423  1.00  0.00    -0.104 A  
HETATM   14  C   UNL     1     -11.279   6.219  68.848  1.00  0.00    -0.387 C  
HETATM   15  C   UNL     1      -8.696   3.663  67.885  1.00  0.00    -0.127 A  
HETATM   16  C   UNL     1      -7.755   4.410  67.190  1.00  0.00    -0.089 A  
HETATM   17  C   UNL     1      -7.914   5.801  67.036  1.00  0.00    -0.102 A  
HETATM   18  C   UNL     1      -6.843   6.554  66.287  1.00  0.00    -0.057 C  
ENDBRANCH   9  11
ENDBRANCH   6   9
ENDBRANCH   5   6
BRANCH   5  19
HETATM   19  C   UNL     1     -11.235   9.920  68.251  1.00  0.00    -0.137 C  
HETATM   20  C   UNL     1     -11.683  10.112  69.701  1.00  0.00    -0.165 C  
ENDBRANCH   5  19
ENDBRANCH   4   5
BRANCH   4  21
HETATM   21  C   UNL     1      -8.756  12.102  66.800  1.00  0.00    -0.183 C  
HETATM   22  C   UNL     1      -8.237  12.486  68.187  1.00  0.00    -0.170 C  
ENDBRANCH   4  21
ENDBRANCH   3   4
ENDBRANCH   2   3
TORSDOF 8
ENDMDL
MODEL      371
REMARK 921   NORMALIZED FREE ENERGY PREDICTED BY IDOCK:   -2.46 KCAL/MOL
REMARK 922        TOTAL FREE ENERGY PREDICTED BY IDOCK:   -4.58 KCAL/MOL
REMARK 923 INTER-LIGAND FREE ENERGY PREDICTED BY IDOCK:   -4.20 KCAL/MOL
REMARK 924 INTRA-LIGAND FREE ENERGY PREDICTED BY IDOCK:   -0.38 KCAL/MOL
REMARK 927      BINDING AFFINITY PREDICTED BY RF-SCORE:    0.00 PKD
ROOT
HETATM    1  C   UNL     1      -9.913  11.182  65.063  1.00  0.00    -0.325 C  
HETATM    2  C   UNL     1      -8.894  11.324  66.185  1.00  0.00    -0.194 C  
ENDROOT
BRANCH   2   3
HETATM    3  C   UNL     1      -8.131  10.014  66.473  1.00  0.00    -0.119 C  
BRANCH   3   4
HETATM    4  N   UNL     1      -8.908   8.750  66.384  1.00  0.00    -0.139 NA 
BRANCH   4   5
HETATM    5  C   UNL     1      -9.134   8.133  67.750  1.00  0.00    -0.135 C  
BRANCH   5   6
HETATM    6  C   UNL     1     -10.622   8.200  68.113  1.00  0.00    -0.110 C  
HETATM    7  H   UNL     1     -12.072   9.469  68.133  1.00  0.00     0.000 HD 
HETATM    8  O   UNL     1     -11.150   9.428  67.908  1.00  0.00    -0.136 OA 
BRANCH   6   9
HETATM    9  N   UNL     1     -11.267   7.191  68.583  1.00  0.00    -0.474 NA 
HETATM   10  H   UNL     1     -12.283   7.248  68.644  1.00  0.00     0.000 HD 
BRANCH   9  11
HETATM   11  C   UNL     1     -10.629   6.003  69.020  1.00  0.00    -0.291 A  
HETATM   12  C   UNL     1     -10.119   5.006  68.151  1.00  0.00    -0.167 A  
HETATM   13  C   UNL     1      -9.406   3.912  68.674  1.00  0.00    -0.227 A  
HETATM   14  C   UNL     1     -10.312   5.001  66.663  1.00  0.00    -0.312 C  
HETATM   15  C   UNL     1      -9.130   3.817  70.029  1.00  0.00    -0.193 A  
HETATM   16  C   UNL     1      -9.596   4.800  70.892  1.00  0.00    -0.245 A  
HETATM   17  C   UNL     1     -10.351   5.884  70.405  1.00  0.00    -0.294 A  
HETATM   18  C   UNL     1     -10.842   6.905  71.400  1.00  0.00    -0.256 C  
ENDBRANCH   9  11
ENDBRANCH   6   9
ENDBRANCH   5   6
BRANCH   5  19
HETATM   19  C   UNL     1      -8.357   8.797  68.921  1.00  0.00    -0.127 C  
HETATM   20  C   UNL     1      -9.190   9.679  69.852  1.00  0.00    -0.255 C  
ENDBRANCH   5  19
ENDBRANCH   4   5
BRANCH   4  21
HETATM   21  C   UNL     1      -8.244   7.795  65.456  1.00  0.00    -0.137 C  
HETATM   22  C   UNL     1      -6.888   8.193  64.873  1.00  0.00    -0.062 C  
ENDBRANCH   4  21
ENDBRANCH   3   4
ENDBRANCH   2   3
TORSDOF 8
ENDMDL
MODEL      372
REMARK 921   NORMALIZED FREE ENERGY PREDICTED BY IDOCK:   -2.45 KCAL/MOL
REMARK 922        TOTAL FREE ENERGY PREDICTED BY IDOCK:   -4.57 KCAL/MOL
REMARK 923 INTER-LIGAND FREE ENERGY PREDICTED BY IDOCK:   -3.62 KCAL/MOL
REMARK 924 INTRA-LIGAND FREE ENERGY PREDICTED BY IDOCK:   -0.96 KCAL/MOL
REMARK 927      BINDING AFFINITY PREDICTED BY RF-SCORE:    0.00 PKD
ROOT
HETATM    1  C   UNL     1      -5.338  10.924  66.748  1.00  0.00    -0.069 C  
HETATM    2  C   UNL     1      -6.714  10.802  67.385  1.00  0.00    -0.076 C  
ENDROOT
BRANCH   2   3
HETATM    3  C   UNL     1      -7.733  10.080  66.478  1.00  0.00    -0.105 C  
BRANCH   3   4
HETATM    4  N   UNL     1      -8.835   9.348  67.155  1.00  0.00    -0.127 NA 
BRANCH   4   5
HETATM    5  C   UNL     1      -8.633   7.847  67.093  1.00  0.00    -0.128 C  
BRANCH   5   6
HETATM    6  C   UNL     1      -7.663   7.406  68.196  1.00  0.00    -0.120 C  
HETATM    7  H   UNL     1      -5.813   6.907  68.410  1.00  0.00     0.000 HD 
HETATM    8  O   UNL     1      -6.414   7.181  67.727  1.00  0.00    -0.044 OA 
BRANCH   6   9
HETATM    9  N   UNL     1      -8.028   7.251  69.420  1.00  0.00    -0.122 NA 
HETATM   10  H   UNL     1      -7.312   7.252  70.146  1.00  0.00     0.000 HD 
BRANCH   9  11
HETATM   11  C   UNL     1      -9.381   7.078  69.805  1.00  0.00    -0.146 A  
HETATM   12  C   UNL     1     -10.059   5.832  69.798  1.00  0.00    -0.273 A  
HETATM   13  C   UNL     1     -11.370   5.742  70.298  1.00  0.00    -0.084 A  
HETATM   14  C   UNL     1      -9.485   4.559  69.250  1.00  0.00    -0.242 C  
HETATM   15  C   UNL     1     -12.001   6.839  70.864  1.00  0.00    -0.437 A  
HETATM   16  C   UNL     1     -11.341   8.060  70.906  1.00  0.00    -0.291 A  
HETATM   17  C   UNL     1     -10.045   8.194  70.373  1.00  0.00    -0.196 A  
HETATM   18  C   UNL     1      -9.395   9.553  70.434  1.00  0.00    -0.311 C  
ENDBRANCH   9  11
ENDBRANCH   6   9
ENDBRANCH   5   6
BRANCH   5  19
HETATM   19  C   UNL     1      -8.065   7.303  65.753  1.00  0.00    -0.129 C  
HETATM   20  C   UNL     1      -8.627   5.956  65.295  1.00  0.00    -0.119 C  
ENDBRANCH   5  19
ENDBRANCH   4   5
BRANCH   4  21
HETATM   21  C   UNL     1     -10.151   9.745  66.586  1.00  0.00    -0.237 C  
HETATM   22  C   UNL     1     -10.151  10.658  65.359  1.00  0.00    -0.356 C  
ENDBRANCH   4  21
ENDBRANCH   3   4
ENDBRANCH   2   3
TORSDOF 8
ENDMDL
MODEL      373
REMARK 921   NORMALIZED FREE ENERGY PREDICTED BY IDOCK:   -2.37 KCAL/MOL
REMARK 922        TOTAL FREE ENERGY PREDICTED BY IDOCK:   -4.45 KCAL/MOL
REMARK 923 INTER-LIGAND FREE ENERGY PREDICTED BY IDOCK:   -2.97 KCAL/MOL
REMARK 924 INTRA-LIGAND FREE ENERGY PREDICTED BY IDOCK:   -1.48 KCAL/MOL
REMARK 927      BINDING AFFINITY PREDICTED BY RF-SCORE:    0.00 PKD
ROOT
HETATM    1  C   UNL     1      -8.789  12.230  66.857  1.00  0.00    -0.207 C  
HETATM    2  C   UNL     1      -9.966  11.389  67.329  1.00  0.00    -0.217 C  
ENDROOT
BRANCH   2   3
HETATM    3  C   UNL     1      -9.649  10.573  68.600  1.00  0.00    -0.171 C  
BRANCH   3   4
HETATM    4  N   UNL     1      -9.104   9.205  68.402  1.00  0.00    -0.133 NA 
BRANCH   4   5
HETATM    5  C   UNL     1      -9.819   8.185  69.265  1.00  0.00    -0.182 C  
BRANCH   5   6
HETATM    6  C   UNL     1     -10.384   7.063  68.387  1.00  0.00    -0.193 C  
HETATM    7  H   UNL     1     -11.455   6.840  66.800  1.00  0.00     0.000 HD 
HETATM    8  O   UNL     1     -11.105   7.535  67.344  1.00  0.00    -0.159 OA 
BRANCH   6   9
HETATM    9  N   UNL     1     -10.199   5.817  68.649  1.00  0.00    -0.179 NA 
HETATM   10  H   UNL     1     -11.006   5.193  68.644  1.00  0.00     0.000 HD 
BRANCH   9  11
HETATM   11  C   UNL     1      -8.925   5.272  68.944  1.00  0.00    -0.103 A  
HETATM   12  C   UNL     1      -7.820   5.301  68.055  1.00  0.00    -0.091 A  
HETATM   13  C   UNL     1      -6.564   4.830  68.477  1.00  0.00    -0.046 A  
HETATM   14  C   UNL     1      -7.889   5.781  66.635  1.00  0.00    -0.101 C  
HETATM   15  C   UNL     1      -6.360   4.392  69.777  1.00  0.00    -0.028 A  
HETATM   16  C   UNL     1      -7.424   4.384  70.670  1.00  0.00    -0.052 A  
HETATM   17  C   UNL     1      -8.704   4.807  70.265  1.00  0.00    -0.121 A  
HETATM   18  C   UNL     1      -9.818   4.754  71.280  1.00  0.00    -0.256 C  
ENDBRANCH   9  11
ENDBRANCH   6   9
ENDBRANCH   5   6
BRANCH   5  19
HETATM   19  C   UNL     1     -11.004   8.734  70.108  1.00  0.00    -0.236 C  
HETATM   20  C   UNL     1     -10.884   8.544  71.621  1.00  0.00    -0.356 C  
ENDBRANCH   5  19
ENDBRANCH   4   5
BRANCH   4  21
HETATM   21  C   UNL     1      -7.635   9.190  68.643  1.00  0.00    -0.084 C  
HETATM   22  C   UNL     1      -7.116   8.382  69.833  1.00  0.00    -0.051 C  
ENDBRANCH   4  21
ENDBRANCH   3   4
ENDBRANCH   2   3
TORSDOF 8
ENDMDL
MODEL      374
REMARK 921   NORMALIZED FREE ENERGY PREDICTED BY IDOCK:   -2.36 KCAL/MOL
REMARK 922        TOTAL FREE ENERGY PREDICTED BY IDOCK:   -4.44 KCAL/MOL
REMARK 923 INTER-LIGAND FREE ENERGY PREDICTED BY IDOCK:   -5.08 KCAL/MOL
REMARK 924 INTRA-LIGAND FREE ENERGY PREDICTED BY IDOCK:    0.64 KCAL/MOL
REMARK 927      BINDING AFFINITY PREDICTED BY RF-SCORE:    0.00 PKD
ROOT
HETATM    1  C   UNL     1      -8.615  15.154  68.888  1.00  0.00    -0.200 C  
HETATM    2  C   UNL     1      -8.022  15.176  67.486  1.00  0.00    -0.194 C  
ENDROOT
BRANCH   2   3
HETATM    3  C   UNL     1      -8.867  14.386  66.464  1.00  0.00    -0.089 C  
BRANCH   3   4
HETATM    4  N   UNL     1     -10.334  14.617  66.483  1.00  0.00    -0.276 NA 
BRANCH   4   5
HETATM    5  C   UNL     1     -11.013  14.014  65.270  1.00  0.00    -0.334 C  
BRANCH   5   6
HETATM    6  C   UNL     1     -12.222  13.180  65.709  1.00  0.00    -0.456 C  
HETATM    7  H   UNL     1     -14.113  13.387  66.019  1.00  0.00     0.000 HD 
HETATM    8  O   UNL     1     -13.364  13.904  65.747  1.00  0.00    -0.534 OA 
BRANCH   6   9
HETATM    9  N   UNL     1     -12.128  11.936  66.026  1.00  0.00    -0.412 NA 
HETATM   10  H   UNL     1     -12.757  11.271  65.577  1.00  0.00     0.000 HD 
BRANCH   9  11
HETATM   11  C   UNL     1     -11.190  11.450  66.970  1.00  0.00    -0.283 A  
HETATM   12  C   UNL     1     -10.160  10.525  66.666  1.00  0.00    -0.275 A  
HETATM   13  C   UNL     1      -9.211  10.181  67.645  1.00  0.00    -0.151 A  
HETATM   14  C   UNL     1     -10.011   9.827  65.346  1.00  0.00    -0.302 C  
HETATM   15  C   UNL     1      -9.218  10.781  68.895  1.00  0.00    -0.180 A  
HETATM   16  C   UNL     1     -10.202  11.712  69.200  1.00  0.00     0.007 A  
HETATM   17  C   UNL     1     -11.193  12.044  68.258  1.00  0.00    -0.315 A  
HETATM   18  C   UNL     1     -12.244  13.047  68.662  1.00  0.00    -0.037 C  
ENDBRANCH   9  11
ENDBRANCH   6   9
ENDBRANCH   5   6
BRANCH   5  19
HETATM   19  C   UNL     1     -10.123  13.087  64.396  1.00  0.00    -0.245 C  
HETATM   20  C   UNL     1     -10.846  12.340  63.274  1.00  0.00    -0.359 C  
ENDBRANCH   5  19
ENDBRANCH   4   5
BRANCH   4  21
HETATM   21  C   UNL     1     -10.631  16.070  66.609  1.00  0.00    -0.297 C  
HETATM   22  C   UNL     1     -10.689  16.900  65.325  1.00  0.00    -0.147 C  
ENDBRANCH   4  21
ENDBRANCH   3   4
ENDBRANCH   2   3
TORSDOF 8
ENDMDL
MODEL      375
REMARK 921   NORMALIZED FREE ENERGY PREDICTED BY IDOCK:   -2.35 KCAL/MOL
REMARK 922        TOTAL FREE ENERGY PREDICTED BY IDOCK:   -4.42 KCAL/MOL
REMARK 923 INTER-LIGAND FREE ENERGY PREDICTED BY IDOCK:   -4.19 KCAL/MOL
REMARK 924 INTRA-LIGAND FREE ENERGY PREDICTED BY IDOCK:   -0.23 KCAL/MOL
REMARK 927      BINDING AFFINITY PREDICTED BY RF-SCORE:    0.00 PKD
ROOT
HETATM    1  C   UNL     1      -6.554  12.787  68.139  1.00  0.00    -0.088 C  
HETATM    2  C   UNL     1      -7.825  12.406  67.393  1.00  0.00    -0.174 C  
ENDROOT
BRANCH   2   3
HETATM    3  C   UNL     1      -7.964  10.884  67.182  1.00  0.00    -0.127 C  
BRANCH   3   4
HETATM    4  N   UNL     1      -9.337  10.319  67.244  1.00  0.00    -0.148 NA 
BRANCH   4   5
HETATM    5  C   UNL     1      -9.552   9.505  68.504  1.00  0.00    -0.142 C  
BRANCH   5   6
HETATM    6  C   UNL     1      -9.329   8.017  68.208  1.00  0.00    -0.140 C  
HETATM    7  H   UNL     1      -7.911   6.823  67.680  1.00  0.00     0.000 HD 
HETATM    8  O   UNL     1      -8.049   7.744  67.863  1.00  0.00    -0.122 OA 
BRANCH   6   9
HETATM    9  N   UNL     1     -10.277   7.149  68.264  1.00  0.00    -0.177 NA 
HETATM   10  H   UNL     1     -11.228   7.451  68.055  1.00  0.00     0.000 HD 
BRANCH   9  11
HETATM   11  C   UNL     1     -10.058   5.790  68.605  1.00  0.00    -0.175 A  
HETATM   12  C   UNL     1      -9.686   4.786  67.676  1.00  0.00    -0.202 A  
HETATM   13  C   UNL     1      -9.387   3.487  68.126  1.00  0.00    -0.236 A  
HETATM   14  C   UNL     1      -9.613   4.991  66.192  1.00  0.00    -0.178 C  
HETATM   15  C   UNL     1      -9.384   3.178  69.477  1.00  0.00    -0.228 A  
HETATM   16  C   UNL     1      -9.717   4.157  70.403  1.00  0.00    -0.271 A  
HETATM   17  C   UNL     1     -10.065   5.454  69.982  1.00  0.00    -0.324 A  
HETATM   18  C   UNL     1     -10.436   6.464  71.040  1.00  0.00    -0.268 C  
ENDBRANCH   9  11
ENDBRANCH   6   9
ENDBRANCH   5   6
BRANCH   5  19
HETATM   19  C   UNL     1     -10.961   9.627  69.147  1.00  0.00    -0.177 C  
HETATM   20  C   UNL     1     -11.307  10.999  69.729  1.00  0.00    -0.366 C  
ENDBRANCH   5  19
ENDBRANCH   4   5
BRANCH   4  21
HETATM   21  C   UNL     1      -9.627   9.521  66.022  1.00  0.00    -0.251 C  
HETATM   22  C   UNL     1     -10.009  10.279  64.750  1.00  0.00    -0.392 C  
ENDBRANCH   4  21
ENDBRANCH   3   4
ENDBRANCH   2   3
TORSDOF 8
ENDMDL
MODEL      376
REMARK 921   NORMALIZED FREE ENERGY PREDICTED BY IDOCK:   -2.33 KCAL/MOL
REMARK 922        TOTAL FREE ENERGY PREDICTED BY IDOCK:   -4.40 KCAL/MOL
REMARK 923 INTER-LIGAND FREE ENERGY PREDICTED BY IDOCK:   -3.76 KCAL/MOL
REMARK 924 INTRA-LIGAND FREE ENERGY PREDICTED BY IDOCK:   -0.64 KCAL/MOL
REMARK 927      BINDING AFFINITY PREDICTED BY RF-SCORE:    0.00 PKD
ROOT
HETATM    1  C   UNL     1     -12.161  12.115  63.660  1.00  0.00    -0.663 C  
HETATM    2  C   UNL     1     -11.998  12.777  65.021  1.00  0.00    -0.456 C  
ENDROOT
BRANCH   2   3
HETATM    3  C   UNL     1     -10.522  13.034  65.390  1.00  0.00    -0.296 C  
BRANCH   3   4
HETATM    4  N   UNL     1     -10.017  12.390  66.630  1.00  0.00    -0.221 NA 
BRANCH   4   5
HETATM    5  C   UNL     1      -9.550  10.971  66.375  1.00  0.00    -0.198 C  
BRANCH   5   6
HETATM    6  C   UNL     1      -8.653  10.502  67.527  1.00  0.00    -0.121 C  
HETATM    7  H   UNL     1      -7.409  11.229  68.807  1.00  0.00     0.000 HD 
HETATM    8  O   UNL     1      -7.964  11.520  68.094  1.00  0.00    -0.121 OA 
BRANCH   6   9
HETATM    9  N   UNL     1      -8.564   9.268  67.879  1.00  0.00    -0.121 NA 
HETATM   10  H   UNL     1      -9.265   8.611  67.535  1.00  0.00     0.000 HD 
BRANCH   9  11
HETATM   11  C   UNL     1      -7.535   8.779  68.723  1.00  0.00    -0.084 A  
HETATM   12  C   UNL     1      -7.708   8.477  70.097  1.00  0.00    -0.086 A  
HETATM   13  C   UNL     1      -6.656   7.896  70.828  1.00  0.00    -0.037 A  
HETATM   14  C   UNL     1      -8.956   8.766  70.877  1.00  0.00    -0.247 C  
HETATM   15  C   UNL     1      -5.463   7.547  70.215  1.00  0.00    -0.023 A  
HETATM   16  C   UNL     1      -5.286   7.809  68.863  1.00  0.00    -0.026 A  
HETATM   17  C   UNL     1      -6.303   8.431  68.114  1.00  0.00    -0.056 A  
HETATM   18  C   UNL     1      -6.039   8.703  66.654  1.00  0.00    -0.057 C  
ENDBRANCH   9  11
ENDBRANCH   6   9
ENDBRANCH   5   6
BRANCH   5  19
HETATM   19  C   UNL     1      -8.744  10.757  65.064  1.00  0.00    -0.160 C  
HETATM   20  C   UNL     1      -9.319   9.723  64.094  1.00  0.00    -0.237 C  
ENDBRANCH   5  19
ENDBRANCH   4   5
BRANCH   4  21
HETATM   21  C   UNL     1     -11.049  12.441  67.701  1.00  0.00    -0.259 C  
HETATM   22  C   UNL     1     -11.780  11.143  68.049  1.00  0.00    -0.288 C  
ENDBRANCH   4  21
ENDBRANCH   3   4
ENDBRANCH   2   3
TORSDOF 8
ENDMDL
MODEL      377
REMARK 921   NORMALIZED FREE ENERGY PREDICTED BY IDOCK:   -2.31 KCAL/MOL
REMARK 922        TOTAL FREE ENERGY PREDICTED BY IDOCK:   -4.36 KCAL/MOL
REMARK 923 INTER-LIGAND FREE ENERGY PREDICTED BY IDOCK:   -4.43 KCAL/MOL
REMARK 924 INTRA-LIGAND FREE ENERGY PREDICTED BY IDOCK:    0.07 KCAL/MOL
REMARK 927      BINDING AFFINITY PREDICTED BY RF-SCORE:    0.00 PKD
ROOT
HETATM    1  C   UNL     1      -5.562  11.718  70.434  1.00  0.00    -0.152 C  
HETATM    2  C   UNL     1      -5.817  10.666  69.364  1.00  0.00    -0.039 C  
ENDROOT
BRANCH   2   3
HETATM    3  C   UNL     1      -7.086  10.951  68.533  1.00  0.00    -0.076 C  
BRANCH   3   4
HETATM    4  N   UNL     1      -8.172   9.938  68.596  1.00  0.00    -0.105 NA 
BRANCH   4   5
HETATM    5  C   UNL     1      -9.225  10.179  67.533  1.00  0.00    -0.137 C  
BRANCH   5   6
HETATM    6  C   UNL     1      -9.541  11.676  67.443  1.00  0.00    -0.166 C  
HETATM    7  H   UNL     1     -10.008  13.000  66.121  1.00  0.00     0.000 HD 
HETATM    8  O   UNL     1      -9.811  12.073  66.177  1.00  0.00    -0.224 OA 
BRANCH   6   9
HETATM    9  N   UNL     1      -9.521  12.453  68.468  1.00  0.00    -0.363 NA 
HETATM   10  H   UNL     1      -9.262  12.060  69.373  1.00  0.00     0.000 HD 
BRANCH   9  11
HETATM   11  C   UNL     1      -9.841  13.832  68.397  1.00  0.00    -0.227 A  
HETATM   12  C   UNL     1      -8.999  14.818  67.824  1.00  0.00    -0.182 A  
HETATM   13  C   UNL     1      -9.449  16.145  67.703  1.00  0.00    -0.220 A  
HETATM   14  C   UNL     1      -7.599  14.562  67.348  1.00  0.00    -0.209 C  
HETATM   15  C   UNL     1     -10.735  16.504  68.074  1.00  0.00    -0.343 A  
HETATM   16  C   UNL     1     -11.585  15.545  68.610  1.00  0.00    -0.379 A  
HETATM   17  C   UNL     1     -11.149  14.218  68.786  1.00  0.00    -0.276 A  
HETATM   18  C   UNL     1     -12.117  13.232  69.391  1.00  0.00    -0.301 C  
ENDBRANCH   9  11
ENDBRANCH   6   9
ENDBRANCH   5   6
BRANCH   5  19
HETATM   19  C   UNL     1     -10.578   9.448  67.754  1.00  0.00    -0.317 C  
HETATM   20  C   UNL     1     -10.634   7.998  67.270  1.00  0.00    -0.360 C  
ENDBRANCH   5  19
ENDBRANCH   4   5
BRANCH   4  21
HETATM   21  C   UNL     1      -8.769   9.899  69.958  1.00  0.00    -0.157 C  
HETATM   22  C   UNL     1      -8.619   8.610  70.766  1.00  0.00    -0.197 C  
ENDBRANCH   4  21
ENDBRANCH   3   4
ENDBRANCH   2   3
TORSDOF 8
ENDMDL
MODEL      378
REMARK 921   NORMALIZED FREE ENERGY PREDICTED BY IDOCK:   -2.30 KCAL/MOL
REMARK 922        TOTAL FREE ENERGY PREDICTED BY IDOCK:   -4.34 KCAL/MOL
REMARK 923 INTER-LIGAND FREE ENERGY PREDICTED BY IDOCK:   -3.51 KCAL/MOL
REMARK 924 INTRA-LIGAND FREE ENERGY PREDICTED BY IDOCK:   -0.83 KCAL/MOL
REMARK 927      BINDING AFFINITY PREDICTED BY RF-SCORE:    0.00 PKD
ROOT
HETATM    1  C   UNL     1     -10.708  11.325  63.726  1.00  0.00    -0.448 C  
HETATM    2  C   UNL     1      -9.653  10.227  63.725  1.00  0.00    -0.344 C  
ENDROOT
BRANCH   2   3
HETATM    3  C   UNL     1      -9.414   9.623  65.125  1.00  0.00    -0.265 C  
BRANCH   3   4
HETATM    4  N   UNL     1      -8.417   8.525  65.221  1.00  0.00    -0.169 NA 
BRANCH   4   5
HETATM    5  C   UNL     1      -7.325   8.846  66.221  1.00  0.00    -0.087 C  
BRANCH   5   6
HETATM    6  C   UNL     1      -7.605   8.130  67.548  1.00  0.00    -0.101 C  
HETATM    7  H   UNL     1      -6.717   6.971  68.806  1.00  0.00     0.000 HD 
HETATM    8  O   UNL     1      -6.544   7.414  67.984  1.00  0.00    -0.050 OA 
BRANCH   6   9
HETATM    9  N   UNL     1      -8.743   8.198  68.146  1.00  0.00    -0.136 NA 
HETATM   10  H   UNL     1      -9.274   9.067  68.085  1.00  0.00     0.000 HD 
BRANCH   9  11
HETATM   11  C   UNL     1      -9.290   7.121  68.887  1.00  0.00    -0.139 A  
HETATM   12  C   UNL     1      -9.797   5.932  68.306  1.00  0.00    -0.162 A  
HETATM   13  C   UNL     1     -10.223   4.873  69.128  1.00  0.00    -0.186 A  
HETATM   14  C   UNL     1      -9.957   5.711  66.830  1.00  0.00    -0.202 C  
HETATM   15  C   UNL     1     -10.096   4.937  70.507  1.00  0.00    -0.312 A  
HETATM   16  C   UNL     1      -9.573   6.083  71.091  1.00  0.00    -0.195 A  
HETATM   17  C   UNL     1      -9.180   7.178  70.299  1.00  0.00    -0.156 A  
HETATM   18  C   UNL     1      -8.639   8.399  71.000  1.00  0.00    -0.181 C  
ENDBRANCH   9  11
ENDBRANCH   6   9
ENDBRANCH   5   6
BRANCH   5  19
HETATM   19  C   UNL     1      -7.144  10.353  66.555  1.00  0.00    -0.114 C  
HETATM   20  C   UNL     1      -5.724  10.783  66.926  1.00  0.00    -0.062 C  
ENDBRANCH   5  19
ENDBRANCH   4   5
BRANCH   4  21
HETATM   21  C   UNL     1      -7.855   8.213  63.880  1.00  0.00    -0.147 C  
HETATM   22  C   UNL     1      -6.589   7.357  63.818  1.00  0.00    -0.052 C  
ENDBRANCH   4  21
ENDBRANCH   3   4
ENDBRANCH   2   3
TORSDOF 8
ENDMDL
MODEL      379
REMARK 921   NORMALIZED FREE ENERGY PREDICTED BY IDOCK:   -2.30 KCAL/MOL
REMARK 922        TOTAL FREE ENERGY PREDICTED BY IDOCK:   -4.34 KCAL/MOL
REMARK 923 INTER-LIGAND FREE ENERGY PREDICTED BY IDOCK:   -3.08 KCAL/MOL
REMARK 924 INTRA-LIGAND FREE ENERGY PREDICTED BY IDOCK:   -1.27 KCAL/MOL
REMARK 927      BINDING AFFINITY PREDICTED BY RF-SCORE:    0.00 PKD
ROOT
HETATM    1  C   UNL     1     -11.073   6.314  68.120  1.00  0.00    -0.364 C  
HETATM    2  C   UNL     1     -11.408   6.185  69.599  1.00  0.00    -0.442 C  
ENDROOT
BRANCH   2   3
HETATM    3  C   UNL     1     -10.321   6.784  70.516  1.00  0.00    -0.201 C  
BRANCH   3   4
HETATM    4  N   UNL     1      -9.942   8.200  70.272  1.00  0.00    -0.188 NA 
BRANCH   4   5
HETATM    5  C   UNL     1      -8.439   8.371  70.183  1.00  0.00    -0.126 C  
BRANCH   5   6
HETATM    6  C   UNL     1      -7.980   8.201  68.731  1.00  0.00    -0.115 C  
HETATM    7  H   UNL     1      -8.472   8.778  66.958  1.00  0.00     0.000 HD 
HETATM    8  O   UNL     1      -8.757   8.884  67.858  1.00  0.00    -0.128 OA 
BRANCH   6   9
HETATM    9  N   UNL     1      -6.978   7.463  68.401  1.00  0.00    -0.076 NA 
HETATM   10  H   UNL     1      -6.112   7.554  68.931  1.00  0.00     0.000 HD 
BRANCH   9  11
HETATM   11  C   UNL     1      -7.026   6.529  67.336  1.00  0.00    -0.078 A  
HETATM   12  C   UNL     1      -7.531   5.210  67.454  1.00  0.00    -0.083 A  
HETATM   13  C   UNL     1      -7.636   4.391  66.316  1.00  0.00    -0.086 A  
HETATM   14  C   UNL     1      -7.948   4.576  68.749  1.00  0.00    -0.078 C  
HETATM   15  C   UNL     1      -7.315   4.870  65.055  1.00  0.00    -0.071 A  
HETATM   16  C   UNL     1      -6.847   6.169  64.916  1.00  0.00    -0.047 A  
HETATM   17  C   UNL     1      -6.688   6.999  66.042  1.00  0.00    -0.053 A  
HETATM   18  C   UNL     1      -6.156   8.393  65.822  1.00  0.00    -0.048 C  
ENDBRANCH   9  11
ENDBRANCH   6   9
ENDBRANCH   5   6
BRANCH   5  19
HETATM   19  C   UNL     1      -7.601   7.380  71.037  1.00  0.00    -0.086 C  
HETATM   20  C   UNL     1      -6.946   7.972  72.287  1.00  0.00    -0.089 C  
ENDBRANCH   5  19
ENDBRANCH   4   5
BRANCH   4  21
HETATM   21  C   UNL     1     -10.531   9.084  71.315  1.00  0.00    -0.311 C  
HETATM   22  C   UNL     1     -11.261   8.419  72.483  1.00  0.00    -0.406 C  
ENDBRANCH   4  21
ENDBRANCH   3   4
ENDBRANCH   2   3
TORSDOF 8
ENDMDL
MODEL      380
REMARK 921   NORMALIZED FREE ENERGY PREDICTED BY IDOCK:   -2.28 KCAL/MOL
REMARK 922        TOTAL FREE ENERGY PREDICTED BY IDOCK:   -4.31 KCAL/MOL
REMARK 923 INTER-LIGAND FREE ENERGY PREDICTED BY IDOCK:   -4.57 KCAL/MOL
REMARK 924 INTRA-LIGAND FREE ENERGY PREDICTED BY IDOCK:    0.26 KCAL/MOL
REMARK 927      BINDING AFFINITY PREDICTED BY RF-SCORE:    0.00 PKD
ROOT
HETATM    1  C   UNL     1     -10.327  13.679  67.492  1.00  0.00    -0.241 C  
HETATM    2  C   UNL     1      -9.255  12.703  67.957  1.00  0.00    -0.208 C  
ENDROOT
BRANCH   2   3
HETATM    3  C   UNL     1      -9.609  11.232  67.651  1.00  0.00    -0.171 C  
BRANCH   3   4
HETATM    4  N   UNL     1      -8.473  10.297  67.447  1.00  0.00    -0.125 NA 
BRANCH   4   5
HETATM    5  C   UNL     1      -8.597   9.065  68.322  1.00  0.00    -0.130 C  
BRANCH   5   6
HETATM    6  C   UNL     1      -9.939   8.372  68.059  1.00  0.00    -0.182 C  
HETATM    7  H   UNL     1     -10.807   7.325  66.693  1.00  0.00     0.000 HD 
HETATM    8  O   UNL     1      -9.976   7.755  66.856  1.00  0.00    -0.213 OA 
BRANCH   6   9
HETATM    9  N   UNL     1     -10.915   8.410  68.897  1.00  0.00    -0.428 NA 
HETATM   10  H   UNL     1     -11.728   8.983  68.671  1.00  0.00     0.000 HD 
BRANCH   9  11
HETATM   11  C   UNL     1     -10.911   7.691  70.118  1.00  0.00    -0.246 A  
HETATM   12  C   UNL     1     -10.367   6.392  70.276  1.00  0.00    -0.252 A  
HETATM   13  C   UNL     1     -10.314   5.801  71.551  1.00  0.00    -0.274 A  
HETATM   14  C   UNL     1      -9.854   5.546  69.148  1.00  0.00    -0.227 C  
HETATM   15  C   UNL     1     -10.724   6.492  72.681  1.00  0.00    -0.260 A  
HETATM   16  C   UNL     1     -11.232   7.777  72.549  1.00  0.00    -0.419 A  
HETATM   17  C   UNL     1     -11.341   8.379  71.281  1.00  0.00    -0.314 A  
HETATM   18  C   UNL     1     -11.920   9.770  71.207  1.00  0.00    -0.471 C  
ENDBRANCH   9  11
ENDBRANCH   6   9
ENDBRANCH   5   6
BRANCH   5  19
HETATM   19  C   UNL     1      -8.517   9.321  69.853  1.00  0.00    -0.170 C  
HETATM   20  C   UNL     1      -7.580   8.394  70.630  1.00  0.00    -0.070 C  
ENDBRANCH   5  19
ENDBRANCH   4   5
BRANCH   4  21
HETATM   21  C   UNL     1      -7.177  10.995  67.667  1.00  0.00    -0.093 C  
HETATM   22  C   UNL     1      -6.032  10.695  66.699  1.00  0.00    -0.079 C  
ENDBRANCH   4  21
ENDBRANCH   3   4
ENDBRANCH   2   3
TORSDOF 8
ENDMDL
MODEL      381
REMARK 921   NORMALIZED FREE ENERGY PREDICTED BY IDOCK:   -2.26 KCAL/MOL
REMARK 922        TOTAL FREE ENERGY PREDICTED BY IDOCK:   -4.29 KCAL/MOL
REMARK 923 INTER-LIGAND FREE ENERGY PREDICTED BY IDOCK:   -4.21 KCAL/MOL
REMARK 924 INTRA-LIGAND FREE ENERGY PREDICTED BY IDOCK:   -0.08 KCAL/MOL
REMARK 927      BINDING AFFINITY PREDICTED BY RF-SCORE:    0.00 PKD
ROOT
HETATM    1  C   UNL     1     -11.069   6.291  66.896  1.00  0.00    -0.329 C  
HETATM    2  C   UNL     1      -9.900   7.262  66.808  1.00  0.00    -0.281 C  
ENDROOT
BRANCH   2   3
HETATM    3  C   UNL     1     -10.170   8.595  67.537  1.00  0.00    -0.245 C  
BRANCH   3   4
HETATM    4  N   UNL     1      -9.604   8.740  68.903  1.00  0.00    -0.156 NA 
BRANCH   4   5
HETATM    5  C   UNL     1      -8.661   9.922  68.997  1.00  0.00    -0.151 C  
BRANCH   5   6
HETATM    6  C   UNL     1      -7.887  10.077  67.683  1.00  0.00    -0.095 C  
HETATM    7  H   UNL     1      -6.624   9.102  66.600  1.00  0.00     0.000 HD 
HETATM    8  O   UNL     1      -7.104   9.006  67.414  1.00  0.00    -0.078 OA 
BRANCH   6   9
HETATM    9  N   UNL     1      -7.970  11.130  66.948  1.00  0.00    -0.145 NA 
HETATM   10  H   UNL     1      -7.389  11.935  67.182  1.00  0.00     0.000 HD 
BRANCH   9  11
HETATM   11  C   UNL     1      -8.832  11.221  65.826  1.00  0.00    -0.148 A  
HETATM   12  C   UNL     1      -8.610  10.556  64.594  1.00  0.00    -0.167 A  
HETATM   13  C   UNL     1      -9.576  10.622  63.574  1.00  0.00    -0.366 A  
HETATM   14  C   UNL     1      -7.366   9.786  64.260  1.00  0.00    -0.129 C  
HETATM   15  C   UNL     1     -10.784  11.273  63.770  1.00  0.00    -0.448 A  
HETATM   16  C   UNL     1     -11.031  11.905  64.981  1.00  0.00    -0.365 A  
HETATM   17  C   UNL     1     -10.066  11.896  66.006  1.00  0.00    -0.261 A  
HETATM   18  C   UNL     1     -10.391  12.619  67.289  1.00  0.00    -0.230 C  
ENDBRANCH   9  11
ENDBRANCH   6   9
ENDBRANCH   5   6
BRANCH   5  19
HETATM   19  C   UNL     1      -7.604   9.848  70.133  1.00  0.00    -0.185 C  
HETATM   20  C   UNL     1      -6.549  10.956  70.130  1.00  0.00    -0.122 C  
ENDBRANCH   5  19
ENDBRANCH   4   5
BRANCH   4  21
HETATM   21  C   UNL     1      -8.941   7.478  69.329  1.00  0.00    -0.136 C  
HETATM   22  C   UNL     1      -9.496   6.761  70.560  1.00  0.00    -0.171 C  
ENDBRANCH   4  21
ENDBRANCH   3   4
ENDBRANCH   2   3
TORSDOF 8
ENDMDL
MODEL      382
REMARK 921   NORMALIZED FREE ENERGY PREDICTED BY IDOCK:   -2.24 KCAL/MOL
REMARK 922        TOTAL FREE ENERGY PREDICTED BY IDOCK:   -4.26 KCAL/MOL
REMARK 923 INTER-LIGAND FREE ENERGY PREDICTED BY IDOCK:   -3.86 KCAL/MOL
REMARK 924 INTRA-LIGAND FREE ENERGY PREDICTED BY IDOCK:   -0.40 KCAL/MOL
REMARK 927      BINDING AFFINITY PREDICTED BY RF-SCORE:    0.00 PKD
ROOT
HETATM    1  C   UNL     1      -7.573   4.907  70.923  1.00  0.00    -0.073 C  
HETATM    2  C   UNL     1      -7.214   4.872  69.444  1.00  0.00    -0.056 C  
ENDROOT
BRANCH   2   3
HETATM    3  C   UNL     1      -7.110   6.279  68.818  1.00  0.00    -0.082 C  
BRANCH   3   4
HETATM    4  N   UNL     1      -8.042   7.315  69.334  1.00  0.00    -0.128 NA 
BRANCH   4   5
HETATM    5  C   UNL     1      -8.412   8.320  68.262  1.00  0.00    -0.136 C  
BRANCH   5   6
HETATM    6  C   UNL     1      -9.677   7.859  67.529  1.00  0.00    -0.159 C  
HETATM    7  H   UNL     1     -10.185   6.960  65.901  1.00  0.00     0.000 HD 
HETATM    8  O   UNL     1      -9.401   7.246  66.355  1.00  0.00    -0.176 OA 
BRANCH   6   9
HETATM    9  N   UNL     1     -10.861   8.066  67.990  1.00  0.00    -0.458 NA 
HETATM   10  H   UNL     1     -11.660   7.783  67.424  1.00  0.00     0.000 HD 
BRANCH   9  11
HETATM   11  C   UNL     1     -11.103   8.671  69.248  1.00  0.00     0.138 A  
HETATM   12  C   UNL     1     -11.265  10.065  69.445  1.00  0.00    -0.235 A  
HETATM   13  C   UNL     1     -11.608  10.562  70.715  1.00  0.00    -0.432 A  
HETATM   14  C   UNL     1     -11.059  11.100  68.378  1.00  0.00    -0.303 C  
HETATM   15  C   UNL     1     -11.859   9.707  71.777  1.00  0.00    -0.391 A  
HETATM   16  C   UNL     1     -11.735   8.336  71.595  1.00  0.00    -0.341 A  
HETATM   17  C   UNL     1     -11.349   7.810  70.348  1.00  0.00    -0.219 A  
HETATM   18  C   UNL     1     -11.214   6.313  70.225  1.00  0.00    -0.455 C  
ENDBRANCH   9  11
ENDBRANCH   6   9
ENDBRANCH   5   6
BRANCH   5  19
HETATM   19  C   UNL     1      -7.330   8.568  67.175  1.00  0.00    -0.084 C  
HETATM   20  C   UNL     1      -5.966   9.030  67.691  1.00  0.00    -0.046 C  
ENDBRANCH   5  19
ENDBRANCH   4   5
BRANCH   4  21
HETATM   21  C   UNL     1      -7.467   7.982  70.533  1.00  0.00    -0.071 C  
HETATM   22  C   UNL     1      -7.876   9.430  70.809  1.00  0.00    -0.151 C  
ENDBRANCH   4  21
ENDBRANCH   3   4
ENDBRANCH   2   3
TORSDOF 8
ENDMDL
MODEL      383
REMARK 921   NORMALIZED FREE ENERGY PREDICTED BY IDOCK:   -2.23 KCAL/MOL
REMARK 922        TOTAL FREE ENERGY PREDICTED BY IDOCK:   -4.24 KCAL/MOL
REMARK 923 INTER-LIGAND FREE ENERGY PREDICTED BY IDOCK:   -5.05 KCAL/MOL
REMARK 924 INTRA-LIGAND FREE ENERGY PREDICTED BY IDOCK:    0.82 KCAL/MOL
REMARK 927      BINDING AFFINITY PREDICTED BY RF-SCORE:    0.00 PKD
ROOT
HETATM    1  C   UNL     1      -5.529  18.235  66.506  1.00  0.00    -0.176 C  
HETATM    2  C   UNL     1      -6.733  17.995  65.607  1.00  0.00    -0.229 C  
ENDROOT
BRANCH   2   3
HETATM    3  C   UNL     1      -7.717  16.957  66.186  1.00  0.00    -0.224 C  
BRANCH   3   4
HETATM    4  N   UNL     1      -8.936  17.485  66.852  1.00  0.00    -0.244 NA 
BRANCH   4   5
HETATM    5  C   UNL     1      -8.745  17.617  68.349  1.00  0.00    -0.284 C  
BRANCH   5   6
HETATM    6  C   UNL     1      -8.375  16.256  68.950  1.00  0.00    -0.231 C  
HETATM    7  H   UNL     1      -6.868  15.057  69.050  1.00  0.00     0.000 HD 
HETATM    8  O   UNL     1      -7.098  15.900  68.677  1.00  0.00    -0.123 OA 
BRANCH   6   9
HETATM    9  N   UNL     1      -9.212  15.540  69.615  1.00  0.00    -0.329 NA 
HETATM   10  H   UNL     1      -9.301  15.700  70.618  1.00  0.00     0.000 HD 
BRANCH   9  11
HETATM   11  C   UNL     1     -10.016  14.539  69.016  1.00  0.00    -0.159 A  
HETATM   12  C   UNL     1     -11.430  14.593  68.937  1.00  0.00    -0.323 A  
HETATM   13  C   UNL     1     -12.135  13.603  68.229  1.00  0.00    -0.306 A  
HETATM   14  C   UNL     1     -12.275  15.640  69.601  1.00  0.00    -0.264 C  
HETATM   15  C   UNL     1     -11.469  12.600  67.542  1.00  0.00    -0.397 A  
HETATM   16  C   UNL     1     -10.082  12.548  67.583  1.00  0.00    -0.217 A  
HETATM   17  C   UNL     1      -9.350  13.498  68.320  1.00  0.00    -0.205 A  
HETATM   18  C   UNL     1      -7.847  13.372  68.338  1.00  0.00    -0.138 C  
ENDBRANCH   9  11
ENDBRANCH   6   9
ENDBRANCH   5   6
BRANCH   5  19
HETATM   19  C   UNL     1      -9.980  18.134  69.139  1.00  0.00    -0.204 C  
HETATM   20  C   UNL     1     -10.142  19.654  69.195  1.00  0.00    -0.386 C  
ENDBRANCH   5  19
ENDBRANCH   4   5
BRANCH   4  21
HETATM   21  C   UNL     1     -10.116  16.639  66.525  1.00  0.00    -0.305 C  
HETATM   22  C   UNL     1      -9.985  15.651  65.365  1.00  0.00    -0.311 C  
ENDBRANCH   4  21
ENDBRANCH   3   4
ENDBRANCH   2   3
TORSDOF 8
ENDMDL
MODEL      384
REMARK 921   NORMALIZED FREE ENERGY PREDICTED BY IDOCK:   -2.20 KCAL/MOL
REMARK 922        TOTAL FREE ENERGY PREDICTED BY IDOCK:   -4.20 KCAL/MOL
REMARK 923 INTER-LIGAND FREE ENERGY PREDICTED BY IDOCK:   -3.84 KCAL/MOL
REMARK 924 INTRA-LIGAND FREE ENERGY PREDICTED BY IDOCK:   -0.36 KCAL/MOL
REMARK 927      BINDING AFFINITY PREDICTED BY RF-SCORE:    0.00 PKD
ROOT
HETATM    1  C   UNL     1      -6.542   6.209  66.515  1.00  0.00    -0.055 C  
HETATM    2  C   UNL     1      -7.665   7.199  66.240  1.00  0.00    -0.100 C  
ENDROOT
BRANCH   2   3
HETATM    3  C   UNL     1      -8.558   7.452  67.472  1.00  0.00    -0.122 C  
BRANCH   3   4
HETATM    4  N   UNL     1      -9.710   8.374  67.290  1.00  0.00    -0.169 NA 
BRANCH   4   5
HETATM    5  C   UNL     1      -9.796   9.392  68.409  1.00  0.00    -0.160 C  
BRANCH   5   6
HETATM    6  C   UNL     1     -10.205  10.756  67.842  1.00  0.00    -0.176 C  
HETATM    7  H   UNL     1     -11.673  12.003  67.933  1.00  0.00     0.000 HD 
HETATM    8  O   UNL     1     -11.419  11.158  68.284  1.00  0.00    -0.269 OA 
BRANCH   6   9
HETATM    9  N   UNL     1      -9.469  11.415  67.017  1.00  0.00    -0.172 NA 
HETATM   10  H   UNL     1      -8.952  10.898  66.306  1.00  0.00     0.000 HD 
BRANCH   9  11
HETATM   11  C   UNL     1      -9.344  12.826  67.053  1.00  0.00    -0.229 A  
HETATM   12  C   UNL     1     -10.337  13.726  66.592  1.00  0.00    -0.279 A  
HETATM   13  C   UNL     1     -10.168  15.111  66.766  1.00  0.00    -0.265 A  
HETATM   14  C   UNL     1     -11.588  13.311  65.875  1.00  0.00    -0.380 C  
HETATM   15  C   UNL     1      -9.072  15.622  67.444  1.00  0.00    -0.203 A  
HETATM   16  C   UNL     1      -8.103  14.753  67.929  1.00  0.00    -0.146 A  
HETATM   17  C   UNL     1      -8.221  13.364  67.731  1.00  0.00    -0.172 A  
HETATM   18  C   UNL     1      -7.123  12.479  68.266  1.00  0.00    -0.104 C  
ENDBRANCH   9  11
ENDBRANCH   6   9
ENDBRANCH   5   6
BRANCH   5  19
HETATM   19  C   UNL     1      -8.484   9.617  69.212  1.00  0.00    -0.150 C  
HETATM   20  C   UNL     1      -8.524   9.182  70.678  1.00  0.00    -0.246 C  
ENDBRANCH   5  19
ENDBRANCH   4   5
BRANCH   4  21
HETATM   21  C   UNL     1     -10.976   7.604  67.154  1.00  0.00    -0.028 C  
HETATM   22  C   UNL     1     -10.872   6.099  66.902  1.00  0.00    -0.411 C  
ENDBRANCH   4  21
ENDBRANCH   3   4
ENDBRANCH   2   3
TORSDOF 8
ENDMDL
MODEL      385
REMARK 921   NORMALIZED FREE ENERGY PREDICTED BY IDOCK:   -2.20 KCAL/MOL
REMARK 922        TOTAL FREE ENERGY PREDICTED BY IDOCK:   -4.20 KCAL/MOL
REMARK 923 INTER-LIGAND FREE ENERGY PREDICTED BY IDOCK:   -3.60 KCAL/MOL
REMARK 924 INTRA-LIGAND FREE ENERGY PREDICTED BY IDOCK:   -0.60 KCAL/MOL
REMARK 927      BINDING AFFINITY PREDICTED BY RF-SCORE:    0.00 PKD
ROOT
HETATM    1  C   UNL     1     -10.898  11.599  63.603  1.00  0.00    -0.503 C  
HETATM    2  C   UNL     1      -9.762  10.651  63.964  1.00  0.00    -0.373 C  
ENDROOT
BRANCH   2   3
HETATM    3  C   UNL     1      -9.780  10.232  65.450  1.00  0.00    -0.278 C  
BRANCH   3   4
HETATM    4  N   UNL     1      -8.629   9.428  65.935  1.00  0.00    -0.136 NA 
BRANCH   4   5
HETATM    5  C   UNL     1      -8.953   8.710  67.229  1.00  0.00    -0.133 C  
BRANCH   5   6
HETATM    6  C   UNL     1      -8.877   7.193  67.018  1.00  0.00    -0.124 C  
HETATM    7  H   UNL     1      -8.039   5.642  67.799  1.00  0.00     0.000 HD 
HETATM    8  O   UNL     1      -8.086   6.582  67.930  1.00  0.00    -0.114 OA 
BRANCH   6   9
HETATM    9  N   UNL     1      -9.487   6.595  66.055  1.00  0.00    -0.386 NA 
HETATM   10  H   UNL     1     -10.419   6.916  65.796  1.00  0.00     0.000 HD 
BRANCH   9  11
HETATM   11  C   UNL     1      -8.921   5.511  65.340  1.00  0.00    -0.099 A  
HETATM   12  C   UNL     1      -8.129   5.653  64.172  1.00  0.00    -0.129 A  
HETATM   13  C   UNL     1      -7.522   4.525  63.592  1.00  0.00    -0.055 A  
HETATM   14  C   UNL     1      -7.902   6.952  63.456  1.00  0.00    -0.103 C  
HETATM   15  C   UNL     1      -7.626   3.272  64.176  1.00  0.00    -0.076 A  
HETATM   16  C   UNL     1      -8.373   3.120  65.336  1.00  0.00    -0.096 A  
HETATM   17  C   UNL     1      -9.030   4.221  65.917  1.00  0.00    -0.124 A  
HETATM   18  C   UNL     1      -9.841   3.981  67.166  1.00  0.00    -0.144 C  
ENDBRANCH   9  11
ENDBRANCH   6   9
ENDBRANCH   5   6
BRANCH   5  19
HETATM   19  C   UNL     1     -10.355   9.008  67.828  1.00  0.00    -0.304 C  
HETATM   20  C   UNL     1     -10.448   8.958  69.354  1.00  0.00    -0.228 C  
ENDBRANCH   5  19
ENDBRANCH   4   5
BRANCH   4  21
HETATM   21  C   UNL     1      -7.418  10.281  66.071  1.00  0.00    -0.128 C  
HETATM   22  C   UNL     1      -6.265   9.752  66.925  1.00  0.00    -0.064 C  
ENDBRANCH   4  21
ENDBRANCH   3   4
ENDBRANCH   2   3
TORSDOF 8
ENDMDL
MODEL      386
REMARK 921   NORMALIZED FREE ENERGY PREDICTED BY IDOCK:   -2.19 KCAL/MOL
REMARK 922        TOTAL FREE ENERGY PREDICTED BY IDOCK:   -4.19 KCAL/MOL
REMARK 923 INTER-LIGAND FREE ENERGY PREDICTED BY IDOCK:   -3.85 KCAL/MOL
REMARK 924 INTRA-LIGAND FREE ENERGY PREDICTED BY IDOCK:   -0.34 KCAL/MOL
REMARK 927      BINDING AFFINITY PREDICTED BY RF-SCORE:    0.00 PKD
ROOT
HETATM    1  C   UNL     1     -12.220  11.955  63.403  1.00  0.00    -0.561 C  
HETATM    2  C   UNL     1     -11.723  13.144  64.213  1.00  0.00    -0.447 C  
ENDROOT
BRANCH   2   3
HETATM    3  C   UNL     1     -10.753  12.738  65.343  1.00  0.00    -0.284 C  
BRANCH   3   4
HETATM    4  N   UNL     1     -10.893  11.362  65.886  1.00  0.00    -0.261 NA 
BRANCH   4   5
HETATM    5  C   UNL     1     -10.577  11.309  67.367  1.00  0.00    -0.224 C  
BRANCH   5   6
HETATM    6  C   UNL     1     -10.081   9.908  67.745  1.00  0.00    -0.180 C  
HETATM    7  H   UNL     1     -10.679   8.076  67.693  1.00  0.00     0.000 HD 
HETATM    8  O   UNL     1     -10.987   8.944  67.459  1.00  0.00    -0.134 OA 
BRANCH   6   9
HETATM    9  N   UNL     1      -8.936   9.702  68.295  1.00  0.00    -0.123 NA 
HETATM   10  H   UNL     1      -8.912   9.369  69.258  1.00  0.00     0.000 HD 
BRANCH   9  11
HETATM   11  C   UNL     1      -7.708   9.918  67.622  1.00  0.00    -0.091 A  
HETATM   12  C   UNL     1      -6.961  11.121  67.692  1.00  0.00    -0.084 A  
HETATM   13  C   UNL     1      -5.700  11.204  67.075  1.00  0.00    -0.078 A  
HETATM   14  C   UNL     1      -7.437  12.375  68.366  1.00  0.00    -0.123 C  
HETATM   15  C   UNL     1      -5.133  10.105  66.450  1.00  0.00    -0.040 A  
HETATM   16  C   UNL     1      -5.837   8.909  66.397  1.00  0.00    -0.054 A  
HETATM   17  C   UNL     1      -7.121   8.807  66.966  1.00  0.00    -0.078 A  
HETATM   18  C   UNL     1      -7.837   7.485  66.856  1.00  0.00    -0.111 C  
ENDBRANCH   9  11
ENDBRANCH   6   9
ENDBRANCH   5   6
BRANCH   5  19
HETATM   19  C   UNL     1     -11.763  11.636  68.317  1.00  0.00    -0.374 C  
HETATM   20  C   UNL     1     -11.379  12.207  69.683  1.00  0.00    -0.223 C  
ENDBRANCH   5  19
ENDBRANCH   4   5
BRANCH   4  21
HETATM   21  C   UNL     1     -10.051  10.409  65.114  1.00  0.00    -0.308 C  
HETATM   22  C   UNL     1      -8.789  10.954  64.444  1.00  0.00    -0.070 C  
ENDBRANCH   4  21
ENDBRANCH   3   4
ENDBRANCH   2   3
TORSDOF 8
ENDMDL
MODEL      387
REMARK 921   NORMALIZED FREE ENERGY PREDICTED BY IDOCK:   -2.19 KCAL/MOL
REMARK 922        TOTAL FREE ENERGY PREDICTED BY IDOCK:   -4.18 KCAL/MOL
REMARK 923 INTER-LIGAND FREE ENERGY PREDICTED BY IDOCK:   -4.12 KCAL/MOL
REMARK 924 INTRA-LIGAND FREE ENERGY PREDICTED BY IDOCK:   -0.06 KCAL/MOL
REMARK 927      BINDING AFFINITY PREDICTED BY RF-SCORE:    0.00 PKD
ROOT
HETATM    1  C   UNL     1     -10.027  14.205  65.971  1.00  0.00    -0.340 C  
HETATM    2  C   UNL     1      -9.091  13.248  66.694  1.00  0.00    -0.181 C  
ENDROOT
BRANCH   2   3
HETATM    3  C   UNL     1      -9.382  11.766  66.373  1.00  0.00    -0.220 C  
BRANCH   3   4
HETATM    4  N   UNL     1      -9.244  10.797  67.491  1.00  0.00    -0.143 NA 
BRANCH   4   5
HETATM    5  C   UNL     1      -9.121   9.374  66.987  1.00  0.00    -0.134 C  
BRANCH   5   6
HETATM    6  C   UNL     1      -9.849   8.418  67.939  1.00  0.00    -0.170 C  
HETATM    7  H   UNL     1     -11.361   7.221  67.945  1.00  0.00     0.000 HD 
HETATM    8  O   UNL     1     -10.910   7.814  67.355  1.00  0.00    -0.248 OA 
BRANCH   6   9
HETATM    9  N   UNL     1      -9.487   8.246  69.162  1.00  0.00    -0.155 NA 
HETATM   10  H   UNL     1      -8.829   8.908  69.572  1.00  0.00     0.000 HD 
BRANCH   9  11
HETATM   11  C   UNL     1      -9.962   7.179  69.964  1.00  0.00    -0.179 A  
HETATM   12  C   UNL     1      -9.437   5.862  69.930  1.00  0.00    -0.180 A  
HETATM   13  C   UNL     1      -9.902   4.896  70.840  1.00  0.00    -0.277 A  
HETATM   14  C   UNL     1      -8.411   5.384  68.945  1.00  0.00    -0.099 C  
HETATM   15  C   UNL     1     -10.824   5.219  71.823  1.00  0.00    -0.198 A  
HETATM   16  C   UNL     1     -11.327   6.511  71.890  1.00  0.00    -0.327 A  
HETATM   17  C   UNL     1     -10.916   7.490  70.965  1.00  0.00    -0.266 A  
HETATM   18  C   UNL     1     -11.516   8.869  71.083  1.00  0.00    -0.364 C  
ENDBRANCH   9  11
ENDBRANCH   6   9
ENDBRANCH   5   6
BRANCH   5  19
HETATM   19  C   UNL     1      -7.669   8.839  66.840  1.00  0.00    -0.094 C  
HETATM   20  C   UNL     1      -6.723   9.710  66.011  1.00  0.00    -0.084 C  
ENDBRANCH   5  19
ENDBRANCH   4   5
BRANCH   4  21
HETATM   21  C   UNL     1     -10.375  10.941  68.447  1.00  0.00    -0.178 C  
HETATM   22  C   UNL     1     -11.748  11.303  67.879  1.00  0.00    -0.289 C  
ENDBRANCH   4  21
ENDBRANCH   3   4
ENDBRANCH   2   3
TORSDOF 8
ENDMDL
MODEL      388
REMARK 921   NORMALIZED FREE ENERGY PREDICTED BY IDOCK:   -2.18 KCAL/MOL
REMARK 922        TOTAL FREE ENERGY PREDICTED BY IDOCK:   -4.17 KCAL/MOL
REMARK 923 INTER-LIGAND FREE ENERGY PREDICTED BY IDOCK:   -4.07 KCAL/MOL
REMARK 924 INTRA-LIGAND FREE ENERGY PREDICTED BY IDOCK:   -0.10 KCAL/MOL
REMARK 927      BINDING AFFINITY PREDICTED BY RF-SCORE:    0.00 PKD
ROOT
HETATM    1  C   UNL     1      -7.423  15.131  68.202  1.00  0.00    -0.118 C  
HETATM    2  C   UNL     1      -8.344  14.173  68.943  1.00  0.00    -0.003 C  
ENDROOT
BRANCH   2   3
HETATM    3  C   UNL     1      -8.042  12.691  68.635  1.00  0.00    -0.010 C  
BRANCH   3   4
HETATM    4  N   UNL     1      -9.103  11.920  67.935  1.00  0.00    -0.176 NA 
BRANCH   4   5
HETATM    5  C   UNL     1     -10.354  11.792  68.781  1.00  0.00    -0.179 C  
BRANCH   5   6
HETATM    6  C   UNL     1     -10.506  10.348  69.271  1.00  0.00    -0.234 C  
HETATM    7  H   UNL     1     -10.988   8.610  68.589  1.00  0.00     0.000 HD 
HETATM    8  O   UNL     1     -10.894   9.505  68.286  1.00  0.00    -0.213 OA 
BRANCH   6   9
HETATM    9  N   UNL     1     -10.307  10.005  70.495  1.00  0.00    -0.394 NA 
HETATM   10  H   UNL     1     -10.274  10.735  71.206  1.00  0.00     0.000 HD 
BRANCH   9  11
HETATM   11  C   UNL     1     -10.130   8.658  70.900  1.00  0.00    -0.211 A  
HETATM   12  C   UNL     1     -11.192   7.780  71.232  1.00  0.00    -0.280 A  
HETATM   13  C   UNL     1     -10.926   6.430  71.519  1.00  0.00    -0.310 A  
HETATM   14  C   UNL     1     -12.631   8.194  71.340  1.00  0.00    -0.301 C  
HETATM   15  C   UNL     1      -9.643   5.914  71.421  1.00  0.00    -0.189 A  
HETATM   16  C   UNL     1      -8.594   6.753  71.068  1.00  0.00    -0.136 A  
HETATM   17  C   UNL     1      -8.822   8.119  70.818  1.00  0.00    -0.149 A  
HETATM   18  C   UNL     1      -7.635   8.978  70.459  1.00  0.00    -0.113 C  
ENDBRANCH   9  11
ENDBRANCH   6   9
ENDBRANCH   5   6
BRANCH   5  19
HETATM   19  C   UNL     1     -11.684  12.167  68.070  1.00  0.00    -0.409 C  
HETATM   20  C   UNL     1     -11.543  13.028  66.814  1.00  0.00    -0.420 C  
ENDBRANCH   5  19
ENDBRANCH   4   5
BRANCH   4  21
HETATM   21  C   UNL     1      -8.588  10.588  67.517  1.00  0.00    -0.121 C  
HETATM   22  C   UNL     1      -7.177  10.520  66.932  1.00  0.00    -0.106 C  
ENDBRANCH   4  21
ENDBRANCH   3   4
ENDBRANCH   2   3
TORSDOF 8
ENDMDL
MODEL      389
REMARK 921   NORMALIZED FREE ENERGY PREDICTED BY IDOCK:   -2.17 KCAL/MOL
REMARK 922        TOTAL FREE ENERGY PREDICTED BY IDOCK:   -4.16 KCAL/MOL
REMARK 923 INTER-LIGAND FREE ENERGY PREDICTED BY IDOCK:   -3.24 KCAL/MOL
REMARK 924 INTRA-LIGAND FREE ENERGY PREDICTED BY IDOCK:   -0.92 KCAL/MOL
REMARK 927      BINDING AFFINITY PREDICTED BY RF-SCORE:    0.00 PKD
ROOT
HETATM    1  C   UNL     1     -11.115   6.099  67.948  1.00  0.00    -0.311 C  
HETATM    2  C   UNL     1     -11.479   6.247  69.418  1.00  0.00    -0.348 C  
ENDROOT
BRANCH   2   3
HETATM    3  C   UNL     1     -10.373   5.737  70.365  1.00  0.00    -0.244 C  
BRANCH   3   4
HETATM    4  N   UNL     1      -9.358   6.727  70.809  1.00  0.00    -0.162 NA 
BRANCH   4   5
HETATM    5  C   UNL     1      -8.057   6.577  70.047  1.00  0.00    -0.121 C  
BRANCH   5   6
HETATM    6  C   UNL     1      -7.990   7.612  68.918  1.00  0.00    -0.125 C  
HETATM    7  H   UNL     1      -7.011   7.951  67.293  1.00  0.00     0.000 HD 
HETATM    8  O   UNL     1      -7.052   7.310  67.992  1.00  0.00    -0.076 OA 
BRANCH   6   9
HETATM    9  N   UNL     1      -8.739   8.659  68.892  1.00  0.00    -0.130 NA 
HETATM   10  H   UNL     1      -9.720   8.563  69.150  1.00  0.00     0.000 HD 
BRANCH   9  11
HETATM   11  C   UNL     1      -8.259   9.940  68.522  1.00  0.00    -0.106 A  
HETATM   12  C   UNL     1      -7.180  10.602  69.160  1.00  0.00    -0.102 A  
HETATM   13  C   UNL     1      -6.706  11.826  68.654  1.00  0.00    -0.073 A  
HETATM   14  C   UNL     1      -6.495  10.105  70.399  1.00  0.00    -0.131 C  
HETATM   15  C   UNL     1      -7.230  12.375  67.494  1.00  0.00    -0.145 A  
HETATM   16  C   UNL     1      -8.268  11.725  66.839  1.00  0.00    -0.166 A  
HETATM   17  C   UNL     1      -8.795  10.522  67.345  1.00  0.00    -0.132 A  
HETATM   18  C   UNL     1      -9.934   9.880  66.595  1.00  0.00    -0.277 C  
ENDBRANCH   9  11
ENDBRANCH   6   9
ENDBRANCH   5   6
BRANCH   5  19
HETATM   19  C   UNL     1      -7.821   5.187  69.393  1.00  0.00    -0.080 C  
HETATM   20  C   UNL     1      -6.758   4.313  70.061  1.00  0.00    -0.033 C  
ENDBRANCH   5  19
ENDBRANCH   4   5
BRANCH   4  21
HETATM   21  C   UNL     1      -9.144   6.632  72.278  1.00  0.00    -0.137 C  
HETATM   22  C   UNL     1      -9.617   7.800  73.145  1.00  0.00    -0.337 C  
ENDBRANCH   4  21
ENDBRANCH   3   4
ENDBRANCH   2   3
TORSDOF 8
ENDMDL
MODEL      390
REMARK 921   NORMALIZED FREE ENERGY PREDICTED BY IDOCK:   -2.17 KCAL/MOL
REMARK 922        TOTAL FREE ENERGY PREDICTED BY IDOCK:   -4.16 KCAL/MOL
REMARK 923 INTER-LIGAND FREE ENERGY PREDICTED BY IDOCK:   -3.97 KCAL/MOL
REMARK 924 INTRA-LIGAND FREE ENERGY PREDICTED BY IDOCK:   -0.19 KCAL/MOL
REMARK 927      BINDING AFFINITY PREDICTED BY RF-SCORE:    0.00 PKD
ROOT
HETATM    1  C   UNL     1     -12.665  14.755  70.657  1.00  0.00    -0.415 C  
HETATM    2  C   UNL     1     -12.136  13.964  69.469  1.00  0.00    -0.393 C  
ENDROOT
BRANCH   2   3
HETATM    3  C   UNL     1     -10.667  14.297  69.131  1.00  0.00    -0.220 C  
BRANCH   3   4
HETATM    4  N   UNL     1     -10.084  13.630  67.939  1.00  0.00    -0.238 NA 
BRANCH   4   5
HETATM    5  C   UNL     1      -8.835  12.846  68.290  1.00  0.00    -0.168 C  
BRANCH   5   6
HETATM    6  C   UNL     1      -8.007  12.592  67.026  1.00  0.00    -0.059 C  
HETATM    7  H   UNL     1      -6.262  12.990  66.309  1.00  0.00     0.000 HD 
HETATM    8  O   UNL     1      -6.775  13.148  67.093  1.00  0.00    -0.152 OA 
BRANCH   6   9
HETATM    9  N   UNL     1      -8.465  11.940  66.015  1.00  0.00    -0.388 NA 
HETATM   10  H   UNL     1      -8.689  12.454  65.164  1.00  0.00     0.000 HD 
BRANCH   9  11
HETATM   11  C   UNL     1      -8.671  10.538  66.033  1.00  0.00    -0.164 A  
HETATM   12  C   UNL     1      -7.628   9.579  66.061  1.00  0.00    -0.100 A  
HETATM   13  C   UNL     1      -7.931   8.211  66.184  1.00  0.00    -0.102 A  
HETATM   14  C   UNL     1      -6.170   9.909  65.931  1.00  0.00    -0.079 C  
HETATM   15  C   UNL     1      -9.237   7.777  66.347  1.00  0.00    -0.229 A  
HETATM   16  C   UNL     1     -10.270   8.705  66.351  1.00  0.00    -0.224 A  
HETATM   17  C   UNL     1     -10.003  10.077  66.185  1.00  0.00    -0.322 A  
HETATM   18  C   UNL     1     -11.173  11.028  66.180  1.00  0.00     0.024 C  
ENDBRANCH   9  11
ENDBRANCH   6   9
ENDBRANCH   5   6
BRANCH   5  19
HETATM   19  C   UNL     1      -9.077  11.462  68.953  1.00  0.00    -0.022 C  
HETATM   20  C   UNL     1      -7.819  10.686  69.345  1.00  0.00    -0.126 C  
ENDBRANCH   5  19
ENDBRANCH   4   5
BRANCH   4  21
HETATM   21  C   UNL     1      -9.821  14.623  66.863  1.00  0.00    -0.249 C  
HETATM   22  C   UNL     1     -10.970  14.970  65.916  1.00  0.00    -0.343 C  
ENDBRANCH   4  21
ENDBRANCH   3   4
ENDBRANCH   2   3
TORSDOF 8
ENDMDL
MODEL      391
REMARK 921   NORMALIZED FREE ENERGY PREDICTED BY IDOCK:   -2.15 KCAL/MOL
REMARK 922        TOTAL FREE ENERGY PREDICTED BY IDOCK:   -4.12 KCAL/MOL
REMARK 923 INTER-LIGAND FREE ENERGY PREDICTED BY IDOCK:   -4.51 KCAL/MOL
REMARK 924 INTRA-LIGAND FREE ENERGY PREDICTED BY IDOCK:    0.39 KCAL/MOL
REMARK 927      BINDING AFFINITY PREDICTED BY RF-SCORE:    0.00 PKD
ROOT
HETATM    1  C   UNL     1     -13.538  14.877  71.576  1.00  0.00    -0.511 C  
HETATM    2  C   UNL     1     -13.273  15.256  70.126  1.00  0.00     0.078 C  
ENDROOT
BRANCH   2   3
HETATM    3  C   UNL     1     -11.773  15.453  69.822  1.00  0.00    -0.333 C  
BRANCH   3   4
HETATM    4  N   UNL     1     -11.319  15.135  68.443  1.00  0.00    -0.300 NA 
BRANCH   4   5
HETATM    5  C   UNL     1     -10.591  13.807  68.384  1.00  0.00    -0.253 C  
BRANCH   5   6
HETATM    6  C   UNL     1      -9.367  13.923  67.468  1.00  0.00    -0.217 C  
HETATM    7  H   UNL     1      -7.451  14.086  67.594  1.00  0.00     0.000 HD 
HETATM    8  O   UNL     1      -8.209  14.015  68.162  1.00  0.00    -0.137 OA 
BRANCH   6   9
HETATM    9  N   UNL     1      -9.461  13.953  66.185  1.00  0.00    -0.472 NA 
HETATM   10  H   UNL     1      -9.473  14.859  65.718  1.00  0.00     0.000 HD 
BRANCH   9  11
HETATM   11  C   UNL     1      -9.547  12.782  65.391  1.00  0.00     0.061 A  
HETATM   12  C   UNL     1      -8.733  11.635  65.571  1.00  0.00     0.188 A  
HETATM   13  C   UNL     1      -8.964  10.480  64.803  1.00  0.00    -0.227 A  
HETATM   14  C   UNL     1      -7.578  11.558  66.525  1.00  0.00    -0.036 C  
HETATM   15  C   UNL     1     -10.023  10.411  63.910  1.00  0.00    -0.269 A  
HETATM   16  C   UNL     1     -10.849  11.514  63.743  1.00  0.00    -0.486 A  
HETATM   17  C   UNL     1     -10.616  12.700  64.464  1.00  0.00    -0.369 A  
HETATM   18  C   UNL     1     -11.540  13.867  64.219  1.00  0.00    -0.377 C  
ENDBRANCH   9  11
ENDBRANCH   6   9
ENDBRANCH   5   6
BRANCH   5  19
HETATM   19  C   UNL     1     -11.429  12.607  67.862  1.00  0.00    -0.360 C  
HETATM   20  C   UNL     1     -12.107  11.754  68.936  1.00  0.00    -0.238 C  
ENDBRANCH   5  19
ENDBRANCH   4   5
BRANCH   4  21
HETATM   21  C   UNL     1     -10.482  16.240  67.902  1.00  0.00    -0.295 C  
HETATM   22  C   UNL     1     -11.124  17.621  67.769  1.00  0.00     0.045 C  
ENDBRANCH   4  21
ENDBRANCH   3   4
ENDBRANCH   2   3
TORSDOF 8
ENDMDL
MODEL      392
REMARK 921   NORMALIZED FREE ENERGY PREDICTED BY IDOCK:   -2.13 KCAL/MOL
REMARK 922        TOTAL FREE ENERGY PREDICTED BY IDOCK:   -4.10 KCAL/MOL
REMARK 923 INTER-LIGAND FREE ENERGY PREDICTED BY IDOCK:   -4.80 KCAL/MOL
REMARK 924 INTRA-LIGAND FREE ENERGY PREDICTED BY IDOCK:    0.71 KCAL/MOL
REMARK 927      BINDING AFFINITY PREDICTED BY RF-SCORE:    0.00 PKD
ROOT
HETATM    1  C   UNL     1     -11.586  15.765  64.299  1.00  0.00    -0.192 C  
HETATM    2  C   UNL     1     -12.028  14.319  64.127  1.00  0.00    -0.401 C  
ENDROOT
BRANCH   2   3
HETATM    3  C   UNL     1     -11.969  13.513  65.442  1.00  0.00    -0.379 C  
BRANCH   3   4
HETATM    4  N   UNL     1     -11.131  12.286  65.442  1.00  0.00    -0.302 NA 
BRANCH   4   5
HETATM    5  C   UNL     1     -10.308  12.169  66.709  1.00  0.00    -0.213 C  
BRANCH   5   6
HETATM    6  C   UNL     1     -10.721  13.261  67.702  1.00  0.00    -0.239 C  
HETATM    7  H   UNL     1     -12.307  14.184  68.292  1.00  0.00     0.000 HD 
HETATM    8  O   UNL     1     -12.051  13.508  67.676  1.00  0.00    -0.347 OA 
BRANCH   6   9
HETATM    9  N   UNL     1      -9.873  13.876  68.450  1.00  0.00    -0.227 NA 
HETATM   10  H   UNL     1      -9.148  13.331  68.914  1.00  0.00     0.000 HD 
BRANCH   9  11
HETATM   11  C   UNL     1      -9.902  15.278  68.655  1.00  0.00    -0.211 A  
HETATM   12  C   UNL     1      -9.230  16.218  67.834  1.00  0.00    -0.201 A  
HETATM   13  C   UNL     1      -9.405  17.597  68.053  1.00  0.00    -0.274 A  
HETATM   14  C   UNL     1      -8.284  15.853  66.729  1.00  0.00    -0.307 C  
HETATM   15  C   UNL     1     -10.279  18.065  69.021  1.00  0.00    -0.262 A  
HETATM   16  C   UNL     1     -10.969  17.159  69.815  1.00  0.00     0.344 A  
HETATM   17  C   UNL     1     -10.782  15.773  69.651  1.00  0.00    -0.292 A  
HETATM   18  C   UNL     1     -11.548  14.845  70.560  1.00  0.00    -0.336 C  
ENDBRANCH   9  11
ENDBRANCH   6   9
ENDBRANCH   5   6
BRANCH   5  19
HETATM   19  C   UNL     1      -8.770  12.293  66.522  1.00  0.00    -0.084 C  
HETATM   20  C   UNL     1      -7.955  11.054  66.898  1.00  0.00    -0.143 C  
ENDBRANCH   5  19
ENDBRANCH   4   5
BRANCH   4  21
HETATM   21  C   UNL     1     -10.273  12.242  64.227  1.00  0.00    -0.330 C  
HETATM   22  C   UNL     1     -10.132  10.903  63.502  1.00  0.00    -0.406 C  
ENDBRANCH   4  21
ENDBRANCH   3   4
ENDBRANCH   2   3
TORSDOF 8
ENDMDL
MODEL      393
REMARK 921   NORMALIZED FREE ENERGY PREDICTED BY IDOCK:   -2.13 KCAL/MOL
REMARK 922        TOTAL FREE ENERGY PREDICTED BY IDOCK:   -4.09 KCAL/MOL
REMARK 923 INTER-LIGAND FREE ENERGY PREDICTED BY IDOCK:   -4.08 KCAL/MOL
REMARK 924 INTRA-LIGAND FREE ENERGY PREDICTED BY IDOCK:   -0.01 KCAL/MOL
REMARK 927      BINDING AFFINITY PREDICTED BY RF-SCORE:    0.00 PKD
ROOT
HETATM    1  C   UNL     1     -12.673  10.122  71.681  1.00  0.00    -0.549 C  
HETATM    2  C   UNL     1     -12.855   8.625  71.886  1.00  0.00    -0.411 C  
ENDROOT
BRANCH   2   3
HETATM    3  C   UNL     1     -11.839   7.782  71.088  1.00  0.00    -0.291 C  
BRANCH   3   4
HETATM    4  N   UNL     1     -10.412   7.896  71.485  1.00  0.00    -0.207 NA 
BRANCH   4   5
HETATM    5  C   UNL     1      -9.525   6.987  70.659  1.00  0.00    -0.165 C  
BRANCH   5   6
HETATM    6  C   UNL     1     -10.041   5.545  70.735  1.00  0.00    -0.212 C  
HETATM    7  H   UNL     1     -10.420   4.189  72.052  1.00  0.00     0.000 HD 
HETATM    8  O   UNL     1     -10.099   5.082  72.005  1.00  0.00    -0.183 OA 
BRANCH   6   9
HETATM    9  N   UNL     1     -10.355   4.864  69.689  1.00  0.00    -0.202 NA 
HETATM   10  H   UNL     1     -11.173   4.257  69.730  1.00  0.00     0.000 HD 
BRANCH   9  11
HETATM   11  C   UNL     1      -9.614   4.921  68.482  1.00  0.00    -0.152 A  
HETATM   12  C   UNL     1      -9.949   5.747  67.379  1.00  0.00    -0.172 A  
HETATM   13  C   UNL     1      -9.093   5.814  66.265  1.00  0.00    -0.154 A  
HETATM   14  C   UNL     1     -11.205   6.561  67.282  1.00  0.00    -0.314 C  
HETATM   15  C   UNL     1      -7.884   5.137  66.245  1.00  0.00    -0.103 A  
HETATM   16  C   UNL     1      -7.526   4.346  67.329  1.00  0.00    -0.077 A  
HETATM   17  C   UNL     1      -8.381   4.222  68.441  1.00  0.00    -0.098 A  
HETATM   18  C   UNL     1      -7.939   3.332  69.575  1.00  0.00    -0.058 C  
ENDBRANCH   9  11
ENDBRANCH   6   9
ENDBRANCH   5   6
BRANCH   5  19
HETATM   19  C   UNL     1      -8.029   6.949  71.079  1.00  0.00    -0.102 C  
HETATM   20  C   UNL     1      -7.025   7.320  69.985  1.00  0.00    -0.060 C  
ENDBRANCH   5  19
ENDBRANCH   4   5
BRANCH   4  21
HETATM   21  C   UNL     1     -10.254   7.637  72.942  1.00  0.00    -0.298 C  
HETATM   22  C   UNL     1      -9.019   8.210  73.639  1.00  0.00    -0.275 C  
ENDBRANCH   4  21
ENDBRANCH   3   4
ENDBRANCH   2   3
TORSDOF 8
ENDMDL
MODEL      394
REMARK 921   NORMALIZED FREE ENERGY PREDICTED BY IDOCK:   -2.12 KCAL/MOL
REMARK 922        TOTAL FREE ENERGY PREDICTED BY IDOCK:   -4.08 KCAL/MOL
REMARK 923 INTER-LIGAND FREE ENERGY PREDICTED BY IDOCK:   -3.87 KCAL/MOL
REMARK 924 INTRA-LIGAND FREE ENERGY PREDICTED BY IDOCK:   -0.22 KCAL/MOL
REMARK 927      BINDING AFFINITY PREDICTED BY RF-SCORE:    0.00 PKD
ROOT
HETATM    1  C   UNL     1      -6.295  10.448  66.637  1.00  0.00    -0.079 C  
HETATM    2  C   UNL     1      -7.279  11.582  66.884  1.00  0.00    -0.137 C  
ENDROOT
BRANCH   2   3
HETATM    3  C   UNL     1      -8.751  11.133  66.779  1.00  0.00    -0.157 C  
BRANCH   3   4
HETATM    4  N   UNL     1      -9.784  12.111  67.208  1.00  0.00    -0.189 NA 
BRANCH   4   5
HETATM    5  C   UNL     1     -10.294  11.813  68.603  1.00  0.00    -0.214 C  
BRANCH   5   6
HETATM    6  C   UNL     1     -10.181  10.312  68.890  1.00  0.00    -0.205 C  
HETATM    7  H   UNL     1     -11.254   8.713  68.791  1.00  0.00     0.000 HD 
HETATM    8  O   UNL     1     -11.324   9.644  68.613  1.00  0.00    -0.026 OA 
BRANCH   6   9
HETATM    9  N   UNL     1      -9.112   9.775  69.366  1.00  0.00    -0.187 NA 
HETATM   10  H   UNL     1      -8.330  10.381  69.611  1.00  0.00     0.000 HD 
BRANCH   9  11
HETATM   11  C   UNL     1      -8.975   8.378  69.566  1.00  0.00    -0.149 A  
HETATM   12  C   UNL     1      -8.536   7.470  68.570  1.00  0.00    -0.129 A  
HETATM   13  C   UNL     1      -8.329   6.117  68.893  1.00  0.00    -0.115 A  
HETATM   14  C   UNL     1      -8.296   7.838  67.135  1.00  0.00    -0.118 C  
HETATM   15  C   UNL     1      -8.482   5.657  70.191  1.00  0.00    -0.119 A  
HETATM   16  C   UNL     1      -8.882   6.538  71.186  1.00  0.00    -0.138 A  
HETATM   17  C   UNL     1      -9.141   7.889  70.886  1.00  0.00    -0.157 A  
HETATM   18  C   UNL     1      -9.592   8.788  72.010  1.00  0.00    -0.356 C  
ENDBRANCH   9  11
ENDBRANCH   6   9
ENDBRANCH   5   6
BRANCH   5  19
HETATM   19  C   UNL     1     -11.772  12.211  68.876  1.00  0.00    -0.381 C  
HETATM   20  C   UNL     1     -12.038  12.883  70.224  1.00  0.00    -0.377 C  
ENDBRANCH   5  19
ENDBRANCH   4   5
BRANCH   4  21
HETATM   21  C   UNL     1     -10.896  12.161  66.220  1.00  0.00    -0.282 C  
HETATM   22  C   UNL     1     -10.585  11.766  64.776  1.00  0.00    -0.351 C  
ENDBRANCH   4  21
ENDBRANCH   3   4
ENDBRANCH   2   3
TORSDOF 8
ENDMDL
MODEL      395
REMARK 921   NORMALIZED FREE ENERGY PREDICTED BY IDOCK:   -2.12 KCAL/MOL
REMARK 922        TOTAL FREE ENERGY PREDICTED BY IDOCK:   -4.08 KCAL/MOL
REMARK 923 INTER-LIGAND FREE ENERGY PREDICTED BY IDOCK:   -2.90 KCAL/MOL
REMARK 924 INTRA-LIGAND FREE ENERGY PREDICTED BY IDOCK:   -1.18 KCAL/MOL
REMARK 927      BINDING AFFINITY PREDICTED BY RF-SCORE:    0.00 PKD
ROOT
HETATM    1  C   UNL     1     -10.626   5.170  72.496  1.00  0.00    -0.275 C  
HETATM    2  C   UNL     1     -10.305   6.647  72.676  1.00  0.00    -0.219 C  
ENDROOT
BRANCH   2   3
HETATM    3  C   UNL     1     -10.635   7.490  71.426  1.00  0.00    -0.210 C  
BRANCH   3   4
HETATM    4  N   UNL     1      -9.597   8.452  70.972  1.00  0.00    -0.160 NA 
BRANCH   4   5
HETATM    5  C   UNL     1      -9.669   8.689  69.477  1.00  0.00    -0.179 C  
BRANCH   5   6
HETATM    6  C   UNL     1      -9.763  10.192  69.191  1.00  0.00    -0.215 C  
HETATM    7  H   UNL     1     -10.832  11.717  69.691  1.00  0.00     0.000 HD 
HETATM    8  O   UNL     1     -10.774  10.785  69.867  1.00  0.00    -0.236 OA 
BRANCH   6   9
HETATM    9  N   UNL     1      -8.971  10.795  68.375  1.00  0.00    -0.146 NA 
HETATM   10  H   UNL     1      -9.231  11.722  68.039  1.00  0.00     0.000 HD 
BRANCH   9  11
HETATM   11  C   UNL     1      -7.754  10.227  67.922  1.00  0.00    -0.089 A  
HETATM   12  C   UNL     1      -6.595  10.081  68.725  1.00  0.00    -0.049 A  
HETATM   13  C   UNL     1      -5.468   9.409  68.220  1.00  0.00    -0.037 A  
HETATM   14  C   UNL     1      -6.451  10.634  70.113  1.00  0.00    -0.152 C  
HETATM   15  C   UNL     1      -5.485   8.821  66.964  1.00  0.00    -0.041 A  
HETATM   16  C   UNL     1      -6.622   8.929  66.175  1.00  0.00    -0.065 A  
HETATM   17  C   UNL     1      -7.751   9.634  66.634  1.00  0.00    -0.098 A  
HETATM   18  C   UNL     1      -8.945   9.729  65.718  1.00  0.00    -0.195 C  
ENDBRANCH   9  11
ENDBRANCH   6   9
ENDBRANCH   5   6
BRANCH   5  19
HETATM   19  C   UNL     1     -10.868   8.019  68.749  1.00  0.00     0.019 C  
HETATM   20  C   UNL     1     -10.531   7.304  67.440  1.00  0.00    -0.359 C  
ENDBRANCH   5  19
ENDBRANCH   4   5
BRANCH   4  21
HETATM   21  C   UNL     1      -8.244   7.993  71.388  1.00  0.00    -0.112 C  
HETATM   22  C   UNL     1      -7.442   7.149  70.397  1.00  0.00    -0.084 C  
ENDBRANCH   4  21
ENDBRANCH   3   4
ENDBRANCH   2   3
TORSDOF 8
ENDMDL
MODEL      396
REMARK 921   NORMALIZED FREE ENERGY PREDICTED BY IDOCK:   -2.09 KCAL/MOL
REMARK 922        TOTAL FREE ENERGY PREDICTED BY IDOCK:   -4.04 KCAL/MOL
REMARK 923 INTER-LIGAND FREE ENERGY PREDICTED BY IDOCK:   -3.05 KCAL/MOL
REMARK 924 INTRA-LIGAND FREE ENERGY PREDICTED BY IDOCK:   -0.99 KCAL/MOL
REMARK 927      BINDING AFFINITY PREDICTED BY RF-SCORE:    0.00 PKD
ROOT
HETATM    1  C   UNL     1      -5.642   8.196  67.701  1.00  0.00    -0.038 C  
HETATM    2  C   UNL     1      -5.284   6.776  67.285  1.00  0.00    -0.009 C  
ENDROOT
BRANCH   2   3
HETATM    3  C   UNL     1      -6.060   5.704  68.080  1.00  0.00    -0.018 C  
BRANCH   3   4
HETATM    4  N   UNL     1      -7.534   5.867  68.166  1.00  0.00    -0.080 NA 
BRANCH   4   5
HETATM    5  C   UNL     1      -8.064   5.468  69.528  1.00  0.00    -0.101 C  
BRANCH   5   6
HETATM    6  C   UNL     1      -9.500   5.977  69.698  1.00  0.00    -0.144 C  
HETATM    7  H   UNL     1     -11.300   5.291  69.783  1.00  0.00     0.000 HD 
HETATM    8  O   UNL     1     -10.410   4.976  69.677  1.00  0.00    -0.260 OA 
BRANCH   6   9
HETATM    9  N   UNL     1      -9.784   7.226  69.820  1.00  0.00    -0.166 NA 
HETATM   10  H   UNL     1     -10.139   7.560  70.716  1.00  0.00     0.000 HD 
BRANCH   9  11
HETATM   11  C   UNL     1      -9.625   8.159  68.765  1.00  0.00    -0.149 A  
HETATM   12  C   UNL     1     -10.295   8.074  67.518  1.00  0.00    -0.330 A  
HETATM   13  C   UNL     1     -10.155   9.105  66.572  1.00  0.00    -0.357 A  
HETATM   14  C   UNL     1     -11.147   6.914  67.092  1.00  0.00    -0.362 C  
HETATM   15  C   UNL     1      -9.423  10.247  66.856  1.00  0.00    -0.200 A  
HETATM   16  C   UNL     1      -8.785  10.361  68.084  1.00  0.00    -0.125 A  
HETATM   17  C   UNL     1      -8.868   9.327  69.035  1.00  0.00    -0.136 A  
HETATM   18  C   UNL     1      -8.135   9.508  70.340  1.00  0.00    -0.209 C  
ENDBRANCH   9  11
ENDBRANCH   6   9
ENDBRANCH   5   6
BRANCH   5  19
HETATM   19  C   UNL     1      -7.254   5.999  70.743  1.00  0.00    -0.077 C  
HETATM   20  C   UNL     1      -7.331   5.150  72.013  1.00  0.00    -0.090 C  
ENDBRANCH   5  19
ENDBRANCH   4   5
BRANCH   4  21
HETATM   21  C   UNL     1      -8.205   5.108  67.075  1.00  0.00    -0.107 C  
HETATM   22  C   UNL     1      -8.219   3.582  67.172  1.00  0.00    -0.091 C  
ENDBRANCH   4  21
ENDBRANCH   3   4
ENDBRANCH   2   3
TORSDOF 8
ENDMDL
MODEL      397
REMARK 921   NORMALIZED FREE ENERGY PREDICTED BY IDOCK:   -2.09 KCAL/MOL
REMARK 922        TOTAL FREE ENERGY PREDICTED BY IDOCK:   -4.04 KCAL/MOL
REMARK 923 INTER-LIGAND FREE ENERGY PREDICTED BY IDOCK:   -3.37 KCAL/MOL
REMARK 924 INTRA-LIGAND FREE ENERGY PREDICTED BY IDOCK:   -0.67 KCAL/MOL
REMARK 927      BINDING AFFINITY PREDICTED BY RF-SCORE:    0.00 PKD
ROOT
HETATM    1  C   UNL     1     -13.178   9.426  71.083  1.00  0.00    -0.288 C  
HETATM    2  C   UNL     1     -13.324   8.214  71.992  1.00  0.00    -0.309 C  
ENDROOT
BRANCH   2   3
HETATM    3  C   UNL     1     -12.329   7.084  71.652  1.00  0.00    -0.368 C  
BRANCH   3   4
HETATM    4  N   UNL     1     -10.887   7.440  71.639  1.00  0.00    -0.219 NA 
BRANCH   4   5
HETATM    5  C   UNL     1     -10.015   6.238  71.338  1.00  0.00    -0.186 C  
BRANCH   5   6
HETATM    6  C   UNL     1      -9.752   6.149  69.831  1.00  0.00    -0.163 C  
HETATM    7  H   UNL     1     -10.530   5.371  68.248  1.00  0.00     0.000 HD 
HETATM    8  O   UNL     1     -10.693   5.425  69.183  1.00  0.00    -0.220 OA 
BRANCH   6   9
HETATM    9  N   UNL     1      -8.727   6.692  69.272  1.00  0.00    -0.131 NA 
HETATM   10  H   UNL     1      -8.492   6.420  68.317  1.00  0.00     0.000 HD 
BRANCH   9  11
HETATM   11  C   UNL     1      -7.910   7.649  69.923  1.00  0.00    -0.102 A  
HETATM   12  C   UNL     1      -8.312   8.979  70.205  1.00  0.00    -0.167 A  
HETATM   13  C   UNL     1      -7.471   9.825  70.951  1.00  0.00     0.159 A  
HETATM   14  C   UNL     1      -9.593   9.596  69.727  1.00  0.00    -0.242 C  
HETATM   15  C   UNL     1      -6.275   9.366  71.480  1.00  0.00    -0.011 A  
HETATM   16  C   UNL     1      -5.880   8.056  71.239  1.00  0.00    -0.034 A  
HETATM   17  C   UNL     1      -6.677   7.198  70.458  1.00  0.00    -0.052 A  
HETATM   18  C   UNL     1      -6.179   5.795  70.219  1.00  0.00    -0.027 C  
ENDBRANCH   9  11
ENDBRANCH   6   9
ENDBRANCH   5   6
BRANCH   5  19
HETATM   19  C   UNL     1     -10.596   4.864  71.773  1.00  0.00    -0.164 C  
HETATM   20  C   UNL     1      -9.781   4.103  72.821  1.00  0.00    -0.185 C  
ENDBRANCH   5  19
ENDBRANCH   4   5
BRANCH   4  21
HETATM   21  C   UNL     1     -10.500   8.088  72.922  1.00  0.00    -0.332 C  
HETATM   22  C   UNL     1      -9.299   7.516  73.676  1.00  0.00    -0.329 C  
ENDBRANCH   4  21
ENDBRANCH   3   4
ENDBRANCH   2   3
TORSDOF 8
ENDMDL
MODEL      398
REMARK 921   NORMALIZED FREE ENERGY PREDICTED BY IDOCK:   -2.08 KCAL/MOL
REMARK 922        TOTAL FREE ENERGY PREDICTED BY IDOCK:   -4.02 KCAL/MOL
REMARK 923 INTER-LIGAND FREE ENERGY PREDICTED BY IDOCK:   -4.81 KCAL/MOL
REMARK 924 INTRA-LIGAND FREE ENERGY PREDICTED BY IDOCK:    0.80 KCAL/MOL
REMARK 927      BINDING AFFINITY PREDICTED BY RF-SCORE:    0.00 PKD
ROOT
HETATM    1  C   UNL     1     -13.284   9.582  71.375  1.00  0.00    -0.448 C  
HETATM    2  C   UNL     1     -11.976   9.062  70.798  1.00  0.00    -0.214 C  
ENDROOT
BRANCH   2   3
HETATM    3  C   UNL     1     -10.783  10.002  71.070  1.00  0.00    -0.031 C  
BRANCH   3   4
HETATM    4  N   UNL     1     -10.196  10.700  69.897  1.00  0.00    -0.071 NA 
BRANCH   4   5
HETATM    5  C   UNL     1     -11.193  10.829  68.764  1.00  0.00    -0.272 C  
BRANCH   5   6
HETATM    6  C   UNL     1     -10.517  10.481  67.433  1.00  0.00    -0.244 C  
HETATM    7  H   UNL     1     -10.417   9.025  66.173  1.00  0.00     0.000 HD 
HETATM    8  O   UNL     1     -10.836   9.240  66.998  1.00  0.00    -0.186 OA 
BRANCH   6   9
HETATM    9  N   UNL     1      -9.718  11.290  66.828  1.00  0.00    -0.191 NA 
HETATM   10  H   UNL     1      -8.816  10.936  66.511  1.00  0.00     0.000 HD 
BRANCH   9  11
HETATM   11  C   UNL     1     -10.037  12.648  66.583  1.00  0.00    -0.241 A  
HETATM   12  C   UNL     1      -9.367  13.745  67.182  1.00  0.00    -0.240 A  
HETATM   13  C   UNL     1      -9.683  15.060  66.796  1.00  0.00    -0.253 A  
HETATM   14  C   UNL     1      -8.331  13.618  68.260  1.00  0.00    -0.165 C  
HETATM   15  C   UNL     1     -10.598  15.311  65.785  1.00  0.00    -0.359 A  
HETATM   16  C   UNL     1     -11.243  14.248  65.167  1.00  0.00    -0.345 A  
HETATM   17  C   UNL     1     -10.981  12.923  65.562  1.00  0.00    -0.301 A  
HETATM   18  C   UNL     1     -11.731  11.817  64.862  1.00  0.00    -0.187 C  
ENDBRANCH   9  11
ENDBRANCH   6   9
ENDBRANCH   5   6
BRANCH   5  19
HETATM   19  C   UNL     1     -11.830  12.235  68.589  1.00  0.00    -0.354 C  
HETATM   20  C   UNL     1     -11.908  13.089  69.856  1.00  0.00    -0.377 C  
ENDBRANCH   5  19
ENDBRANCH   4   5
BRANCH   4  21
HETATM   21  C   UNL     1      -8.951  10.015  69.454  1.00  0.00    -0.194 C  
HETATM   22  C   UNL     1      -8.685   8.606  69.985  1.00  0.00    -0.141 C  
ENDBRANCH   4  21
ENDBRANCH   3   4
ENDBRANCH   2   3
TORSDOF 8
ENDMDL
MODEL      399
REMARK 921   NORMALIZED FREE ENERGY PREDICTED BY IDOCK:   -2.06 KCAL/MOL
REMARK 922        TOTAL FREE ENERGY PREDICTED BY IDOCK:   -3.99 KCAL/MOL
REMARK 923 INTER-LIGAND FREE ENERGY PREDICTED BY IDOCK:   -2.67 KCAL/MOL
REMARK 924 INTRA-LIGAND FREE ENERGY PREDICTED BY IDOCK:   -1.32 KCAL/MOL
REMARK 927      BINDING AFFINITY PREDICTED BY RF-SCORE:    0.00 PKD
ROOT
HETATM    1  C   UNL     1      -5.777   8.339  67.948  1.00  0.00    -0.039 C  
HETATM    2  C   UNL     1      -6.160   7.420  69.099  1.00  0.00    -0.031 C  
ENDROOT
BRANCH   2   3
HETATM    3  C   UNL     1      -7.026   8.122  70.166  1.00  0.00    -0.040 C  
BRANCH   3   4
HETATM    4  N   UNL     1      -8.402   7.598  70.365  1.00  0.00    -0.122 NA 
BRANCH   4   5
HETATM    5  C   UNL     1      -9.452   8.633  70.017  1.00  0.00    -0.166 C  
BRANCH   5   6
HETATM    6  C   UNL     1     -10.622   7.963  69.287  1.00  0.00    -0.188 C  
HETATM    7  H   UNL     1     -12.422   7.366  69.637  1.00  0.00     0.000 HD 
HETATM    8  O   UNL     1     -11.697   7.781  70.090  1.00  0.00    -0.056 OA 
BRANCH   6   9
HETATM    9  N   UNL     1     -10.555   7.600  68.054  1.00  0.00    -0.365 NA 
HETATM   10  H   UNL     1     -11.181   8.043  67.382  1.00  0.00     0.000 HD 
BRANCH   9  11
HETATM   11  C   UNL     1      -9.651   6.614  67.589  1.00  0.00    -0.124 A  
HETATM   12  C   UNL     1      -9.603   5.283  68.076  1.00  0.00    -0.163 A  
HETATM   13  C   UNL     1      -8.743   4.345  67.478  1.00  0.00    -0.112 A  
HETATM   14  C   UNL     1     -10.401   4.779  69.242  1.00  0.00    -0.022 C  
HETATM   15  C   UNL     1      -7.978   4.675  66.370  1.00  0.00    -0.103 A  
HETATM   16  C   UNL     1      -8.034   5.966  65.862  1.00  0.00    -0.109 A  
HETATM   17  C   UNL     1      -8.851   6.940  66.465  1.00  0.00    -0.148 A  
HETATM   18  C   UNL     1      -8.849   8.328  65.873  1.00  0.00    -0.197 C  
ENDBRANCH   9  11
ENDBRANCH   6   9
ENDBRANCH   5   6
BRANCH   5  19
HETATM   19  C   UNL     1      -8.969   9.799  69.111  1.00  0.00    -0.161 C  
HETATM   20  C   UNL     1      -9.814  11.073  69.165  1.00  0.00    -0.117 C  
ENDBRANCH   5  19
ENDBRANCH   4   5
BRANCH   4  21
HETATM   21  C   UNL     1      -8.571   7.096  71.756  1.00  0.00    -0.117 C  
HETATM   22  C   UNL     1      -8.765   8.127  72.868  1.00  0.00    -0.290 C  
ENDBRANCH   4  21
ENDBRANCH   3   4
ENDBRANCH   2   3
TORSDOF 8
ENDMDL
MODEL      400
REMARK 921   NORMALIZED FREE ENERGY PREDICTED BY IDOCK:   -2.02 KCAL/MOL
REMARK 922        TOTAL FREE ENERGY PREDICTED BY IDOCK:   -3.94 KCAL/MOL
REMARK 923 INTER-LIGAND FREE ENERGY PREDICTED BY IDOCK:   -3.46 KCAL/MOL
REMARK 924 INTRA-LIGAND FREE ENERGY PREDICTED BY IDOCK:   -0.48 KCAL/MOL
REMARK 927      BINDING AFFINITY PREDICTED BY RF-SCORE:    0.00 PKD
ROOT
HETATM    1  C   UNL     1      -6.348   8.694  63.831  1.00  0.00    -0.072 C  
HETATM    2  C   UNL     1      -7.548   8.882  64.748  1.00  0.00    -0.106 C  
ENDROOT
BRANCH   2   3
HETATM    3  C   UNL     1      -7.519  10.226  65.506  1.00  0.00    -0.149 C  
BRANCH   3   4
HETATM    4  N   UNL     1      -8.831  10.855  65.809  1.00  0.00    -0.188 NA 
BRANCH   4   5
HETATM    5  C   UNL     1      -9.168  10.769  67.283  1.00  0.00    -0.147 C  
BRANCH   5   6
HETATM    6  C   UNL     1      -9.947   9.479  67.565  1.00  0.00    -0.186 C  
HETATM    7  H   UNL     1     -11.767   8.882  67.786  1.00  0.00     0.000 HD 
HETATM    8  O   UNL     1     -11.284   9.682  67.612  1.00  0.00    -0.132 OA 
BRANCH   6   9
HETATM    9  N   UNL     1      -9.368   8.345  67.756  1.00  0.00    -0.134 NA 
HETATM   10  H   UNL     1      -9.130   7.777  66.944  1.00  0.00     0.000 HD 
BRANCH   9  11
HETATM   11  C   UNL     1      -9.046   7.853  69.046  1.00  0.00    -0.144 A  
HETATM   12  C   UNL     1      -9.890   7.008  69.810  1.00  0.00    -0.171 A  
HETATM   13  C   UNL     1      -9.439   6.484  71.034  1.00  0.00    -0.171 A  
HETATM   14  C   UNL     1     -11.293   6.640  69.424  1.00  0.00    -0.331 C  
HETATM   15  C   UNL     1      -8.151   6.721  71.487  1.00  0.00    -0.110 A  
HETATM   16  C   UNL     1      -7.300   7.522  70.737  1.00  0.00    -0.068 A  
HETATM   17  C   UNL     1      -7.736   8.099  69.529  1.00  0.00    -0.102 A  
HETATM   18  C   UNL     1      -6.767   8.974  68.774  1.00  0.00    -0.054 C  
ENDBRANCH   9  11
ENDBRANCH   6   9
ENDBRANCH   5   6
BRANCH   5  19
HETATM   19  C   UNL     1     -10.022  11.939  67.845  1.00  0.00    -0.195 C  
HETATM   20  C   UNL     1      -9.923  13.259  67.077  1.00  0.00    -0.238 C  
ENDBRANCH   5  19
ENDBRANCH   4   5
BRANCH   4  21
HETATM   21  C   UNL     1      -9.902  10.256  64.967  1.00  0.00    -0.329 C  
HETATM   22  C   UNL     1     -10.631  11.171  63.983  1.00  0.00    -0.436 C  
ENDBRANCH   4  21
ENDBRANCH   3   4
ENDBRANCH   2   3
TORSDOF 8
ENDMDL
MODEL      401
REMARK 921   NORMALIZED FREE ENERGY PREDICTED BY IDOCK:   -1.99 KCAL/MOL
REMARK 922        TOTAL FREE ENERGY PREDICTED BY IDOCK:   -3.89 KCAL/MOL
REMARK 923 INTER-LIGAND FREE ENERGY PREDICTED BY IDOCK:   -3.10 KCAL/MOL
REMARK 924 INTRA-LIGAND FREE ENERGY PREDICTED BY IDOCK:   -0.79 KCAL/MOL
REMARK 927      BINDING AFFINITY PREDICTED BY RF-SCORE:    0.00 PKD
ROOT
HETATM    1  C   UNL     1     -13.184   9.441  71.082  1.00  0.00    -0.288 C  
HETATM    2  C   UNL     1     -13.305   8.220  71.982  1.00  0.00    -0.336 C  
ENDROOT
BRANCH   2   3
HETATM    3  C   UNL     1     -12.298   7.107  71.623  1.00  0.00    -0.362 C  
BRANCH   3   4
HETATM    4  N   UNL     1     -10.862   7.487  71.584  1.00  0.00    -0.219 NA 
BRANCH   4   5
HETATM    5  C   UNL     1      -9.977   6.300  71.262  1.00  0.00    -0.180 C  
BRANCH   5   6
HETATM    6  C   UNL     1      -9.696   6.253  69.756  1.00  0.00    -0.160 C  
HETATM    7  H   UNL     1     -10.571   6.654  68.086  1.00  0.00     0.000 HD 
HETATM    8  O   UNL     1     -10.746   6.683  69.019  1.00  0.00    -0.217 OA 
BRANCH   6   9
HETATM    9  N   UNL     1      -8.583   5.824  69.271  1.00  0.00    -0.110 NA 
HETATM   10  H   UNL     1      -8.533   5.623  68.272  1.00  0.00     0.000 HD 
BRANCH   9  11
HETATM   11  C   UNL     1      -7.426   5.617  70.062  1.00  0.00    -0.070 A  
HETATM   12  C   UNL     1      -6.676   6.659  70.664  1.00  0.00    -0.057 A  
HETATM   13  C   UNL     1      -5.604   6.350  71.520  1.00  0.00    -0.027 A  
HETATM   14  C   UNL     1      -6.918   8.121  70.430  1.00  0.00    -0.037 C  
HETATM   15  C   UNL     1      -5.299   5.038  71.846  1.00  0.00    -0.005 A  
HETATM   16  C   UNL     1      -6.042   4.005  71.289  1.00  0.00    -0.014 A  
HETATM   17  C   UNL     1      -7.092   4.280  70.393  1.00  0.00    -0.041 A  
HETATM   18  C   UNL     1      -7.845   3.110  69.809  1.00  0.00    -0.048 C  
ENDBRANCH   9  11
ENDBRANCH   6   9
ENDBRANCH   5   6
BRANCH   5  19
HETATM   19  C   UNL     1     -10.551   4.910  71.654  1.00  0.00    -0.143 C  
HETATM   20  C   UNL     1      -9.759   4.140  72.712  1.00  0.00    -0.185 C  
ENDBRANCH   5  19
ENDBRANCH   4   5
BRANCH   4  21
HETATM   21  C   UNL     1     -10.461   8.137  72.861  1.00  0.00    -0.268 C  
HETATM   22  C   UNL     1      -9.222   7.598  73.577  1.00  0.00    -0.331 C  
ENDBRANCH   4  21
ENDBRANCH   3   4
ENDBRANCH   2   3
TORSDOF 8
ENDMDL
MODEL      402
REMARK 921   NORMALIZED FREE ENERGY PREDICTED BY IDOCK:   -1.97 KCAL/MOL
REMARK 922        TOTAL FREE ENERGY PREDICTED BY IDOCK:   -3.87 KCAL/MOL
REMARK 923 INTER-LIGAND FREE ENERGY PREDICTED BY IDOCK:   -3.52 KCAL/MOL
REMARK 924 INTRA-LIGAND FREE ENERGY PREDICTED BY IDOCK:   -0.34 KCAL/MOL
REMARK 927      BINDING AFFINITY PREDICTED BY RF-SCORE:    0.00 PKD
ROOT
HETATM    1  C   UNL     1      -6.888   8.536  62.988  1.00  0.00    -0.090 C  
HETATM    2  C   UNL     1      -8.087   8.987  63.809  1.00  0.00    -0.164 C  
ENDROOT
BRANCH   2   3
HETATM    3  C   UNL     1      -7.752  10.138  64.781  1.00  0.00    -0.141 C  
BRANCH   3   4
HETATM    4  N   UNL     1      -8.829  11.125  65.051  1.00  0.00    -0.082 NA 
BRANCH   4   5
HETATM    5  C   UNL     1      -8.864  11.531  66.510  1.00  0.00    -0.190 C  
BRANCH   5   6
HETATM    6  C   UNL     1      -9.739  10.553  67.302  1.00  0.00    -0.169 C  
HETATM    7  H   UNL     1     -11.596  10.071  67.497  1.00  0.00     0.000 HD 
HETATM    8  O   UNL     1     -11.054  10.677  67.007  1.00  0.00    -0.254 OA 
BRANCH   6   9
HETATM    9  N   UNL     1      -9.254   9.731  68.167  1.00  0.00    -0.129 NA 
HETATM   10  H   UNL     1      -9.313   9.974  69.155  1.00  0.00     0.000 HD 
BRANCH   9  11
HETATM   11  C   UNL     1      -8.643   8.505  67.805  1.00  0.00    -0.134 A  
HETATM   12  C   UNL     1      -9.350   7.371  67.331  1.00  0.00    -0.154 A  
HETATM   13  C   UNL     1      -8.646   6.234  66.896  1.00  0.00    -0.113 A  
HETATM   14  C   UNL     1     -10.846   7.265  67.284  1.00  0.00    -0.354 C  
HETATM   15  C   UNL     1      -7.261   6.217  66.857  1.00  0.00    -0.074 A  
HETATM   16  C   UNL     1      -6.552   7.330  67.290  1.00  0.00    -0.063 A  
HETATM   17  C   UNL     1      -7.226   8.467  67.774  1.00  0.00    -0.084 A  
HETATM   18  C   UNL     1      -6.394   9.633  68.246  1.00  0.00    -0.056 C  
ENDBRANCH   9  11
ENDBRANCH   6   9
ENDBRANCH   5   6
BRANCH   5  19
HETATM   19  C   UNL     1      -9.415  12.956  66.795  1.00  0.00    -0.245 C  
HETATM   20  C   UNL     1      -8.502  13.867  67.618  1.00  0.00    -0.193 C  
ENDBRANCH   5  19
ENDBRANCH   4   5
BRANCH   4  21
HETATM   21  C   UNL     1     -10.144  10.597  64.599  1.00  0.00    -0.349 C  
HETATM   22  C   UNL     1     -11.008  11.497  63.714  1.00  0.00    -0.485 C  
ENDBRANCH   4  21
ENDBRANCH   3   4
ENDBRANCH   2   3
TORSDOF 8
ENDMDL
MODEL      403
REMARK 921   NORMALIZED FREE ENERGY PREDICTED BY IDOCK:   -1.97 KCAL/MOL
REMARK 922        TOTAL FREE ENERGY PREDICTED BY IDOCK:   -3.87 KCAL/MOL
REMARK 923 INTER-LIGAND FREE ENERGY PREDICTED BY IDOCK:   -3.88 KCAL/MOL
REMARK 924 INTRA-LIGAND FREE ENERGY PREDICTED BY IDOCK:    0.02 KCAL/MOL
REMARK 927      BINDING AFFINITY PREDICTED BY RF-SCORE:    0.00 PKD
ROOT
HETATM    1  C   UNL     1      -6.702  12.246  68.148  1.00  0.00    -0.069 C  
HETATM    2  C   UNL     1      -8.090  11.915  67.619  1.00  0.00    -0.148 C  
ENDROOT
BRANCH   2   3
HETATM    3  C   UNL     1      -8.297  10.404  67.381  1.00  0.00    -0.121 C  
BRANCH   3   4
HETATM    4  N   UNL     1      -9.599   9.829  67.808  1.00  0.00    -0.134 NA 
BRANCH   4   5
HETATM    5  C   UNL     1     -10.177  10.571  68.996  1.00  0.00    -0.216 C  
BRANCH   5   6
HETATM    6  C   UNL     1     -10.356   9.608  70.175  1.00  0.00    -0.266 C  
HETATM    7  H   UNL     1     -11.441   8.097  70.685  1.00  0.00     0.000 HD 
HETATM    8  O   UNL     1     -11.330   8.694  69.955  1.00  0.00    -0.119 OA 
BRANCH   6   9
HETATM    9  N   UNL     1      -9.662   9.696  71.255  1.00  0.00    -0.280 NA 
HETATM   10  H   UNL     1      -9.555  10.611  71.692  1.00  0.00     0.000 HD 
BRANCH   9  11
HETATM   11  C   UNL     1      -9.039   8.579  71.865  1.00  0.00    -0.244 A  
HETATM   12  C   UNL     1      -9.706   7.659  72.713  1.00  0.00    -0.261 A  
HETATM   13  C   UNL     1      -9.030   6.520  73.187  1.00  0.00    -0.137 A  
HETATM   14  C   UNL     1     -11.117   7.823  73.196  1.00  0.00    -0.336 C  
HETATM   15  C   UNL     1      -7.734   6.236  72.786  1.00  0.00    -0.104 A  
HETATM   16  C   UNL     1      -7.075   7.110  71.932  1.00  0.00    -0.071 A  
HETATM   17  C   UNL     1      -7.708   8.282  71.476  1.00  0.00    -0.114 A  
HETATM   18  C   UNL     1      -6.929   9.197  70.566  1.00  0.00    -0.082 C  
ENDBRANCH   9  11
ENDBRANCH   6   9
ENDBRANCH   5   6
BRANCH   5  19
HETATM   19  C   UNL     1     -11.556  11.247  68.756  1.00  0.00    -0.383 C  
HETATM   20  C   UNL     1     -12.091  12.088  69.916  1.00  0.00    -0.334 C  
ENDBRANCH   5  19
ENDBRANCH   4   5
BRANCH   4  21
HETATM   21  C   UNL     1      -9.458   8.374  68.089  1.00  0.00    -0.138 C  
HETATM   22  C   UNL     1     -10.283   7.401  67.245  1.00  0.00    -0.330 C  
ENDBRANCH   4  21
ENDBRANCH   3   4
ENDBRANCH   2   3
TORSDOF 8
ENDMDL
MODEL      404
REMARK 921   NORMALIZED FREE ENERGY PREDICTED BY IDOCK:   -1.78 KCAL/MOL
REMARK 922        TOTAL FREE ENERGY PREDICTED BY IDOCK:   -3.59 KCAL/MOL
REMARK 923 INTER-LIGAND FREE ENERGY PREDICTED BY IDOCK:   -4.06 KCAL/MOL
REMARK 924 INTRA-LIGAND FREE ENERGY PREDICTED BY IDOCK:    0.47 KCAL/MOL
REMARK 927      BINDING AFFINITY PREDICTED BY RF-SCORE:    0.00 PKD
ROOT
HETATM    1  C   UNL     1      -5.165  17.567  70.132  1.00  0.00    -0.219 C  
HETATM    2  C   UNL     1      -5.315  16.054  70.189  1.00  0.00    -0.157 C  
ENDROOT
BRANCH   2   3
HETATM    3  C   UNL     1      -6.402  15.522  69.231  1.00  0.00    -0.132 C  
BRANCH   3   4
HETATM    4  N   UNL     1      -7.375  16.512  68.702  1.00  0.00    -0.182 NA 
BRANCH   4   5
HETATM    5  C   UNL     1      -8.428  15.855  67.833  1.00  0.00    -0.161 C  
BRANCH   5   6
HETATM    6  C   UNL     1      -9.736  15.708  68.619  1.00  0.00    -0.204 C  
HETATM    7  H   UNL     1     -10.544  14.535  69.919  1.00  0.00     0.000 HD 
HETATM    8  O   UNL     1      -9.733  14.626  69.432  1.00  0.00    -0.109 OA 
BRANCH   6   9
HETATM    9  N   UNL     1     -10.722  16.523  68.484  1.00  0.00    -0.318 NA 
HETATM   10  H   UNL     1     -11.632  16.253  68.856  1.00  0.00     0.000 HD 
BRANCH   9  11
HETATM   11  C   UNL     1     -10.600  17.780  67.840  1.00  0.00    -0.382 A  
HETATM   12  C   UNL     1     -10.278  18.989  68.507  1.00  0.00    -0.422 A  
HETATM   13  C   UNL     1     -10.074  20.168  67.768  1.00  0.00    -0.540 A  
HETATM   14  C   UNL     1     -10.164  19.130  69.996  1.00  0.00     0.834 C  
HETATM   15  C   UNL     1     -10.117  20.164  66.382  1.00  0.00    -0.569 A  
HETATM   16  C   UNL     1     -10.402  18.983  65.711  1.00  0.00    -0.316 A  
HETATM   17  C   UNL     1     -10.655  17.795  66.424  1.00  0.00    -0.218 A  
HETATM   18  C   UNL     1     -10.978  16.553  65.632  1.00  0.00    -0.053 C  
ENDBRANCH   9  11
ENDBRANCH   6   9
ENDBRANCH   5   6
BRANCH   5  19
HETATM   19  C   UNL     1      -8.067  14.441  67.297  1.00  0.00    -0.209 C  
HETATM   20  C   UNL     1      -9.204  13.684  66.609  1.00  0.00    -0.225 C  
ENDBRANCH   5  19
ENDBRANCH   4   5
BRANCH   4  21
HETATM   21  C   UNL     1      -6.667  17.600  67.975  1.00  0.00    -0.187 C  
HETATM   22  C   UNL     1      -6.786  17.633  66.450  1.00  0.00    -0.293 C  
ENDBRANCH   4  21
ENDBRANCH   3   4
ENDBRANCH   2   3
TORSDOF 8
ENDMDL
MODEL      405
REMARK 921   NORMALIZED FREE ENERGY PREDICTED BY IDOCK:   -1.77 KCAL/MOL
REMARK 922        TOTAL FREE ENERGY PREDICTED BY IDOCK:   -3.57 KCAL/MOL
REMARK 923 INTER-LIGAND FREE ENERGY PREDICTED BY IDOCK:   -4.36 KCAL/MOL
REMARK 924 INTRA-LIGAND FREE ENERGY PREDICTED BY IDOCK:    0.79 KCAL/MOL
REMARK 927      BINDING AFFINITY PREDICTED BY RF-SCORE:    0.00 PKD
ROOT
HETATM    1  C   UNL     1      -8.412   8.637  62.355  1.00  0.00    -0.194 C  
HETATM    2  C   UNL     1      -8.227   8.377  63.844  1.00  0.00    -0.106 C  
ENDROOT
BRANCH   2   3
HETATM    3  C   UNL     1      -8.834   9.488  64.727  1.00  0.00    -0.207 C  
BRANCH   3   4
HETATM    4  N   UNL     1      -9.155   9.129  66.132  1.00  0.00    -0.173 NA 
BRANCH   4   5
HETATM    5  C   UNL     1      -8.418  10.011  67.119  1.00  0.00    -0.125 C  
BRANCH   5   6
HETATM    6  C   UNL     1      -8.816  11.477  66.907  1.00  0.00    -0.182 C  
HETATM    7  H   UNL     1      -8.009  13.227  66.870  1.00  0.00     0.000 HD 
HETATM    8  O   UNL     1      -7.761  12.319  67.001  1.00  0.00    -0.153 OA 
BRANCH   6   9
HETATM    9  N   UNL     1     -10.031  11.841  66.689  1.00  0.00    -0.198 NA 
HETATM   10  H   UNL     1     -10.759  11.127  66.677  1.00  0.00     0.000 HD 
BRANCH   9  11
HETATM   11  C   UNL     1     -10.403  13.190  66.466  1.00  0.00    -0.283 A  
HETATM   12  C   UNL     1     -10.447  14.182  67.478  1.00  0.00    -0.249 A  
HETATM   13  C   UNL     1     -10.725  15.519  67.141  1.00  0.00    -0.315 A  
HETATM   14  C   UNL     1     -10.249  13.910  68.940  1.00  0.00    -0.135 C  
HETATM   15  C   UNL     1     -10.894  15.908  65.821  1.00  0.00    -0.260 A  
HETATM   16  C   UNL     1     -10.824  14.954  64.814  1.00  0.00    -0.382 A  
HETATM   17  C   UNL     1     -10.593  13.600  65.122  1.00  0.00    -0.371 A  
HETATM   18  C   UNL     1     -10.549  12.614  63.982  1.00  0.00    -0.457 C  
ENDBRANCH   9  11
ENDBRANCH   6   9
ENDBRANCH   5   6
BRANCH   5  19
HETATM   19  C   UNL     1      -6.867   9.954  67.040  1.00  0.00    -0.083 C  
HETATM   20  C   UNL     1      -6.238  10.654  65.834  1.00  0.00    -0.134 C  
ENDBRANCH   5  19
ENDBRANCH   4   5
BRANCH   4  21
HETATM   21  C   UNL     1      -8.879   7.687  66.377  1.00  0.00    -0.156 C  
HETATM   22  C   UNL     1      -9.850   6.918  67.274  1.00  0.00    -0.196 C  
ENDBRANCH   4  21
ENDBRANCH   3   4
ENDBRANCH   2   3
TORSDOF 8
ENDMDL
MODEL      406
REMARK 921   NORMALIZED FREE ENERGY PREDICTED BY IDOCK:   -1.68 KCAL/MOL
REMARK 922        TOTAL FREE ENERGY PREDICTED BY IDOCK:   -3.43 KCAL/MOL
REMARK 923 INTER-LIGAND FREE ENERGY PREDICTED BY IDOCK:   -5.12 KCAL/MOL
REMARK 924 INTRA-LIGAND FREE ENERGY PREDICTED BY IDOCK:    1.69 KCAL/MOL
REMARK 927      BINDING AFFINITY PREDICTED BY RF-SCORE:    0.00 PKD
ROOT
HETATM    1  C   UNL     1     -12.708  10.099  71.566  1.00  0.00    -0.541 C  
HETATM    2  C   UNL     1     -13.087   8.743  72.144  1.00  0.00    -0.451 C  
ENDROOT
BRANCH   2   3
HETATM    3  C   UNL     1     -12.284   7.580  71.525  1.00  0.00    -0.331 C  
BRANCH   3   4
HETATM    4  N   UNL     1     -10.807   7.624  71.685  1.00  0.00    -0.225 NA 
BRANCH   4   5
HETATM    5  C   UNL     1     -10.102   7.723  70.347  1.00  0.00    -0.194 C  
BRANCH   5   6
HETATM    6  C   UNL     1     -10.858   6.903  69.296  1.00  0.00    -0.237 C  
HETATM    7  H   UNL     1     -11.463   5.097  69.000  1.00  0.00     0.000 HD 
HETATM    8  O   UNL     1     -10.994   5.605  69.652  1.00  0.00    -0.348 OA 
BRANCH   6   9
HETATM    9  N   UNL     1     -11.284   7.412  68.193  1.00  0.00    -0.382 NA 
HETATM   10  H   UNL     1     -12.237   7.203  67.896  1.00  0.00     0.000 HD 
BRANCH   9  11
HETATM   11  C   UNL     1     -10.488   8.251  67.374  1.00  0.00    -0.283 A  
HETATM   12  C   UNL     1     -10.527   9.668  67.409  1.00  0.00    -0.319 A  
HETATM   13  C   UNL     1      -9.623  10.416  66.633  1.00  0.00    -0.219 A  
HETATM   14  C   UNL     1     -11.512  10.469  68.209  1.00  0.00    -0.272 C  
HETATM   15  C   UNL     1      -8.641   9.796  65.877  1.00  0.00    -0.149 A  
HETATM   16  C   UNL     1      -8.569   8.410  65.854  1.00  0.00    -0.179 A  
HETATM   17  C   UNL     1      -9.488   7.632  66.584  1.00  0.00    -0.255 A  
HETATM   18  C   UNL     1      -9.365   6.131  66.499  1.00  0.00    -0.171 C  
ENDBRANCH   9  11
ENDBRANCH   6   9
ENDBRANCH   5   6
BRANCH   5  19
HETATM   19  C   UNL     1      -8.629   7.226  70.328  1.00  0.00    -0.142 C  
HETATM   20  C   UNL     1      -7.606   8.208  69.754  1.00  0.00    -0.090 C  
ENDBRANCH   5  19
ENDBRANCH   4   5
BRANCH   4  21
HETATM   21  C   UNL     1     -10.333   6.449  72.466  1.00  0.00    -0.191 C  
HETATM   22  C   UNL     1      -9.055   5.751  71.999  1.00  0.00    -0.143 C  
ENDBRANCH   4  21
ENDBRANCH   3   4
ENDBRANCH   2   3
TORSDOF 8
ENDMDL
MODEL      407
REMARK 921   NORMALIZED FREE ENERGY PREDICTED BY IDOCK:   -1.68 KCAL/MOL
REMARK 922        TOTAL FREE ENERGY PREDICTED BY IDOCK:   -3.43 KCAL/MOL
REMARK 923 INTER-LIGAND FREE ENERGY PREDICTED BY IDOCK:   -3.21 KCAL/MOL
REMARK 924 INTRA-LIGAND FREE ENERGY PREDICTED BY IDOCK:   -0.22 KCAL/MOL
REMARK 927      BINDING AFFINITY PREDICTED BY RF-SCORE:    0.00 PKD
ROOT
HETATM    1  C   UNL     1      -7.679   3.876  69.873  1.00  0.00    -0.051 C  
HETATM    2  C   UNL     1      -7.936   5.376  69.865  1.00  0.00    -0.081 C  
ENDROOT
BRANCH   2   3
HETATM    3  C   UNL     1      -7.703   6.017  68.481  1.00  0.00    -0.095 C  
BRANCH   3   4
HETATM    4  N   UNL     1      -8.209   7.401  68.288  1.00  0.00    -0.124 NA 
BRANCH   4   5
HETATM    5  C   UNL     1      -7.233   8.434  68.813  1.00  0.00    -0.079 C  
BRANCH   5   6
HETATM    6  C   UNL     1      -7.823   9.839  68.649  1.00  0.00    -0.081 C  
HETATM    7  H   UNL     1      -8.882  11.112  69.636  1.00  0.00     0.000 HD 
HETATM    8  O   UNL     1      -8.517  10.241  69.739  1.00  0.00    -0.159 OA 
BRANCH   6   9
HETATM    9  N   UNL     1      -7.680  10.530  67.572  1.00  0.00    -0.097 NA 
HETATM   10  H   UNL     1      -6.822  10.418  67.032  1.00  0.00     0.000 HD 
BRANCH   9  11
HETATM   11  C   UNL     1      -8.660  11.440  67.105  1.00  0.00    -0.151 A  
HETATM   12  C   UNL     1      -8.659  12.829  67.388  1.00  0.00    -0.194 A  
HETATM   13  C   UNL     1      -9.615  13.671  66.791  1.00  0.00    -0.277 A  
HETATM   14  C   UNL     1      -7.706  13.499  68.334  1.00  0.00    -0.135 C  
HETATM   15  C   UNL     1     -10.528  13.181  65.871  1.00  0.00    -0.288 A  
HETATM   16  C   UNL     1     -10.526  11.828  65.559  1.00  0.00    -0.311 A  
HETATM   17  C   UNL     1      -9.611  10.952  66.173  1.00  0.00    -0.239 A  
HETATM   18  C   UNL     1      -9.676   9.491  65.803  1.00  0.00    -0.357 C  
ENDBRANCH   9  11
ENDBRANCH   6   9
ENDBRANCH   5   6
BRANCH   5  19
HETATM   19  C   UNL     1      -5.840   8.449  68.126  1.00  0.00    -0.038 C  
HETATM   20  C   UNL     1      -5.820   8.008  66.661  1.00  0.00    -0.044 C  
ENDBRANCH   5  19
ENDBRANCH   4   5
BRANCH   4  21
HETATM   21  C   UNL     1      -9.553   7.554  68.908  1.00  0.00    -0.149 C  
HETATM   22  C   UNL     1     -10.745   6.912  68.197  1.00  0.00    -0.260 C  
ENDBRANCH   4  21
ENDBRANCH   3   4
ENDBRANCH   2   3
TORSDOF 8
ENDMDL
MODEL      408
REMARK 921   NORMALIZED FREE ENERGY PREDICTED BY IDOCK:   -1.61 KCAL/MOL
REMARK 922        TOTAL FREE ENERGY PREDICTED BY IDOCK:   -3.34 KCAL/MOL
REMARK 923 INTER-LIGAND FREE ENERGY PREDICTED BY IDOCK:   -2.48 KCAL/MOL
REMARK 924 INTRA-LIGAND FREE ENERGY PREDICTED BY IDOCK:   -0.85 KCAL/MOL
REMARK 927      BINDING AFFINITY PREDICTED BY RF-SCORE:    0.00 PKD
ROOT
HETATM    1  C   UNL     1     -10.415  14.167  66.208  1.00  0.00    -0.286 C  
HETATM    2  C   UNL     1      -9.250  13.389  66.803  1.00  0.00    -0.242 C  
ENDROOT
BRANCH   2   3
HETATM    3  C   UNL     1      -9.313  11.880  66.487  1.00  0.00    -0.216 C  
BRANCH   3   4
HETATM    4  N   UNL     1      -8.834  10.952  67.544  1.00  0.00    -0.133 NA 
BRANCH   4   5
HETATM    5  C   UNL     1      -8.580   9.562  66.997  1.00  0.00    -0.128 C  
BRANCH   5   6
HETATM    6  C   UNL     1      -7.768   8.743  68.008  1.00  0.00    -0.101 C  
HETATM    7  H   UNL     1      -6.108   8.844  68.983  1.00  0.00     0.000 HD 
HETATM    8  O   UNL     1      -6.611   9.352  68.356  1.00  0.00    -0.054 OA 
BRANCH   6   9
HETATM    9  N   UNL     1      -8.156   7.595  68.442  1.00  0.00    -0.123 NA 
HETATM   10  H   UNL     1      -9.116   7.305  68.261  1.00  0.00     0.000 HD 
BRANCH   9  11
HETATM   11  C   UNL     1      -7.307   6.717  69.160  1.00  0.00    -0.093 A  
HETATM   12  C   UNL     1      -7.309   6.582  70.571  1.00  0.00    -0.082 A  
HETATM   13  C   UNL     1      -6.504   5.606  71.187  1.00  0.00    -0.040 A  
HETATM   14  C   UNL     1      -8.103   7.449  71.503  1.00  0.00    -0.100 C  
HETATM   15  C   UNL     1      -5.750   4.719  70.435  1.00  0.00    -0.016 A  
HETATM   16  C   UNL     1      -5.758   4.817  69.050  1.00  0.00    -0.016 A  
HETATM   17  C   UNL     1      -6.518   5.811  68.406  1.00  0.00    -0.046 A  
HETATM   18  C   UNL     1      -6.466   5.874  66.900  1.00  0.00    -0.050 C  
ENDBRANCH   9  11
ENDBRANCH   6   9
ENDBRANCH   5   6
BRANCH   5  19
HETATM   19  C   UNL     1      -7.807   9.503  65.650  1.00  0.00    -0.101 C  
HETATM   20  C   UNL     1      -8.479   8.698  64.535  1.00  0.00    -0.128 C  
ENDBRANCH   5  19
ENDBRANCH   4   5
BRANCH   4  21
HETATM   21  C   UNL     1      -9.789  10.923  68.684  1.00  0.00    -0.190 C  
HETATM   22  C   UNL     1     -11.248  10.577  68.383  1.00  0.00    -0.339 C  
ENDBRANCH   4  21
ENDBRANCH   3   4
ENDBRANCH   2   3
TORSDOF 8
ENDMDL
MODEL      409
REMARK 921   NORMALIZED FREE ENERGY PREDICTED BY IDOCK:   -1.18 KCAL/MOL
REMARK 922        TOTAL FREE ENERGY PREDICTED BY IDOCK:   -2.71 KCAL/MOL
REMARK 923 INTER-LIGAND FREE ENERGY PREDICTED BY IDOCK:   -3.07 KCAL/MOL
REMARK 924 INTRA-LIGAND FREE ENERGY PREDICTED BY IDOCK:    0.36 KCAL/MOL
REMARK 927      BINDING AFFINITY PREDICTED BY RF-SCORE:    0.00 PKD
ROOT
HETATM    1  C   UNL     1      -8.095   3.690  69.242  1.00  0.00    -0.063 C  
HETATM    2  C   UNL     1      -8.429   5.052  68.650  1.00  0.00    -0.087 C  
ENDROOT
BRANCH   2   3
HETATM    3  C   UNL     1      -8.183   5.122  67.128  1.00  0.00    -0.107 C  
BRANCH   3   4
HETATM    4  N   UNL     1      -8.403   6.437  66.471  1.00  0.00    -0.112 NA 
BRANCH   4   5
HETATM    5  C   UNL     1      -7.095   7.096  66.083  1.00  0.00    -0.073 C  
BRANCH   5   6
HETATM    6  C   UNL     1      -7.003   8.486  66.723  1.00  0.00    -0.073 C  
HETATM    7  H   UNL     1      -6.785   9.291  68.462  1.00  0.00     0.000 HD 
HETATM    8  O   UNL     1      -6.843   8.429  68.066  1.00  0.00    -0.067 OA 
BRANCH   6   9
HETATM    9  N   UNL     1      -7.095   9.573  66.039  1.00  0.00    -0.091 NA 
HETATM   10  H   UNL     1      -6.262   9.924  65.568  1.00  0.00     0.000 HD 
BRANCH   9  11
HETATM   11  C   UNL     1      -8.303  10.303  65.911  1.00  0.00    -0.145 A  
HETATM   12  C   UNL     1      -9.166  10.225  64.789  1.00  0.00    -0.287 A  
HETATM   13  C   UNL     1     -10.397  10.906  64.799  1.00  0.00    -0.391 A  
HETATM   14  C   UNL     1      -8.850   9.476  63.528  1.00  0.00    -0.235 C  
HETATM   15  C   UNL     1     -10.822  11.606  65.917  1.00  0.00    -0.339 A  
HETATM   16  C   UNL     1     -10.003  11.668  67.037  1.00  0.00    -0.226 A  
HETATM   17  C   UNL     1      -8.746  11.035  67.042  1.00  0.00    -0.141 A  
HETATM   18  C   UNL     1      -7.898  11.159  68.283  1.00  0.00    -0.123 C  
ENDBRANCH   9  11
ENDBRANCH   6   9
ENDBRANCH   5   6
BRANCH   5  19
HETATM   19  C   UNL     1      -6.869   7.290  64.558  1.00  0.00    -0.050 C  
HETATM   20  C   UNL     1      -5.495   6.869  64.034  1.00  0.00    -0.028 C  
ENDBRANCH   5  19
ENDBRANCH   4   5
BRANCH   4  21
HETATM   21  C   UNL     1      -9.224   7.322  67.341  1.00  0.00    -0.128 C  
HETATM   22  C   UNL     1     -10.672   7.587  66.924  1.00  0.00    -0.299 C  
ENDBRANCH   4  21
ENDBRANCH   3   4
ENDBRANCH   2   3
TORSDOF 8
ENDMDL
MODEL      410
REMARK 921   NORMALIZED FREE ENERGY PREDICTED BY IDOCK:   -0.80 KCAL/MOL
REMARK 922        TOTAL FREE ENERGY PREDICTED BY IDOCK:   -2.14 KCAL/MOL
REMARK 923 INTER-LIGAND FREE ENERGY PREDICTED BY IDOCK:   -2.92 KCAL/MOL
REMARK 924 INTRA-LIGAND FREE ENERGY PREDICTED BY IDOCK:    0.78 KCAL/MOL
REMARK 927      BINDING AFFINITY PREDICTED BY RF-SCORE:    0.00 PKD
ROOT
HETATM    1  C   UNL     1     -12.673  10.124  71.658  1.00  0.00    -0.549 C  
HETATM    2  C   UNL     1     -12.907   8.627  71.806  1.00  0.00    -0.397 C  
ENDROOT
BRANCH   2   3
HETATM    3  C   UNL     1     -11.965   7.782  70.924  1.00  0.00    -0.210 C  
BRANCH   3   4
HETATM    4  N   UNL     1     -10.519   7.809  71.267  1.00  0.00    -0.206 NA 
BRANCH   4   5
HETATM    5  C   UNL     1      -9.762   8.817  70.427  1.00  0.00    -0.180 C  
BRANCH   5   6
HETATM    6  C   UNL     1     -10.019   8.554  68.938  1.00  0.00    -0.190 C  
HETATM    7  H   UNL     1      -9.916   7.111  67.664  1.00  0.00     0.000 HD 
HETATM    8  O   UNL     1      -9.757   7.274  68.586  1.00  0.00    -0.144 OA 
BRANCH   6   9
HETATM    9  N   UNL     1     -10.417   9.473  68.129  1.00  0.00    -0.213 NA 
HETATM   10  H   UNL     1     -11.119   9.234  67.429  1.00  0.00     0.000 HD 
BRANCH   9  11
HETATM   11  C   UNL     1      -9.924  10.801  68.169  1.00  0.00    -0.160 A  
HETATM   12  C   UNL     1     -10.560  11.867  68.852  1.00  0.00    -0.205 A  
HETATM   13  C   UNL     1      -9.940  13.127  68.924  1.00  0.00     0.066 A  
HETATM   14  C   UNL     1     -11.909  11.771  69.502  1.00  0.00    -0.402 C  
HETATM   15  C   UNL     1      -8.676  13.337  68.394  1.00  0.00    -0.126 A  
HETATM   16  C   UNL     1      -8.025  12.296  67.747  1.00  0.00    -0.154 A  
HETATM   17  C   UNL     1      -8.639  11.035  67.618  1.00  0.00    -0.125 A  
HETATM   18  C   UNL     1      -7.883   9.954  66.887  1.00  0.00    -0.102 C  
ENDBRANCH   9  11
ENDBRANCH   6   9
ENDBRANCH   5   6
BRANCH   5  19
HETATM   19  C   UNL     1      -8.220   8.827  70.619  1.00  0.00    -0.159 C  
HETATM   20  C   UNL     1      -7.600  10.191  70.930  1.00  0.00     0.854 C  
ENDBRANCH   5  19
ENDBRANCH   4   5
BRANCH   4  21
HETATM   21  C   UNL     1      -9.930   6.448  71.148  1.00  0.00    -0.180 C  
HETATM   22  C   UNL     1      -8.677   6.138  71.969  1.00  0.00    -0.135 C  
ENDBRANCH   4  21
ENDBRANCH   3   4
ENDBRANCH   2   3
TORSDOF 8
ENDMDL
MODEL      411
REMARK 921   NORMALIZED FREE ENERGY PREDICTED BY IDOCK:   -0.55 KCAL/MOL
REMARK 922        TOTAL FREE ENERGY PREDICTED BY IDOCK:   -1.78 KCAL/MOL
REMARK 923 INTER-LIGAND FREE ENERGY PREDICTED BY IDOCK:   -3.74 KCAL/MOL
REMARK 924 INTRA-LIGAND FREE ENERGY PREDICTED BY IDOCK:    1.97 KCAL/MOL
REMARK 927      BINDING AFFINITY PREDICTED BY RF-SCORE:    0.00 PKD
ROOT
HETATM    1  C   UNL     1      -5.757  16.181  71.248  1.00  0.00     0.472 C  
HETATM    2  C   UNL     1      -5.182  15.440  70.050  1.00  0.00    -0.106 C  
ENDROOT
BRANCH   2   3
HETATM    3  C   UNL     1      -5.427  16.175  68.715  1.00  0.00    -0.108 C  
BRANCH   3   4
HETATM    4  N   UNL     1      -6.841  16.440  68.344  1.00  0.00    -0.138 NA 
BRANCH   4   5
HETATM    5  C   UNL     1      -7.418  15.324  67.498  1.00  0.00    -0.190 C  
BRANCH   5   6
HETATM    6  C   UNL     1      -8.895  15.113  67.850  1.00  0.00    -0.166 C  
HETATM    7  H   UNL     1     -10.370  16.077  68.633  1.00  0.00     0.000 HD 
HETATM    8  O   UNL     1      -9.455  16.208  68.415  1.00  0.00    -0.201 OA 
BRANCH   6   9
HETATM    9  N   UNL     1      -9.505  13.998  67.645  1.00  0.00    -0.205 NA 
HETATM   10  H   UNL     1      -9.510  13.301  68.389  1.00  0.00     0.000 HD 
BRANCH   9  11
HETATM   11  C   UNL     1     -10.171  13.696  66.431  1.00  0.00    -0.292 A  
HETATM   12  C   UNL     1     -10.651  14.672  65.521  1.00  0.00    -0.369 A  
HETATM   13  C   UNL     1     -11.204  14.276  64.290  1.00  0.00    -0.149 A  
HETATM   14  C   UNL     1     -10.650  16.149  65.786  1.00  0.00    -0.347 C  
HETATM   15  C   UNL     1     -11.232  12.943  63.911  1.00  0.00    -0.471 A  
HETATM   16  C   UNL     1     -10.739  11.976  64.777  1.00  0.00    -0.352 A  
HETATM   17  C   UNL     1     -10.220  12.336  66.035  1.00  0.00    -0.267 A  
HETATM   18  C   UNL     1      -9.719  11.233  66.934  1.00  0.00    -0.215 C  
ENDBRANCH   9  11
ENDBRANCH   6   9
ENDBRANCH   5   6
BRANCH   5  19
HETATM   19  C   UNL     1      -6.721  13.943  67.645  1.00  0.00    -0.189 C  
HETATM   20  C   UNL     1      -7.441  12.929  68.536  1.00  0.00    -0.123 C  
ENDBRANCH   5  19
ENDBRANCH   4   5
BRANCH   4  21
HETATM   21  C   UNL     1      -6.962  17.759  67.664  1.00  0.00    -0.181 C  
HETATM   22  C   UNL     1      -5.672  18.470  67.253  1.00  0.00    -0.146 C  
ENDBRANCH   4  21
ENDBRANCH   3   4
ENDBRANCH   2   3
TORSDOF 8
ENDMDL
MODEL      412
REMARK 921   NORMALIZED FREE ENERGY PREDICTED BY IDOCK:   -0.41 KCAL/MOL
REMARK 922        TOTAL FREE ENERGY PREDICTED BY IDOCK:   -1.57 KCAL/MOL
REMARK 923 INTER-LIGAND FREE ENERGY PREDICTED BY IDOCK:   -1.44 KCAL/MOL
REMARK 924 INTRA-LIGAND FREE ENERGY PREDICTED BY IDOCK:   -0.13 KCAL/MOL
REMARK 927      BINDING AFFINITY PREDICTED BY RF-SCORE:    0.00 PKD
ROOT
HETATM    1  C   UNL     1      -6.225   7.426  67.516  1.00  0.00    -0.048 C  
HETATM    2  C   UNL     1      -5.886   5.986  67.160  1.00  0.00    -0.017 C  
ENDROOT
BRANCH   2   3
HETATM    3  C   UNL     1      -6.798   4.962  67.868  1.00  0.00    -0.060 C  
BRANCH   3   4
HETATM    4  N   UNL     1      -7.113   3.716  67.123  1.00  0.00    -0.058 NA 
BRANCH   4   5
HETATM    5  C   UNL     1      -8.607   3.472  67.044  1.00  0.00    -0.111 C  
BRANCH   5   6
HETATM    6  C   UNL     1      -8.986   3.008  65.633  1.00  0.00    -0.146 C  
HETATM    7  H   UNL     1      -9.698   1.454  64.741  1.00  0.00     0.000 HD 
HETATM    8  O   UNL     1      -9.463   1.742  65.616  1.00  0.00     0.024 OA 
BRANCH   6   9
HETATM    9  N   UNL     1      -8.833   3.750  64.593  1.00  0.00    -0.117 NA 
HETATM   10  H   UNL     1      -9.658   4.185  64.180  1.00  0.00     0.000 HD 
BRANCH   9  11
HETATM   11  C   UNL     1      -7.570   3.992  63.998  1.00  0.00    -0.074 A  
HETATM   12  C   UNL     1      -6.783   2.996  63.366  1.00  0.00    -0.031 A  
HETATM   13  C   UNL     1      -5.592   3.352  62.709  1.00  0.00    -0.009 A  
HETATM   14  C   UNL     1      -7.110   1.532  63.367  1.00  0.00    -0.034 C  
HETATM   15  C   UNL     1      -5.196   4.677  62.606  1.00  0.00    -0.009 A  
HETATM   16  C   UNL     1      -5.970   5.669  63.194  1.00  0.00    -0.018 A  
HETATM   17  C   UNL     1      -7.144   5.341  63.897  1.00  0.00    -0.049 A  
HETATM   18  C   UNL     1      -7.927   6.465  64.527  1.00  0.00    -0.117 C  
ENDBRANCH   9  11
ENDBRANCH   6   9
ENDBRANCH   5   6
BRANCH   5  19
HETATM   19  C   UNL     1      -9.503   4.700  67.367  1.00  0.00    -0.177 C  
HETATM   20  C   UNL     1     -10.548   5.054  66.307  1.00  0.00    -0.332 C  
ENDBRANCH   5  19
ENDBRANCH   4   5
BRANCH   4  21
HETATM   21  C   UNL     1      -6.402   2.555  67.724  1.00  0.00    -0.032 C  
HETATM   22  C   UNL     1      -6.226   2.535  69.243  1.00  0.00    -0.025 C  
ENDBRANCH   4  21
ENDBRANCH   3   4
ENDBRANCH   2   3
TORSDOF 8
ENDMDL
MODEL      413
REMARK 921   NORMALIZED FREE ENERGY PREDICTED BY IDOCK:   -0.11 KCAL/MOL
REMARK 922        TOTAL FREE ENERGY PREDICTED BY IDOCK:   -1.13 KCAL/MOL
REMARK 923 INTER-LIGAND FREE ENERGY PREDICTED BY IDOCK:   -1.09 KCAL/MOL
REMARK 924 INTRA-LIGAND FREE ENERGY PREDICTED BY IDOCK:   -0.04 KCAL/MOL
REMARK 927      BINDING AFFINITY PREDICTED BY RF-SCORE:    0.00 PKD
ROOT
HETATM    1  C   UNL     1      -6.890   2.953  63.639  1.00  0.00    -0.036 C  
HETATM    2  C   UNL     1      -6.855   1.932  64.767  1.00  0.00    -0.042 C  
ENDROOT
BRANCH   2   3
HETATM    3  C   UNL     1      -6.551   2.565  66.141  1.00  0.00    -0.032 C  
BRANCH   3   4
HETATM    4  N   UNL     1      -7.693   2.712  67.080  1.00  0.00    -0.070 NA 
BRANCH   4   5
HETATM    5  C   UNL     1      -7.600   3.995  67.880  1.00  0.00    -0.067 C  
BRANCH   5   6
HETATM    6  C   UNL     1      -8.881   4.818  67.697  1.00  0.00    -0.104 C  
HETATM    7  H   UNL     1     -10.727   4.802  68.252  1.00  0.00     0.000 HD 
HETATM    8  O   UNL     1      -9.934   4.292  68.365  1.00  0.00    -0.083 OA 
BRANCH   6   9
HETATM    9  N   UNL     1      -8.929   5.874  66.963  1.00  0.00    -0.115 NA 
HETATM   10  H   UNL     1      -9.156   6.764  67.405  1.00  0.00     0.000 HD 
BRANCH   9  11
HETATM   11  C   UNL     1      -8.679   5.855  65.568  1.00  0.00    -0.129 A  
HETATM   12  C   UNL     1      -9.333   4.993  64.653  1.00  0.00     0.087 A  
HETATM   13  C   UNL     1      -9.096   5.120  63.273  1.00  0.00     0.175 A  
HETATM   14  C   UNL     1     -10.270   3.890  65.050  1.00  0.00    -0.144 C  
HETATM   15  C   UNL     1      -8.279   6.123  62.774  1.00  0.00    -0.049 A  
HETATM   16  C   UNL     1      -7.652   6.995  63.654  1.00  0.00    -0.105 A  
HETATM   17  C   UNL     1      -7.834   6.865  65.044  1.00  0.00    -0.121 A  
HETATM   18  C   UNL     1      -7.109   7.834  65.944  1.00  0.00    -0.064 C  
ENDBRANCH   9  11
ENDBRANCH   6   9
ENDBRANCH   5   6
BRANCH   5  19
HETATM   19  C   UNL     1      -6.413   4.928  67.513  1.00  0.00    -0.045 C  
HETATM   20  C   UNL     1      -5.816   5.727  68.674  1.00  0.00    -0.019 C  
ENDBRANCH   5  19
ENDBRANCH   4   5
BRANCH   4  21
HETATM   21  C   UNL     1      -7.794   1.521  67.967  1.00  0.00    -0.057 C  
HETATM   22  C   UNL     1      -8.328   1.732  69.385  1.00  0.00    -0.069 C  
ENDBRANCH   4  21
ENDBRANCH   3   4
ENDBRANCH   2   3
TORSDOF 8
ENDMDL
MODEL      414
REMARK 921   NORMALIZED FREE ENERGY PREDICTED BY IDOCK:    0.62 KCAL/MOL
REMARK 922        TOTAL FREE ENERGY PREDICTED BY IDOCK:   -0.05 KCAL/MOL
REMARK 923 INTER-LIGAND FREE ENERGY PREDICTED BY IDOCK:   -1.58 KCAL/MOL
REMARK 924 INTRA-LIGAND FREE ENERGY PREDICTED BY IDOCK:    1.53 KCAL/MOL
REMARK 927      BINDING AFFINITY PREDICTED BY RF-SCORE:    0.00 PKD
ROOT
HETATM    1  C   UNL     1      -6.110   2.894  69.937  1.00  0.00    -0.024 C  
HETATM    2  C   UNL     1      -6.393   3.872  68.806  1.00  0.00    -0.033 C  
ENDROOT
BRANCH   2   3
HETATM    3  C   UNL     1      -6.708   3.169  67.469  1.00  0.00    -0.045 C  
BRANCH   3   4
HETATM    4  N   UNL     1      -7.865   3.687  66.693  1.00  0.00    -0.087 NA 
BRANCH   4   5
HETATM    5  C   UNL     1      -7.436   4.252  65.355  1.00  0.00    -0.077 C  
BRANCH   5   6
HETATM    6  C   UNL     1      -7.437   5.784  65.412  1.00  0.00    -0.078 C  
HETATM    7  H   UNL     1      -6.860   7.292  64.358  1.00  0.00     0.000 HD 
HETATM    8  O   UNL     1      -6.859   6.343  64.323  1.00  0.00    -0.037 OA 
BRANCH   6   9
HETATM    9  N   UNL     1      -7.917   6.442  66.408  1.00  0.00    -0.107 NA 
HETATM   10  H   UNL     1      -8.729   6.063  66.896  1.00  0.00     0.000 HD 
BRANCH   9  11
HETATM   11  C   UNL     1      -7.369   7.669  66.858  1.00  0.00    -0.090 A  
HETATM   12  C   UNL     1      -6.063   7.810  67.390  1.00  0.00    -0.049 A  
HETATM   13  C   UNL     1      -5.568   9.087  67.712  1.00  0.00    -0.035 A  
HETATM   14  C   UNL     1      -5.139   6.665  67.683  1.00  0.00    -0.004 C  
HETATM   15  C   UNL     1      -6.310  10.230  67.458  1.00  0.00    -0.058 A  
HETATM   16  C   UNL     1      -7.580  10.112  66.910  1.00  0.00    -0.100 A  
HETATM   17  C   UNL     1      -8.121   8.846  66.618  1.00  0.00    -0.107 A  
HETATM   18  C   UNL     1      -9.514   8.790  66.042  1.00  0.00    -0.302 C  
ENDBRANCH   9  11
ENDBRANCH   6   9
ENDBRANCH   5   6
BRANCH   5  19
HETATM   19  C   UNL     1      -8.321   3.849  64.142  1.00  0.00    -0.092 C  
HETATM   20  C   UNL     1      -8.322   2.360  63.790  1.00  0.00    -0.082 C  
ENDBRANCH   5  19
ENDBRANCH   4   5
BRANCH   4  21
HETATM   21  C   UNL     1      -8.621   4.689  67.493  1.00  0.00    -0.103 C  
HETATM   22  C   UNL     1     -10.134   4.509  67.617  1.00  0.00    -0.075 C  
ENDBRANCH   4  21
ENDBRANCH   3   4
ENDBRANCH   2   3
TORSDOF 8
ENDMDL
MODEL      415
REMARK 921   NORMALIZED FREE ENERGY PREDICTED BY IDOCK:    0.99 KCAL/MOL
REMARK 922        TOTAL FREE ENERGY PREDICTED BY IDOCK:    0.48 KCAL/MOL
REMARK 923 INTER-LIGAND FREE ENERGY PREDICTED BY IDOCK:   -1.54 KCAL/MOL
REMARK 924 INTRA-LIGAND FREE ENERGY PREDICTED BY IDOCK:    2.02 KCAL/MOL
REMARK 927      BINDING AFFINITY PREDICTED BY RF-SCORE:    0.00 PKD
ROOT
HETATM    1  C   UNL     1      -6.410   3.330  64.423  1.00  0.00    -0.023 C  
HETATM    2  C   UNL     1      -6.435   2.289  65.534  1.00  0.00    -0.024 C  
ENDROOT
BRANCH   2   3
HETATM    3  C   UNL     1      -6.231   2.903  66.935  1.00  0.00    -0.025 C  
BRANCH   3   4
HETATM    4  N   UNL     1      -7.418   2.948  67.828  1.00  0.00    -0.057 NA 
BRANCH   4   5
HETATM    5  C   UNL     1      -7.342   4.105  68.804  1.00  0.00    -0.055 C  
BRANCH   5   6
HETATM    6  C   UNL     1      -8.556   5.023  68.621  1.00  0.00    -0.093 C  
HETATM    7  H   UNL     1      -9.882   5.454  67.290  1.00  0.00     0.000 HD 
HETATM    8  O   UNL     1      -9.130   4.886  67.403  1.00  0.00    -0.113 OA 
BRANCH   6   9
HETATM    9  N   UNL     1      -8.950   5.843  69.531  1.00  0.00    -0.128 NA 
HETATM   10  H   UNL     1      -9.816   5.638  70.029  1.00  0.00     0.000 HD 
BRANCH   9  11
HETATM   11  C   UNL     1      -8.234   7.017  69.873  1.00  0.00    -0.130 A  
HETATM   12  C   UNL     1      -7.767   7.968  68.932  1.00  0.00    -0.104 A  
HETATM   13  C   UNL     1      -7.158   9.156  69.375  1.00  0.00    -0.053 A  
HETATM   14  C   UNL     1      -7.840   7.793  67.444  1.00  0.00    -0.118 C  
HETATM   15  C   UNL     1      -7.061   9.454  70.725  1.00  0.00    -0.119 A  
HETATM   16  C   UNL     1      -7.539   8.547  71.661  1.00  0.00    -0.135 A  
HETATM   17  C   UNL     1      -8.113   7.328  71.251  1.00  0.00    -0.102 A  
HETATM   18  C   UNL     1      -8.595   6.380  72.320  1.00  0.00    -0.117 C  
ENDBRANCH   9  11
ENDBRANCH   6   9
ENDBRANCH   5   6
BRANCH   5  19
HETATM   19  C   UNL     1      -6.080   5.002  68.681  1.00  0.00    -0.030 C  
HETATM   20  C   UNL     1      -5.310   4.885  67.365  1.00  0.00    -0.012 C  
ENDBRANCH   5  19
ENDBRANCH   4   5
BRANCH   4  21
HETATM   21  C   UNL     1      -7.590   1.649  68.533  1.00  0.00    -0.046 C  
HETATM   22  C   UNL     1      -8.158   1.677  69.953  1.00  0.00    -0.055 C  
ENDBRANCH   4  21
ENDBRANCH   3   4
ENDBRANCH   2   3
TORSDOF 8
ENDMDL
MODEL      416
REMARK 921   NORMALIZED FREE ENERGY PREDICTED BY IDOCK:    1.31 KCAL/MOL
REMARK 922        TOTAL FREE ENERGY PREDICTED BY IDOCK:    0.95 KCAL/MOL
REMARK 923 INTER-LIGAND FREE ENERGY PREDICTED BY IDOCK:   -2.42 KCAL/MOL
REMARK 924 INTRA-LIGAND FREE ENERGY PREDICTED BY IDOCK:    3.37 KCAL/MOL
REMARK 927      BINDING AFFINITY PREDICTED BY RF-SCORE:    0.00 PKD
ROOT
HETATM    1  C   UNL     1      -6.025  15.332  68.993  1.00  0.00    -0.098 C  
HETATM    2  C   UNL     1      -5.795  16.541  68.097  1.00  0.00    -0.124 C  
ENDROOT
BRANCH   2   3
HETATM    3  C   UNL     1      -7.108  17.151  67.564  1.00  0.00    -0.154 C  
BRANCH   3   4
HETATM    4  N   UNL     1      -7.934  17.920  68.530  1.00  0.00    -0.293 NA 
BRANCH   4   5
HETATM    5  C   UNL     1      -9.413  17.650  68.344  1.00  0.00    -0.298 C  
BRANCH   5   6
HETATM    6  C   UNL     1      -9.686  17.219  66.899  1.00  0.00    -0.273 C  
HETATM    7  H   UNL     1      -8.720  16.795  65.286  1.00  0.00     0.000 HD 
HETATM    8  O   UNL     1      -8.550  17.062  66.181  1.00  0.00    -0.397 OA 
BRANCH   6   9
HETATM    9  N   UNL     1     -10.876  17.055  66.436  1.00  0.00    -0.050 NA 
HETATM   10  H   UNL     1     -11.461  17.878  66.294  1.00  0.00     0.000 HD 
BRANCH   9  11
HETATM   11  C   UNL     1     -11.410  15.781  66.117  1.00  0.00     0.143 A  
HETATM   12  C   UNL     1     -11.724  15.357  64.801  1.00  0.00    -0.232 A  
HETATM   13  C   UNL     1     -12.150  14.036  64.570  1.00  0.00    -0.484 A  
HETATM   14  C   UNL     1     -11.672  16.241  63.590  1.00  0.00     1.624 C  
HETATM   15  C   UNL     1     -12.208  13.110  65.600  1.00  0.00    -0.521 A  
HETATM   16  C   UNL     1     -11.876  13.500  66.890  1.00  0.00    -0.452 A  
HETATM   17  C   UNL     1     -11.489  14.826  67.161  1.00  0.00    -0.375 A  
HETATM   18  C   UNL     1     -11.160  15.188  68.588  1.00  0.00    -0.276 C  
ENDBRANCH   9  11
ENDBRANCH   6   9
ENDBRANCH   5   6
BRANCH   5  19
HETATM   19  C   UNL     1     -10.355  18.850  68.639  1.00  0.00    -0.267 C  
HETATM   20  C   UNL     1     -10.340  19.366  70.079  1.00  0.00     0.798 C  
ENDBRANCH   5  19
ENDBRANCH   4   5
BRANCH   4  21
HETATM   21  C   UNL     1      -7.628  19.373  68.436  1.00  0.00    -0.321 C  
HETATM   22  C   UNL     1      -8.074  20.115  67.176  1.00  0.00    -0.370 C  
ENDBRANCH   4  21
ENDBRANCH   3   4
ENDBRANCH   2   3
TORSDOF 8
ENDMDL
MODEL      417
REMARK 921   NORMALIZED FREE ENERGY PREDICTED BY IDOCK:    2.81 KCAL/MOL
REMARK 922        TOTAL FREE ENERGY PREDICTED BY IDOCK:    3.16 KCAL/MOL
REMARK 923 INTER-LIGAND FREE ENERGY PREDICTED BY IDOCK:    0.00 KCAL/MOL
REMARK 924 INTRA-LIGAND FREE ENERGY PREDICTED BY IDOCK:    3.16 KCAL/MOL
REMARK 927      BINDING AFFINITY PREDICTED BY RF-SCORE:    0.00 PKD
ROOT
HETATM    1  C   UNL     1     -13.091  14.168  70.811  1.00  0.00    -0.289 C  
HETATM    2  C   UNL     1     -12.003  14.008  69.759  1.00  0.00    -0.393 C  
ENDROOT
BRANCH   2   3
HETATM    3  C   UNL     1     -10.880  13.045  70.198  1.00  0.00     1.099 C  
BRANCH   3   4
HETATM    4  N   UNL     1     -10.127  12.354  69.119  1.00  0.00     0.182 NA 
BRANCH   4   5
HETATM    5  C   UNL     1      -9.697  10.963  69.538  1.00  0.00     0.111 C  
BRANCH   5   6
HETATM    6  C   UNL     1      -8.640  10.429  68.565  1.00  0.00    -0.134 C  
HETATM    7  H   UNL     1      -6.744  10.085  68.501  1.00  0.00     0.000 HD 
HETATM    8  O   UNL     1      -7.399  10.416  69.104  1.00  0.00    -0.082 OA 
BRANCH   6   9
HETATM    9  N   UNL     1      -8.924  10.063  67.364  1.00  0.00    -0.131 NA 
HETATM   10  H   UNL     1      -9.800   9.568  67.200  1.00  0.00     0.000 HD 
BRANCH   9  11
HETATM   11  C   UNL     1      -8.073  10.318  66.259  1.00  0.00    -0.129 A  
HETATM   12  C   UNL     1      -6.869  11.062  66.336  1.00  0.00    -0.118 A  
HETATM   13  C   UNL     1      -6.036  11.172  65.207  1.00  0.00     0.414 A  
HETATM   14  C   UNL     1      -6.406  11.800  67.557  1.00  0.00    -0.095 C  
HETATM   15  C   UNL     1      -6.334  10.510  64.027  1.00  0.00     0.036 A  
HETATM   16  C   UNL     1      -7.495   9.752  63.943  1.00  0.00    -0.130 A  
HETATM   17  C   UNL     1      -8.372   9.658  65.040  1.00  0.00    -0.146 A  
HETATM   18  C   UNL     1      -9.624   8.834  64.875  1.00  0.00     0.648 C  
ENDBRANCH   9  11
ENDBRANCH   6   9
ENDBRANCH   5   6
BRANCH   5  19
HETATM   19  C   UNL     1     -10.830   9.900  69.596  1.00  0.00    -0.281 C  
HETATM   20  C   UNL     1     -12.021  10.250  70.489  1.00  0.00    -0.415 C  
ENDBRANCH   5  19
ENDBRANCH   4   5
BRANCH   4  21
HETATM   21  C   UNL     1      -8.966  13.177  68.685  1.00  0.00     0.049 C  
HETATM   22  C   UNL     1      -9.191  14.676  68.480  1.00  0.00    -0.193 C  
ENDBRANCH   4  21
ENDBRANCH   3   4
ENDBRANCH   2   3
TORSDOF 8
ENDMDL
MODEL      418
REMARK 921   NORMALIZED FREE ENERGY PREDICTED BY IDOCK:    7.82 KCAL/MOL
REMARK 922        TOTAL FREE ENERGY PREDICTED BY IDOCK:   10.51 KCAL/MOL
REMARK 923 INTER-LIGAND FREE ENERGY PREDICTED BY IDOCK:    6.42 KCAL/MOL
REMARK 924 INTRA-LIGAND FREE ENERGY PREDICTED BY IDOCK:    4.09 KCAL/MOL
REMARK 927      BINDING AFFINITY PREDICTED BY RF-SCORE:    0.00 PKD
ROOT
HETATM    1  C   UNL     1     -11.700   4.532  68.232  1.00  0.00     7.538 C  
HETATM    2  C   UNL     1     -10.762   5.644  68.680  1.00  0.00    -0.249 C  
ENDROOT
BRANCH   2   3
HETATM    3  C   UNL     1     -10.964   6.042  70.157  1.00  0.00    -0.359 C  
BRANCH   3   4
HETATM    4  N   UNL     1     -10.105   5.361  71.160  1.00  0.00    -0.202 NA 
BRANCH   4   5
HETATM    5  C   UNL     1      -9.656   6.311  72.251  1.00  0.00    -0.151 C  
BRANCH   5   6
HETATM    6  C   UNL     1      -9.233   7.650  71.635  1.00  0.00    -0.134 C  
HETATM    7  H   UNL     1      -8.925   9.477  72.166  1.00  0.00     0.000 HD 
HETATM    8  O   UNL     1      -9.187   8.648  72.548  1.00  0.00    -0.293 OA 
BRANCH   6   9
HETATM    9  N   UNL     1      -8.981   7.788  70.381  1.00  0.00    -0.146 NA 
HETATM   10  H   UNL     1      -9.677   7.470  69.706  1.00  0.00     0.000 HD 
BRANCH   9  11
HETATM   11  C   UNL     1      -7.781   8.363  69.895  1.00  0.00    -0.092 A  
HETATM   12  C   UNL     1      -7.497   9.752  69.916  1.00  0.00    -0.142 A  
HETATM   13  C   UNL     1      -6.234  10.219  69.509  1.00  0.00    -0.051 A  
HETATM   14  C   UNL     1      -8.480  10.811  70.319  1.00  0.00     1.417 C  
HETATM   15  C   UNL     1      -5.226   9.340  69.145  1.00  0.00    -0.036 A  
HETATM   16  C   UNL     1      -5.477   7.974  69.147  1.00  0.00    -0.030 A  
HETATM   17  C   UNL     1      -6.744   7.478  69.506  1.00  0.00    -0.040 A  
HETATM   18  C   UNL     1      -6.954   5.985  69.468  1.00  0.00    -0.067 C  
ENDBRANCH   9  11
ENDBRANCH   6   9
ENDBRANCH   5   6
BRANCH   5  19
HETATM   19  C   UNL     1      -8.462   5.820  73.117  1.00  0.00    -0.117 C  
HETATM   20  C   UNL     1      -7.629   6.919  73.780  1.00  0.00    -0.091 C  
ENDBRANCH   5  19
ENDBRANCH   4   5
BRANCH   4  21
HETATM   21  C   UNL     1      -8.947   4.706  70.495  1.00  0.00    -0.109 C  
HETATM   22  C   UNL     1      -9.234   3.536  69.553  1.00  0.00    -0.224 C  
ENDBRANCH   4  21
ENDBRANCH   3   4
ENDBRANCH   2   3
TORSDOF 8
ENDMDL
MODEL      419
REMARK 921   NORMALIZED FREE ENERGY PREDICTED BY IDOCK:    8.58 KCAL/MOL
REMARK 922        TOTAL FREE ENERGY PREDICTED BY IDOCK:   11.62 KCAL/MOL
REMARK 923 INTER-LIGAND FREE ENERGY PREDICTED BY IDOCK:   10.30 KCAL/MOL
REMARK 924 INTRA-LIGAND FREE ENERGY PREDICTED BY IDOCK:    1.32 KCAL/MOL
REMARK 927      BINDING AFFINITY PREDICTED BY RF-SCORE:    0.00 PKD
ROOT
HETATM    1  C   UNL     1      -5.132  18.357  70.075  1.00  0.00    -0.207 C  
HETATM    2  C   UNL     1      -5.804  17.411  71.060  1.00  0.00     0.628 C  
ENDROOT
BRANCH   2   3
HETATM    3  C   UNL     1      -7.137  16.840  70.531  1.00  0.00     2.052 C  
BRANCH   3   4
HETATM    4  N   UNL     1      -7.736  17.516  69.351  1.00  0.00     0.093 NA 
BRANCH   4   5
HETATM    5  C   UNL     1      -9.204  17.176  69.195  1.00  0.00    -0.042 C  
BRANCH   5   6
HETATM    6  C   UNL     1     -10.058  18.423  69.451  1.00  0.00     0.129 C  
HETATM    7  H   UNL     1     -10.440  19.676  70.865  1.00  0.00     0.000 HD 
HETATM    8  O   UNL     1      -9.912  18.903  70.708  1.00  0.00     1.626 OA 
BRANCH   6   9
HETATM    9  N   UNL     1     -10.839  18.925  68.559  1.00  0.00    -0.177 NA 
HETATM   10  H   UNL     1     -11.374  19.760  68.794  1.00  0.00     0.000 HD 
BRANCH   9  11
HETATM   11  C   UNL     1     -10.988  18.368  67.264  1.00  0.00    -0.101 A  
HETATM   12  C   UNL     1     -10.296  18.827  66.115  1.00  0.00    -0.494 A  
HETATM   13  C   UNL     1     -10.429  18.142  64.893  1.00  0.00     1.703 A  
HETATM   14  C   UNL     1      -9.427  20.049  66.081  1.00  0.00    -0.447 C  
HETATM   15  C   UNL     1     -11.176  16.978  64.799  1.00  0.00     0.320 A  
HETATM   16  C   UNL     1     -11.836  16.497  65.922  1.00  0.00     1.628 A  
HETATM   17  C   UNL     1     -11.760  17.184  67.148  1.00  0.00     1.419 A  
HETATM   18  C   UNL     1     -12.517  16.617  68.323  1.00  0.00     2.033 C  
ENDBRANCH   9  11
ENDBRANCH   6   9
ENDBRANCH   5   6
BRANCH   5  19
HETATM   19  C   UNL     1      -9.738  16.066  70.142  1.00  0.00     0.405 C  
HETATM   20  C   UNL     1     -10.936  16.457  71.010  1.00  0.00     0.157 C  
ENDBRANCH   5  19
ENDBRANCH   4   5
BRANCH   4  21
HETATM   21  C   UNL     1      -6.966  17.191  68.119  1.00  0.00    -0.178 C  
HETATM   22  C   UNL     1      -7.755  16.914  66.838  1.00  0.00    -0.252 C  
ENDBRANCH   4  21
ENDBRANCH   3   4
ENDBRANCH   2   3
TORSDOF 8
ENDMDL
MODEL      420
REMARK 921   NORMALIZED FREE ENERGY PREDICTED BY IDOCK:    9.09 KCAL/MOL
REMARK 922        TOTAL FREE ENERGY PREDICTED BY IDOCK:   12.37 KCAL/MOL
REMARK 923 INTER-LIGAND FREE ENERGY PREDICTED BY IDOCK:    8.75 KCAL/MOL
REMARK 924 INTRA-LIGAND FREE ENERGY PREDICTED BY IDOCK:    3.62 KCAL/MOL
REMARK 927      BINDING AFFINITY PREDICTED BY RF-SCORE:    0.00 PKD
ROOT
HETATM    1  C   UNL     1      -5.127  18.788  70.860  1.00  0.00    -0.264 C  
HETATM    2  C   UNL     1      -6.056  17.991  71.764  1.00  0.00     1.858 C  
ENDROOT
BRANCH   2   3
HETATM    3  C   UNL     1      -7.457  17.783  71.153  1.00  0.00     5.736 C  
BRANCH   3   4
HETATM    4  N   UNL     1      -7.803  18.610  69.969  1.00  0.00     1.078 NA 
BRANCH   4   5
HETATM    5  C   UNL     1      -7.307  17.983  68.682  1.00  0.00    -0.282 C  
BRANCH   5   6
HETATM    6  C   UNL     1      -8.494  17.668  67.763  1.00  0.00    -0.227 C  
HETATM    7  H   UNL     1     -10.166  16.710  67.802  1.00  0.00     0.000 HD 
HETATM    8  O   UNL     1      -9.431  16.904  68.371  1.00  0.00    -0.241 OA 
BRANCH   6   9
HETATM    9  N   UNL     1      -8.556  18.077  66.545  1.00  0.00    -0.281 NA 
HETATM   10  H   UNL     1      -9.399  17.878  66.007  1.00  0.00     0.000 HD 
BRANCH   9  11
HETATM   11  C   UNL     1      -7.506  18.792  65.917  1.00  0.00    -0.198 A  
HETATM   12  C   UNL     1      -7.520  20.190  65.684  1.00  0.00    -0.240 A  
HETATM   13  C   UNL     1      -6.386  20.827  65.151  1.00  0.00    -0.283 A  
HETATM   14  C   UNL     1      -8.703  21.078  65.938  1.00  0.00     1.254 C  
HETATM   15  C   UNL     1      -5.216  20.125  64.905  1.00  0.00    -0.192 A  
HETATM   16  C   UNL     1      -5.174  18.760  65.154  1.00  0.00    -0.208 A  
HETATM   17  C   UNL     1      -6.307  18.084  65.646  1.00  0.00    -0.256 A  
HETATM   18  C   UNL     1      -6.198  16.598  65.876  1.00  0.00     1.411 C  
ENDBRANCH   9  11
ENDBRANCH   6   9
ENDBRANCH   5   6
BRANCH   5  19
HETATM   19  C   UNL     1      -6.506  16.662  68.846  1.00  0.00    -0.174 C  
HETATM   20  C   UNL     1      -7.338  15.378  68.837  1.00  0.00    -0.147 C  
ENDBRANCH   5  19
ENDBRANCH   4   5
BRANCH   4  21
HETATM   21  C   UNL     1      -7.289  19.997  70.134  1.00  0.00     0.428 C  
HETATM   22  C   UNL     1      -6.691  20.687  68.907  1.00  0.00    -0.020 C  
ENDBRANCH   4  21
ENDBRANCH   3   4
ENDBRANCH   2   3
TORSDOF 8
ENDMDL
MODEL      421
REMARK 921   NORMALIZED FREE ENERGY PREDICTED BY IDOCK:   10.41 KCAL/MOL
REMARK 922        TOTAL FREE ENERGY PREDICTED BY IDOCK:   14.30 KCAL/MOL
REMARK 923 INTER-LIGAND FREE ENERGY PREDICTED BY IDOCK:   11.14 KCAL/MOL
REMARK 924 INTRA-LIGAND FREE ENERGY PREDICTED BY IDOCK:    3.16 KCAL/MOL
REMARK 927      BINDING AFFINITY PREDICTED BY RF-SCORE:    0.00 PKD
ROOT
HETATM    1  C   UNL     1      -5.142  18.784  70.861  1.00  0.00    -0.264 C  
HETATM    2  C   UNL     1      -6.040  18.013  71.818  1.00  0.00     1.858 C  
ENDROOT
BRANCH   2   3
HETATM    3  C   UNL     1      -7.479  17.846  71.287  1.00  0.00     6.182 C  
BRANCH   3   4
HETATM    4  N   UNL     1      -7.845  18.629  70.078  1.00  0.00     1.078 NA 
BRANCH   4   5
HETATM    5  C   UNL     1      -7.393  17.939  68.806  1.00  0.00    -0.270 C  
BRANCH   5   6
HETATM    6  C   UNL     1      -8.611  17.585  67.945  1.00  0.00    -0.239 C  
HETATM    7  H   UNL     1     -10.049  16.301  67.894  1.00  0.00     0.000 HD 
HETATM    8  O   UNL     1      -9.294  16.521  68.427  1.00  0.00    -0.208 OA 
BRANCH   6   9
HETATM    9  N   UNL     1      -8.914  18.228  66.873  1.00  0.00    -0.271 NA 
HETATM   10  H   UNL     1      -9.893  18.270  66.590  1.00  0.00     0.000 HD 
BRANCH   9  11
HETATM   11  C   UNL     1      -7.948  18.882  66.067  1.00  0.00    -0.162 A  
HETATM   12  C   UNL     1      -6.932  18.212  65.340  1.00  0.00     0.068 A  
HETATM   13  C   UNL     1      -6.085  18.938  64.483  1.00  0.00    -0.131 A  
HETATM   14  C   UNL     1      -6.652  16.742  65.435  1.00  0.00     2.590 C  
HETATM   15  C   UNL     1      -6.262  20.298  64.280  1.00  0.00    -0.299 A  
HETATM   16  C   UNL     1      -7.271  20.965  64.962  1.00  0.00     0.332 A  
HETATM   17  C   UNL     1      -8.107  20.276  65.861  1.00  0.00    -0.081 A  
HETATM   18  C   UNL     1      -9.170  21.065  66.583  1.00  0.00     0.326 C  
ENDBRANCH   9  11
ENDBRANCH   6   9
ENDBRANCH   5   6
BRANCH   5  19
HETATM   19  C   UNL     1      -6.588  16.625  69.006  1.00  0.00    -0.198 C  
HETATM   20  C   UNL     1      -5.755  16.170  67.807  1.00  0.00    -0.160 C  
ENDBRANCH   5  19
ENDBRANCH   4   5
BRANCH   4  21
HETATM   21  C   UNL     1      -7.305  20.012  70.171  1.00  0.00     0.428 C  
HETATM   22  C   UNL     1      -7.232  20.837  68.885  1.00  0.00     0.563 C  
ENDBRANCH   4  21
ENDBRANCH   3   4
ENDBRANCH   2   3
TORSDOF 8
ENDMDL
MODEL      422
REMARK 921   NORMALIZED FREE ENERGY PREDICTED BY IDOCK:   20.12 KCAL/MOL
REMARK 922        TOTAL FREE ENERGY PREDICTED BY IDOCK:   28.55 KCAL/MOL
REMARK 923 INTER-LIGAND FREE ENERGY PREDICTED BY IDOCK:    0.66 KCAL/MOL
REMARK 924 INTRA-LIGAND FREE ENERGY PREDICTED BY IDOCK:   27.90 KCAL/MOL
REMARK 927      BINDING AFFINITY PREDICTED BY RF-SCORE:    0.00 PKD
ROOT
HETATM    1  C   UNL     1      -6.930   3.059  63.627  1.00  0.00    -0.044 C  
HETATM    2  C   UNL     1      -7.485   2.287  64.815  1.00  0.00    -0.063 C  
ENDROOT
BRANCH   2   3
HETATM    3  C   UNL     1      -7.521   3.124  66.111  1.00  0.00    -0.076 C  
BRANCH   3   4
HETATM    4  N   UNL     1      -7.780   4.579  65.964  1.00  0.00    -0.093 NA 
BRANCH   4   5
HETATM    5  C   UNL     1      -7.801   5.284  67.306  1.00  0.00    -0.100 C  
BRANCH   5   6
HETATM    6  C   UNL     1      -8.892   6.361  67.313  1.00  0.00    -0.108 C  
HETATM    7  H   UNL     1     -10.756   6.559  67.762  1.00  0.00     0.000 HD 
HETATM    8  O   UNL     1     -10.080   5.891  67.758  1.00  0.00    -0.134 OA 
BRANCH   6   9
HETATM    9  N   UNL     1      -8.681   7.565  66.910  1.00  0.00    -0.126 NA 
HETATM   10  H   UNL     1      -9.292   8.307  67.251  1.00  0.00     0.000 HD 
BRANCH   9  11
HETATM   11  C   UNL     1      -7.637   7.907  66.014  1.00  0.00    -0.086 A  
HETATM   12  C   UNL     1      -7.763   7.895  64.602  1.00  0.00    -0.120 A  
HETATM   13  C   UNL     1      -6.704   8.352  63.797  1.00  0.00    -0.076 A  
HETATM   14  C   UNL     1      -8.965   7.385  63.864  1.00  0.00     1.225 C  
HETATM   15  C   UNL     1      -5.552   8.881  64.358  1.00  0.00    -0.063 A  
HETATM   16  C   UNL     1      -5.423   8.928  65.740  1.00  0.00    -0.041 A  
HETATM   17  C   UNL     1      -6.446   8.437  66.572  1.00  0.00    -0.055 A  
HETATM   18  C   UNL     1      -6.233   8.500  68.064  1.00  0.00    -0.052 C  
ENDBRANCH   9  11
ENDBRANCH   6   9
ENDBRANCH   5   6
BRANCH   5  19
HETATM   19  C   UNL     1      -6.476   5.986  67.713  1.00  0.00    -0.046 C  
HETATM   20  C   UNL     1      -6.564   7.500  67.916  1.00  0.00    -0.058 C  
ENDBRANCH   5  19
ENDBRANCH   4   5
BRANCH   4  21
HETATM   21  C   UNL     1      -9.041   4.810  65.207  1.00  0.00    -0.155 C  
HETATM   22  C   UNL     1      -9.588   6.237  65.152  1.00  0.00     0.929 C  
ENDBRANCH   4  21
ENDBRANCH   3   4
ENDBRANCH   2   3
TORSDOF 8
ENDMDL
MODEL      423
REMARK 921   NORMALIZED FREE ENERGY PREDICTED BY IDOCK:   28.21 KCAL/MOL
REMARK 922        TOTAL FREE ENERGY PREDICTED BY IDOCK:   40.44 KCAL/MOL
REMARK 923 INTER-LIGAND FREE ENERGY PREDICTED BY IDOCK:   -1.30 KCAL/MOL
REMARK 924 INTRA-LIGAND FREE ENERGY PREDICTED BY IDOCK:   41.74 KCAL/MOL
REMARK 927      BINDING AFFINITY PREDICTED BY RF-SCORE:    0.00 PKD
ROOT
HETATM    1  C   UNL     1     -10.494  13.268  64.958  1.00  0.00    -0.367 C  
HETATM    2  C   UNL     1     -11.195  13.936  66.132  1.00  0.00    -0.303 C  
ENDROOT
BRANCH   2   3
HETATM    3  C   UNL     1     -10.214  14.437  67.212  1.00  0.00    -0.252 C  
BRANCH   3   4
HETATM    4  N   UNL     1      -8.853  14.823  66.756  1.00  0.00    -0.257 NA 
BRANCH   4   5
HETATM    5  C   UNL     1      -8.054  13.622  66.295  1.00  0.00     1.327 C  
BRANCH   5   6
HETATM    6  C   UNL     1      -8.986  12.420  66.097  1.00  0.00     0.037 C  
HETATM    7  H   UNL     1     -10.058  11.606  64.717  1.00  0.00     0.000 HD 
HETATM    8  O   UNL     1      -9.481  12.350  64.840  1.00  0.00     0.037 OA 
BRANCH   6   9
HETATM    9  N   UNL     1      -9.269  11.598  67.046  1.00  0.00    -0.179 NA 
HETATM   10  H   UNL     1     -10.229  11.267  67.132  1.00  0.00     0.000 HD 
BRANCH   9  11
HETATM   11  C   UNL     1      -8.306  11.133  67.976  1.00  0.00    -0.134 A  
HETATM   12  C   UNL     1      -8.257   9.807  68.476  1.00  0.00    -0.106 A  
HETATM   13  C   UNL     1      -7.200   9.410  69.314  1.00  0.00    -0.066 A  
HETATM   14  C   UNL     1      -9.296   8.760  68.203  1.00  0.00    -0.148 C  
HETATM   15  C   UNL     1      -6.157  10.273  69.615  1.00  0.00    -0.049 A  
HETATM   16  C   UNL     1      -6.174  11.566  69.109  1.00  0.00    -0.071 A  
HETATM   17  C   UNL     1      -7.241  12.008  68.304  1.00  0.00    -0.090 A  
HETATM   18  C   UNL     1      -7.205  13.431  67.805  1.00  0.00    -0.156 C  
ENDBRANCH   9  11
ENDBRANCH   6   9
ENDBRANCH   5   6
BRANCH   5  19
HETATM   19  C   UNL     1      -6.925  13.159  67.258  1.00  0.00    -0.021 C  
HETATM   20  C   UNL     1      -5.993  14.261  67.763  1.00  0.00    -0.112 C  
ENDBRANCH   5  19
ENDBRANCH   4   5
BRANCH   4  21
HETATM   21  C   UNL     1      -8.141  15.576  67.824  1.00  0.00    -0.141 C  
HETATM   22  C   UNL     1      -8.628  15.406  69.263  1.00  0.00    -0.252 C  
ENDBRANCH   4  21
ENDBRANCH   3   4
ENDBRANCH   2   3
TORSDOF 8
ENDMDL
