MODEL        1
REMARK 921   NORMALIZED FREE ENERGY PREDICTED BY IDOCK:   -6.95 KCAL/MOL
REMARK 922        TOTAL FREE ENERGY PREDICTED BY IDOCK:  -11.14 KCAL/MOL
REMARK 923 INTER-LIGAND FREE ENERGY PREDICTED BY IDOCK:  -10.20 KCAL/MOL
REMARK 924 INTRA-LIGAND FREE ENERGY PREDICTED BY IDOCK:   -0.93 KCAL/MOL
REMARK 927      BINDING AFFINITY PREDICTED BY RF-SCORE:    0.00 PKD
ROOT
HETATM    1  C   UNL     1     -11.158  11.689  63.516  1.00  0.00    -0.476 C  
HETATM    2  C   UNL     1     -12.520  12.317  63.723  1.00  0.00    -0.515 C  
ENDROOT
BRANCH   2   3
HETATM    3  O   UNL     1     -12.538  13.677  63.272  1.00  0.00    -0.816 OA 
BRANCH   3   4
HETATM    4  C   UNL     1     -12.402  14.549  64.402  1.00  0.00    -0.413 C  
BRANCH   4   5
HETATM    5  C   UNL     1     -11.155  15.445  64.354  1.00  0.00    -0.132 C  
BRANCH   5   6
HETATM    6  N   UNL     1     -10.594  15.957  65.624  1.00  0.00    -0.366 N  
HETATM    7 CL   UNL     1      -8.240  18.386  66.653  1.00  0.00    -0.271 Cl 
HETATM    8  C   UNL     1     -10.569  17.373  65.740  1.00  0.00    -0.182 C  
HETATM    9  C   UNL     1      -9.943  18.001  66.997  1.00  0.00    -0.329 C  
HETATM   10 CL   UNL     1     -10.820  19.484  67.453  1.00  0.00    -0.590 Cl 
HETATM   11  O   UNL     1     -11.016  18.094  64.839  1.00  0.00    -0.718 OA 
BRANCH   6  12
HETATM   12  C   UNL     1      -9.704  15.129  66.467  1.00  0.00    -0.271 C  
BRANCH  12  13
HETATM   13  C   UNL     1     -10.308  14.024  67.298  1.00  0.00    -0.264 A  
HETATM   14  C   UNL     1     -10.353  12.703  66.828  1.00  0.00    -0.246 A  
HETATM   15  C   UNL     1     -11.041  11.720  67.545  1.00  0.00    -0.330 A  
HETATM   16  C   UNL     1     -11.664  12.025  68.760  1.00  0.00    -0.321 A  
HETATM   17  C   UNL     1     -10.886  14.311  68.546  1.00  0.00    -0.264 A  
HETATM   18  C   UNL     1     -11.576  13.323  69.262  1.00  0.00    -0.370 A  
BRANCH  16  19
HETATM   19  O   UNL     1     -12.414  11.002  69.302  1.00  0.00    -0.400 OA 
BRANCH  19  20
HETATM   20  C   UNL     1     -11.869  10.147  70.231  1.00  0.00    -0.261 A  
HETATM   21  C   UNL     1     -10.475  10.019  70.225  1.00  0.00    -0.331 A  
HETATM   22  C   UNL     1      -9.837   9.215  71.174  1.00  0.00    -0.371 A  
HETATM   23  C   UNL     1     -10.605   8.539  72.132  1.00  0.00    -0.349 A  
HETATM   24  C   UNL     1     -11.999   8.696  72.164  1.00  0.00    -0.449 A  
HETATM   25  N   UNL     1      -9.950   7.669  73.113  1.00  0.00    -0.278 N  
HETATM   26  C   UNL     1     -12.623   9.516  71.225  1.00  0.00    -0.425 A  
HETATM   27  O   UNL     1      -8.714   7.608  73.097  1.00  0.00    -0.139 OA 
HETATM   28  O   UNL     1     -10.674   7.031  73.896  1.00  0.00    -0.324 OA 
ENDBRANCH  19  20
ENDBRANCH  16  19
ENDBRANCH  12  13
ENDBRANCH   6  12
ENDBRANCH   5   6
ENDBRANCH   4   5
ENDBRANCH   3   4
ENDBRANCH   2   3
TORSDOF 8
ENDMDL
MODEL        2
REMARK 921   NORMALIZED FREE ENERGY PREDICTED BY IDOCK:   -6.74 KCAL/MOL
REMARK 922        TOTAL FREE ENERGY PREDICTED BY IDOCK:  -10.83 KCAL/MOL
REMARK 923 INTER-LIGAND FREE ENERGY PREDICTED BY IDOCK:  -10.23 KCAL/MOL
REMARK 924 INTRA-LIGAND FREE ENERGY PREDICTED BY IDOCK:   -0.60 KCAL/MOL
REMARK 927      BINDING AFFINITY PREDICTED BY RF-SCORE:    0.00 PKD
ROOT
HETATM    1  C   UNL     1     -12.433  12.322  63.342  1.00  0.00    -0.592 C  
HETATM    2  C   UNL     1     -12.658  12.501  64.828  1.00  0.00    -0.413 C  
ENDROOT
BRANCH   2   3
HETATM    3  O   UNL     1     -12.955  13.866  65.146  1.00  0.00    -0.744 OA 
BRANCH   3   4
HETATM    4  C   UNL     1     -12.032  14.720  64.459  1.00  0.00    -0.440 C  
BRANCH   4   5
HETATM    5  C   UNL     1     -10.626  14.747  65.076  1.00  0.00    -0.429 C  
BRANCH   5   6
HETATM    6  N   UNL     1     -10.428  15.431  66.374  1.00  0.00    -0.295 N  
HETATM    7 CL   UNL     1      -8.353  17.966  67.704  1.00  0.00    -0.231 Cl 
HETATM    8  C   UNL     1     -10.370  16.848  66.301  1.00  0.00    -0.308 C  
HETATM    9  C   UNL     1     -10.100  17.646  67.589  1.00  0.00    -0.339 C  
HETATM   10 CL   UNL     1     -11.000  19.184  67.567  1.00  0.00    -0.499 Cl 
HETATM   11  O   UNL     1     -10.507  17.437  65.220  1.00  0.00    -0.654 OA 
BRANCH   6  12
HETATM   12  C   UNL     1      -9.855  14.725  67.541  1.00  0.00    -0.218 C  
BRANCH  12  13
HETATM   13  C   UNL     1     -10.765  13.878  68.397  1.00  0.00    -0.267 A  
HETATM   14  C   UNL     1     -11.346  14.391  69.566  1.00  0.00    -0.318 A  
HETATM   15  C   UNL     1     -12.070  13.554  70.422  1.00  0.00    -0.415 A  
HETATM   16  C   UNL     1     -12.258  12.203  70.111  1.00  0.00    -0.231 A  
HETATM   17  C   UNL     1     -11.007  12.536  68.061  1.00  0.00    -0.266 A  
HETATM   18  C   UNL     1     -11.732  11.700  68.921  1.00  0.00    -0.397 A  
BRANCH  16  19
HETATM   19  O   UNL     1     -12.877  11.461  71.095  1.00  0.00    -0.380 OA 
BRANCH  19  20
HETATM   20  C   UNL     1     -12.419  10.206  71.422  1.00  0.00    -0.423 A  
HETATM   21  C   UNL     1     -13.386   9.257  71.773  1.00  0.00    -0.477 A  
HETATM   22  C   UNL     1     -13.010   7.942  72.063  1.00  0.00    -0.270 A  
HETATM   23  C   UNL     1     -11.657   7.583  71.999  1.00  0.00    -0.287 A  
HETATM   24  C   UNL     1     -10.691   8.522  71.611  1.00  0.00    -0.351 A  
HETATM   25  N   UNL     1     -11.247   6.215  72.332  1.00  0.00    -0.272 N  
HETATM   26  C   UNL     1     -11.080   9.826  71.304  1.00  0.00    -0.375 A  
HETATM   27  O   UNL     1     -12.134   5.396  72.603  1.00  0.00    -0.169 OA 
HETATM   28  O   UNL     1     -10.031   5.960  72.334  1.00  0.00    -0.170 OA 
ENDBRANCH  19  20
ENDBRANCH  16  19
ENDBRANCH  12  13
ENDBRANCH   6  12
ENDBRANCH   5   6
ENDBRANCH   4   5
ENDBRANCH   3   4
ENDBRANCH   2   3
TORSDOF 8
ENDMDL
MODEL        3
REMARK 921   NORMALIZED FREE ENERGY PREDICTED BY IDOCK:   -6.52 KCAL/MOL
REMARK 922        TOTAL FREE ENERGY PREDICTED BY IDOCK:  -10.50 KCAL/MOL
REMARK 923 INTER-LIGAND FREE ENERGY PREDICTED BY IDOCK:   -9.42 KCAL/MOL
REMARK 924 INTRA-LIGAND FREE ENERGY PREDICTED BY IDOCK:   -1.08 KCAL/MOL
REMARK 927      BINDING AFFINITY PREDICTED BY RF-SCORE:    0.00 PKD
ROOT
HETATM    1  C   UNL     1     -12.157  11.659  70.378  1.00  0.00    -0.462 C  
HETATM    2  C   UNL     1     -12.850  10.889  71.481  1.00  0.00    -0.454 C  
ENDROOT
BRANCH   2   3
HETATM    3  O   UNL     1     -13.535   9.742  70.962  1.00  0.00    -0.347 OA 
BRANCH   3   4
HETATM    4  C   UNL     1     -13.468   8.680  71.921  1.00  0.00    -0.397 C  
BRANCH   4   5
HETATM    5  C   UNL     1     -12.038   8.295  72.329  1.00  0.00    -0.379 C  
BRANCH   5   6
HETATM    6  N   UNL     1     -11.576   6.910  72.089  1.00  0.00    -0.276 N  
HETATM    7 CL   UNL     1      -8.511   5.147  72.039  1.00  0.00    -0.124 Cl 
HETATM    8  C   UNL     1     -10.670   6.403  73.060  1.00  0.00    -0.259 C  
HETATM    9  C   UNL     1     -10.082   4.996  72.861  1.00  0.00    -0.168 C  
HETATM   10 CL   UNL     1      -9.869   4.184  74.433  1.00  0.00    -0.154 Cl 
HETATM   11  O   UNL     1     -10.336   7.086  74.037  1.00  0.00    -0.364 OA 
BRANCH   6  12
HETATM   12  C   UNL     1     -11.641   6.293  70.746  1.00  0.00    -0.279 C  
BRANCH  12  13
HETATM   13  C   UNL     1     -10.921   6.965  69.602  1.00  0.00    -0.298 A  
HETATM   14  C   UNL     1     -10.067   8.056  69.822  1.00  0.00    -0.196 A  
HETATM   15  C   UNL     1      -9.520   8.755  68.742  1.00  0.00    -0.142 A  
HETATM   16  C   UNL     1      -9.782   8.358  67.426  1.00  0.00    -0.170 A  
HETATM   17  C   UNL     1     -11.133   6.535  68.281  1.00  0.00    -0.332 A  
HETATM   18  C   UNL     1     -10.584   7.239  67.201  1.00  0.00    -0.416 A  
BRANCH  16  19
HETATM   19  O   UNL     1      -9.288   9.203  66.455  1.00  0.00    -0.172 OA 
BRANCH  19  20
HETATM   20  C   UNL     1     -10.031  10.271  66.008  1.00  0.00    -0.245 A  
HETATM   21  C   UNL     1     -10.073  10.471  64.623  1.00  0.00    -0.408 A  
HETATM   22  C   UNL     1     -10.852  11.499  64.083  1.00  0.00    -0.435 A  
HETATM   23  C   UNL     1     -11.591  12.326  64.940  1.00  0.00    -0.342 A  
HETATM   24  C   UNL     1     -11.581  12.104  66.325  1.00  0.00    -0.424 A  
HETATM   25  N   UNL     1     -12.387  13.426  64.387  1.00  0.00    -0.365 N  
HETATM   26  C   UNL     1     -10.817  11.063  66.851  1.00  0.00    -0.324 A  
HETATM   27  O   UNL     1     -12.426  13.550  63.156  1.00  0.00    -0.759 OA 
HETATM   28  O   UNL     1     -12.967  14.179  65.188  1.00  0.00    -0.729 OA 
ENDBRANCH  19  20
ENDBRANCH  16  19
ENDBRANCH  12  13
ENDBRANCH   6  12
ENDBRANCH   5   6
ENDBRANCH   4   5
ENDBRANCH   3   4
ENDBRANCH   2   3
TORSDOF 8
ENDMDL
MODEL        4
REMARK 921   NORMALIZED FREE ENERGY PREDICTED BY IDOCK:   -6.52 KCAL/MOL
REMARK 922        TOTAL FREE ENERGY PREDICTED BY IDOCK:  -10.50 KCAL/MOL
REMARK 923 INTER-LIGAND FREE ENERGY PREDICTED BY IDOCK:   -9.37 KCAL/MOL
REMARK 924 INTRA-LIGAND FREE ENERGY PREDICTED BY IDOCK:   -1.13 KCAL/MOL
REMARK 927      BINDING AFFINITY PREDICTED BY RF-SCORE:    0.00 PKD
ROOT
HETATM    1  C   UNL     1     -10.500   5.445  66.948  1.00  0.00    -0.337 C  
HETATM    2  C   UNL     1     -11.009   6.510  67.896  1.00  0.00    -0.294 C  
ENDROOT
BRANCH   2   3
HETATM    3  O   UNL     1     -10.492   6.316  69.218  1.00  0.00    -0.198 OA 
BRANCH   3   4
HETATM    4  C   UNL     1     -11.566   6.415  70.161  1.00  0.00    -0.381 C  
BRANCH   4   5
HETATM    5  C   UNL     1     -11.107   6.641  71.610  1.00  0.00    -0.250 C  
BRANCH   5   6
HETATM    6  N   UNL     1      -9.917   7.484  71.858  1.00  0.00    -0.170 N  
HETATM    7 CL   UNL     1      -7.689   8.144  74.524  1.00  0.00    -0.266 Cl 
HETATM    8  C   UNL     1      -8.823   6.813  72.469  1.00  0.00    -0.126 C  
HETATM    9  C   UNL     1      -7.565   7.621  72.827  1.00  0.00    -0.097 C  
HETATM   10 CL   UNL     1      -6.103   6.626  72.604  1.00  0.00    -0.045 Cl 
HETATM   11  O   UNL     1      -8.885   5.605  72.733  1.00  0.00    -0.123 OA 
BRANCH   6  12
HETATM   12  C   UNL     1     -10.014   8.958  71.932  1.00  0.00    -0.314 C  
BRANCH  12  13
HETATM   13  C   UNL     1     -10.464   9.720  70.709  1.00  0.00    -0.339 A  
HETATM   14  C   UNL     1     -11.686  10.410  70.694  1.00  0.00    -0.444 A  
HETATM   15  C   UNL     1     -12.155  10.991  69.511  1.00  0.00    -0.400 A  
HETATM   16  C   UNL     1     -11.401  10.927  68.335  1.00  0.00    -0.304 A  
HETATM   17  C   UNL     1      -9.685   9.710  69.541  1.00  0.00    -0.216 A  
HETATM   18  C   UNL     1     -10.158  10.292  68.357  1.00  0.00    -0.178 A  
BRANCH  16  19
HETATM   19  O   UNL     1     -12.030  11.425  67.213  1.00  0.00    -0.580 OA 
BRANCH  19  20
HETATM   20  C   UNL     1     -11.697  12.661  66.711  1.00  0.00    -0.392 A  
HETATM   21  C   UNL     1     -12.262  13.011  65.479  1.00  0.00    -0.521 A  
HETATM   22  C   UNL     1     -12.022  14.273  64.926  1.00  0.00    -0.430 A  
HETATM   23  C   UNL     1     -11.211  15.184  65.617  1.00  0.00    -0.296 A  
HETATM   24  C   UNL     1     -10.675  14.850  66.869  1.00  0.00    -0.308 A  
HETATM   25  N   UNL     1     -10.926  16.498  65.032  1.00  0.00    -0.308 N  
HETATM   26  C   UNL     1     -10.938  13.596  67.420  1.00  0.00    -0.289 A  
HETATM   27  O   UNL     1     -11.471  16.783  63.958  1.00  0.00    -1.198 OA 
HETATM   28  O   UNL     1     -10.144  17.245  65.643  1.00  0.00    -0.566 OA 
ENDBRANCH  19  20
ENDBRANCH  16  19
ENDBRANCH  12  13
ENDBRANCH   6  12
ENDBRANCH   5   6
ENDBRANCH   4   5
ENDBRANCH   3   4
ENDBRANCH   2   3
TORSDOF 8
ENDMDL
MODEL        5
REMARK 921   NORMALIZED FREE ENERGY PREDICTED BY IDOCK:   -6.41 KCAL/MOL
REMARK 922        TOTAL FREE ENERGY PREDICTED BY IDOCK:  -10.34 KCAL/MOL
REMARK 923 INTER-LIGAND FREE ENERGY PREDICTED BY IDOCK:   -9.22 KCAL/MOL
REMARK 924 INTRA-LIGAND FREE ENERGY PREDICTED BY IDOCK:   -1.12 KCAL/MOL
REMARK 927      BINDING AFFINITY PREDICTED BY RF-SCORE:    0.00 PKD
ROOT
HETATM    1  C   UNL     1     -13.480  15.248  71.950  1.00  0.00    -0.547 C  
HETATM    2  C   UNL     1     -12.621  15.473  70.723  1.00  0.00    -0.452 C  
ENDROOT
BRANCH   2   3
HETATM    3  O   UNL     1     -11.245  15.184  70.995  1.00  0.00    -0.314 OA 
BRANCH   3   4
HETATM    4  C   UNL     1     -10.452  15.569  69.864  1.00  0.00    -0.313 C  
BRANCH   4   5
HETATM    5  C   UNL     1     -11.148  16.563  68.923  1.00  0.00    -0.300 C  
BRANCH   5   6
HETATM    6  N   UNL     1     -10.420  17.043  67.727  1.00  0.00    -0.338 N  
HETATM    7 CL   UNL     1     -10.326  19.949  65.714  1.00  0.00    -0.566 Cl 
HETATM    8  C   UNL     1      -9.875  18.351  67.841  1.00  0.00    -0.329 C  
HETATM    9  C   UNL     1      -9.158  18.963  66.626  1.00  0.00    -0.330 C  
HETATM   10 CL   UNL     1      -7.792  19.977  67.156  1.00  0.00    -0.326 Cl 
HETATM   11  O   UNL     1      -9.994  19.001  68.888  1.00  0.00    -0.410 OA 
BRANCH   6  12
HETATM   12  C   UNL     1     -10.653  16.453  66.391  1.00  0.00    -0.236 C  
BRANCH  12  13
HETATM   13  C   UNL     1     -10.683  14.950  66.254  1.00  0.00    -0.320 A  
HETATM   14  C   UNL     1     -11.876  14.272  65.961  1.00  0.00    -0.399 A  
HETATM   15  C   UNL     1     -11.917  12.874  65.978  1.00  0.00    -0.505 A  
HETATM   16  C   UNL     1     -10.766  12.128  66.251  1.00  0.00    -0.261 A  
HETATM   17  C   UNL     1      -9.519  14.195  66.469  1.00  0.00    -0.303 A  
HETATM   18  C   UNL     1      -9.564  12.794  66.487  1.00  0.00    -0.257 A  
BRANCH  16  19
HETATM   19  O   UNL     1     -10.968  10.768  66.363  1.00  0.00    -0.166 OA 
BRANCH  19  20
HETATM   20  C   UNL     1     -11.005  10.162  67.596  1.00  0.00    -0.268 A  
HETATM   21  C   UNL     1     -10.412   8.898  67.692  1.00  0.00    -0.320 A  
HETATM   22  C   UNL     1     -10.355   8.238  68.924  1.00  0.00    -0.230 A  
HETATM   23  C   UNL     1     -10.896   8.854  70.061  1.00  0.00    -0.227 A  
HETATM   24  C   UNL     1     -11.456  10.137  69.974  1.00  0.00    -0.344 A  
HETATM   25  N   UNL     1     -10.870   8.158  71.351  1.00  0.00    -0.229 N  
HETATM   26  C   UNL     1     -11.489  10.794  68.745  1.00  0.00    -0.364 A  
HETATM   27  O   UNL     1     -10.307   7.057  71.403  1.00  0.00    -0.198 OA 
HETATM   28  O   UNL     1     -11.426   8.709  72.316  1.00  0.00    -0.365 OA 
ENDBRANCH  19  20
ENDBRANCH  16  19
ENDBRANCH  12  13
ENDBRANCH   6  12
ENDBRANCH   5   6
ENDBRANCH   4   5
ENDBRANCH   3   4
ENDBRANCH   2   3
TORSDOF 8
ENDMDL
MODEL        6
REMARK 921   NORMALIZED FREE ENERGY PREDICTED BY IDOCK:   -6.36 KCAL/MOL
REMARK 922        TOTAL FREE ENERGY PREDICTED BY IDOCK:  -10.26 KCAL/MOL
REMARK 923 INTER-LIGAND FREE ENERGY PREDICTED BY IDOCK:   -9.09 KCAL/MOL
REMARK 924 INTRA-LIGAND FREE ENERGY PREDICTED BY IDOCK:   -1.17 KCAL/MOL
REMARK 927      BINDING AFFINITY PREDICTED BY RF-SCORE:    0.00 PKD
ROOT
HETATM    1  C   UNL     1     -13.498   9.575  72.158  1.00  0.00    -0.535 C  
HETATM    2  C   UNL     1     -12.490   8.501  72.505  1.00  0.00    -0.294 C  
ENDROOT
BRANCH   2   3
HETATM    3  O   UNL     1     -12.379   7.534  71.453  1.00  0.00    -0.320 OA 
BRANCH   3   4
HETATM    4  C   UNL     1     -11.815   6.327  71.981  1.00  0.00    -0.318 C  
BRANCH   4   5
HETATM    5  C   UNL     1     -10.295   6.212  71.789  1.00  0.00    -0.210 C  
BRANCH   5   6
HETATM    6  N   UNL     1      -9.730   6.409  70.436  1.00  0.00    -0.165 N  
HETATM    7 CL   UNL     1      -7.156   5.020  68.450  1.00  0.00    -0.060 Cl 
HETATM    8  C   UNL     1      -9.548   5.218  69.683  1.00  0.00    -0.163 C  
HETATM    9  C   UNL     1      -8.903   5.314  68.289  1.00  0.00    -0.104 C  
HETATM   10 CL   UNL     1      -9.623   4.112  67.188  1.00  0.00    -0.218 Cl 
HETATM   11  O   UNL     1      -9.876   4.116  70.144  1.00  0.00    -0.209 OA 
BRANCH   6  12
HETATM   12  C   UNL     1      -8.972   7.630  70.084  1.00  0.00    -0.146 C  
BRANCH  12  13
HETATM   13  C   UNL     1      -9.697   8.765  69.403  1.00  0.00    -0.172 A  
HETATM   14  C   UNL     1     -10.193   9.853  70.137  1.00  0.00    -0.326 A  
HETATM   15  C   UNL     1     -10.983  10.824  69.514  1.00  0.00    -0.317 A  
HETATM   16  C   UNL     1     -11.263  10.750  68.146  1.00  0.00    -0.302 A  
HETATM   17  C   UNL     1      -9.932   8.727  68.019  1.00  0.00    -0.220 A  
HETATM   18  C   UNL     1     -10.725   9.701  67.398  1.00  0.00    -0.308 A  
BRANCH  16  19
HETATM   19  O   UNL     1     -12.154  11.694  67.682  1.00  0.00    -0.615 OA 
BRANCH  19  20
HETATM   20  C   UNL     1     -11.708  12.857  67.099  1.00  0.00    -0.377 A  
HETATM   21  C   UNL     1     -12.363  13.266  65.932  1.00  0.00    -0.479 A  
HETATM   22  C   UNL     1     -12.009  14.467  65.310  1.00  0.00    -0.382 A  
HETATM   23  C   UNL     1     -10.993  15.257  65.865  1.00  0.00    -0.325 A  
HETATM   24  C   UNL     1     -10.362  14.868  67.055  1.00  0.00    -0.264 A  
HETATM   25  N   UNL     1     -10.593  16.503  65.203  1.00  0.00    -0.298 N  
HETATM   26  C   UNL     1     -10.737  13.679  67.679  1.00  0.00    -0.253 A  
HETATM   27  O   UNL     1     -11.218  16.848  64.193  1.00  0.00    -1.176 OA 
HETATM   28  O   UNL     1      -9.639  17.134  65.689  1.00  0.00    -0.535 OA 
ENDBRANCH  19  20
ENDBRANCH  16  19
ENDBRANCH  12  13
ENDBRANCH   6  12
ENDBRANCH   5   6
ENDBRANCH   4   5
ENDBRANCH   3   4
ENDBRANCH   2   3
TORSDOF 8
ENDMDL
MODEL        7
REMARK 921   NORMALIZED FREE ENERGY PREDICTED BY IDOCK:   -6.27 KCAL/MOL
REMARK 922        TOTAL FREE ENERGY PREDICTED BY IDOCK:  -10.14 KCAL/MOL
REMARK 923 INTER-LIGAND FREE ENERGY PREDICTED BY IDOCK:   -9.15 KCAL/MOL
REMARK 924 INTRA-LIGAND FREE ENERGY PREDICTED BY IDOCK:   -0.98 KCAL/MOL
REMARK 927      BINDING AFFINITY PREDICTED BY RF-SCORE:    0.00 PKD
ROOT
HETATM    1  C   UNL     1     -10.410  19.774  67.017  1.00  0.00    -0.593 C  
HETATM    2  C   UNL     1     -10.452  18.319  67.434  1.00  0.00    -0.409 C  
ENDROOT
BRANCH   2   3
HETATM    3  O   UNL     1     -10.111  18.167  68.818  1.00  0.00    -0.375 OA 
BRANCH   3   4
HETATM    4  C   UNL     1     -10.354  16.812  69.215  1.00  0.00    -0.309 C  
BRANCH   4   5
HETATM    5  C   UNL     1      -9.675  15.766  68.317  1.00  0.00    -0.201 C  
BRANCH   5   6
HETATM    6  N   UNL     1     -10.520  14.781  67.605  1.00  0.00    -0.252 N  
HETATM    7 CL   UNL     1     -12.291  14.576  64.552  1.00  0.00    -0.476 Cl 
HETATM    8  C   UNL     1     -10.185  14.580  66.239  1.00  0.00    -0.297 C  
HETATM    9  C   UNL     1     -11.048  13.624  65.398  1.00  0.00    -0.298 C  
HETATM   10 CL   UNL     1     -10.039  12.755  64.213  1.00  0.00    -0.324 Cl 
HETATM   11  O   UNL     1      -9.233  15.179  65.722  1.00  0.00    -0.264 OA 
BRANCH   6  12
HETATM   12  C   UNL     1     -11.866  14.416  68.098  1.00  0.00    -0.327 C  
BRANCH  12  13
HETATM   13  C   UNL     1     -11.998  13.270  69.072  1.00  0.00    -0.336 A  
HETATM   14  C   UNL     1     -11.890  11.938  68.645  1.00  0.00    -0.365 A  
HETATM   15  C   UNL     1     -12.155  10.888  69.529  1.00  0.00    -0.380 A  
HETATM   16  C   UNL     1     -12.495  11.143  70.862  1.00  0.00    -0.409 A  
HETATM   17  C   UNL     1     -12.282  13.519  70.425  1.00  0.00    -0.426 A  
HETATM   18  C   UNL     1     -12.548  12.464  71.309  1.00  0.00    -0.332 A  
BRANCH  16  19
HETATM   19  O   UNL     1     -12.855  10.031  71.593  1.00  0.00    -0.370 OA 
BRANCH  19  20
HETATM   20  C   UNL     1     -12.008   8.951  71.694  1.00  0.00    -0.345 A  
HETATM   21  C   UNL     1     -12.585   7.685  71.540  1.00  0.00    -0.369 A  
HETATM   22  C   UNL     1     -11.786   6.539  71.570  1.00  0.00    -0.386 A  
HETATM   23  C   UNL     1     -10.402   6.668  71.755  1.00  0.00    -0.196 A  
HETATM   24  C   UNL     1      -9.818   7.937  71.871  1.00  0.00    -0.233 A  
HETATM   25  N   UNL     1      -9.559   5.471  71.819  1.00  0.00    -0.149 N  
HETATM   26  C   UNL     1     -10.622   9.075  71.819  1.00  0.00    -0.426 A  
HETATM   27  O   UNL     1     -10.100   4.372  71.645  1.00  0.00    -0.186 OA 
HETATM   28  O   UNL     1      -8.350   5.628  72.058  1.00  0.00    -0.120 OA 
ENDBRANCH  19  20
ENDBRANCH  16  19
ENDBRANCH  12  13
ENDBRANCH   6  12
ENDBRANCH   5   6
ENDBRANCH   4   5
ENDBRANCH   3   4
ENDBRANCH   2   3
TORSDOF 8
ENDMDL
MODEL        8
REMARK 921   NORMALIZED FREE ENERGY PREDICTED BY IDOCK:   -6.26 KCAL/MOL
REMARK 922        TOTAL FREE ENERGY PREDICTED BY IDOCK:  -10.13 KCAL/MOL
REMARK 923 INTER-LIGAND FREE ENERGY PREDICTED BY IDOCK:   -8.82 KCAL/MOL
REMARK 924 INTRA-LIGAND FREE ENERGY PREDICTED BY IDOCK:   -1.31 KCAL/MOL
REMARK 927      BINDING AFFINITY PREDICTED BY RF-SCORE:    0.00 PKD
ROOT
HETATM    1  C   UNL     1      -8.253  11.929  67.167  1.00  0.00    -0.171 C  
HETATM    2  C   UNL     1      -7.990  12.938  68.264  1.00  0.00    -0.151 C  
ENDROOT
BRANCH   2   3
HETATM    3  O   UNL     1      -7.003  13.895  67.863  1.00  0.00    -0.123 OA 
BRANCH   3   4
HETATM    4  C   UNL     1      -7.568  15.210  67.931  1.00  0.00    -0.139 C  
BRANCH   4   5
HETATM    5  C   UNL     1      -8.559  15.524  66.800  1.00  0.00    -0.272 C  
BRANCH   5   6
HETATM    6  N   UNL     1      -9.660  16.477  67.059  1.00  0.00    -0.237 N  
HETATM    7 CL   UNL     1     -10.034  19.763  68.311  1.00  0.00    -0.530 Cl 
HETATM    8  C   UNL     1      -9.445  17.792  66.565  1.00  0.00    -0.290 C  
HETATM    9  C   UNL     1     -10.504  18.871  66.844  1.00  0.00    -0.427 C  
HETATM   10 CL   UNL     1     -10.627  19.993  65.465  1.00  0.00    -0.448 Cl 
HETATM   11  O   UNL     1      -8.413  18.076  65.942  1.00  0.00    -0.509 OA 
BRANCH   6  12
HETATM   12  C   UNL     1     -10.648  16.245  68.137  1.00  0.00    -0.307 C  
BRANCH  12  13
HETATM   13  C   UNL     1     -11.211  14.856  68.320  1.00  0.00    -0.306 A  
HETATM   14  C   UNL     1     -11.476  14.345  69.599  1.00  0.00    -0.331 A  
HETATM   15  C   UNL     1     -11.863  13.010  69.761  1.00  0.00    -0.381 A  
HETATM   16  C   UNL     1     -12.027  12.174  68.652  1.00  0.00    -0.237 A  
HETATM   17  C   UNL     1     -11.435  14.029  67.207  1.00  0.00    -0.372 A  
HETATM   18  C   UNL     1     -11.821  12.692  67.373  1.00  0.00    -0.393 A  
BRANCH  16  19
HETATM   19  O   UNL     1     -12.285  10.853  68.952  1.00  0.00    -0.494 OA 
BRANCH  19  20
HETATM   20  C   UNL     1     -11.542  10.190  69.901  1.00  0.00    -0.223 A  
HETATM   21  C   UNL     1     -12.250   9.619  70.965  1.00  0.00    -0.409 A  
HETATM   22  C   UNL     1     -11.578   8.878  71.942  1.00  0.00    -0.442 A  
HETATM   23  C   UNL     1     -10.189   8.712  71.845  1.00  0.00    -0.334 A  
HETATM   24  C   UNL     1      -9.483   9.251  70.760  1.00  0.00    -0.336 A  
HETATM   25  N   UNL     1      -9.469   7.963  72.880  1.00  0.00    -0.228 N  
HETATM   26  C   UNL     1     -10.167   9.971  69.781  1.00  0.00    -0.286 A  
HETATM   27  O   UNL     1     -10.133   7.444  73.786  1.00  0.00    -0.327 OA 
HETATM   28  O   UNL     1      -8.231   7.904  72.794  1.00  0.00    -0.118 OA 
ENDBRANCH  19  20
ENDBRANCH  16  19
ENDBRANCH  12  13
ENDBRANCH   6  12
ENDBRANCH   5   6
ENDBRANCH   4   5
ENDBRANCH   3   4
ENDBRANCH   2   3
TORSDOF 8
ENDMDL
MODEL        9
REMARK 921   NORMALIZED FREE ENERGY PREDICTED BY IDOCK:   -6.17 KCAL/MOL
REMARK 922        TOTAL FREE ENERGY PREDICTED BY IDOCK:   -9.99 KCAL/MOL
REMARK 923 INTER-LIGAND FREE ENERGY PREDICTED BY IDOCK:   -9.05 KCAL/MOL
REMARK 924 INTRA-LIGAND FREE ENERGY PREDICTED BY IDOCK:   -0.94 KCAL/MOL
REMARK 927      BINDING AFFINITY PREDICTED BY RF-SCORE:    0.00 PKD
ROOT
HETATM    1  C   UNL     1      -9.985   8.087  66.722  1.00  0.00    -0.344 C  
HETATM    2  C   UNL     1      -8.872   7.235  67.294  1.00  0.00    -0.124 C  
ENDROOT
BRANCH   2   3
HETATM    3  O   UNL     1      -9.391   6.219  68.161  1.00  0.00    -0.118 OA 
BRANCH   3   4
HETATM    4  C   UNL     1     -10.795   6.435  68.350  1.00  0.00    -0.311 C  
BRANCH   4   5
HETATM    5  C   UNL     1     -11.292   6.112  69.767  1.00  0.00    -0.382 C  
BRANCH   5   6
HETATM    6  N   UNL     1     -10.851   6.968  70.891  1.00  0.00    -0.236 N  
HETATM    7 CL   UNL     1     -10.125   6.599  74.331  1.00  0.00    -0.381 Cl 
HETATM    8  C   UNL     1      -9.778   6.442  71.660  1.00  0.00    -0.160 C  
HETATM    9  C   UNL     1      -9.293   7.229  72.890  1.00  0.00    -0.154 C  
HETATM   10 CL   UNL     1      -7.530   7.058  73.082  1.00  0.00    -0.073 Cl 
HETATM   11  O   UNL     1      -9.254   5.359  71.367  1.00  0.00    -0.143 OA 
BRANCH   6  12
HETATM   12  C   UNL     1     -11.734   8.006  71.466  1.00  0.00    -0.284 C  
BRANCH  12  13
HETATM   13  C   UNL     1     -11.736   9.383  70.848  1.00  0.00    -0.378 A  
HETATM   14  C   UNL     1     -10.812   9.733  69.853  1.00  0.00    -0.306 A  
HETATM   15  C   UNL     1     -10.733  11.051  69.392  1.00  0.00    -0.247 A  
HETATM   16  C   UNL     1     -11.598  12.034  69.886  1.00  0.00    -0.238 A  
HETATM   17  C   UNL     1     -12.640  10.360  71.296  1.00  0.00    -0.525 A  
HETATM   18  C   UNL     1     -12.558  11.681  70.834  1.00  0.00    -0.409 A  
BRANCH  16  19
HETATM   19  O   UNL     1     -11.334  13.314  69.446  1.00  0.00    -0.259 OA 
BRANCH  19  20
HETATM   20  C   UNL     1     -11.597  13.679  68.146  1.00  0.00    -0.332 A  
HETATM   21  C   UNL     1     -11.347  15.014  67.807  1.00  0.00    -0.340 A  
HETATM   22  C   UNL     1     -11.533  15.453  66.493  1.00  0.00    -0.015 A  
HETATM   23  C   UNL     1     -11.971  14.545  65.518  1.00  0.00    -0.312 A  
HETATM   24  C   UNL     1     -12.185  13.199  65.848  1.00  0.00    -0.497 A  
HETATM   25  N   UNL     1     -12.199  15.002  64.144  1.00  0.00    -0.362 N  
HETATM   26  C   UNL     1     -11.977  12.767  67.158  1.00  0.00    -0.351 A  
HETATM   27  O   UNL     1     -11.934  16.180  63.874  1.00  0.00    -0.947 OA 
HETATM   28  O   UNL     1     -12.657  14.181  63.331  1.00  0.00    -0.818 OA 
ENDBRANCH  19  20
ENDBRANCH  16  19
ENDBRANCH  12  13
ENDBRANCH   6  12
ENDBRANCH   5   6
ENDBRANCH   4   5
ENDBRANCH   3   4
ENDBRANCH   2   3
TORSDOF 8
ENDMDL
MODEL       10
REMARK 921   NORMALIZED FREE ENERGY PREDICTED BY IDOCK:   -6.16 KCAL/MOL
REMARK 922        TOTAL FREE ENERGY PREDICTED BY IDOCK:   -9.97 KCAL/MOL
REMARK 923 INTER-LIGAND FREE ENERGY PREDICTED BY IDOCK:   -9.34 KCAL/MOL
REMARK 924 INTRA-LIGAND FREE ENERGY PREDICTED BY IDOCK:   -0.63 KCAL/MOL
REMARK 927      BINDING AFFINITY PREDICTED BY RF-SCORE:    0.00 PKD
ROOT
HETATM    1  C   UNL     1     -11.031   6.477  67.128  1.00  0.00    -0.480 C  
HETATM    2  C   UNL     1     -10.113   5.292  66.915  1.00  0.00    -0.219 C  
ENDROOT
BRANCH   2   3
HETATM    3  O   UNL     1      -8.818   5.532  67.478  1.00  0.00    -0.108 OA 
BRANCH   3   4
HETATM    4  C   UNL     1      -8.857   6.739  68.249  1.00  0.00    -0.125 C  
BRANCH   4   5
HETATM    5  C   UNL     1      -8.237   6.608  69.649  1.00  0.00    -0.127 C  
BRANCH   5   6
HETATM    6  N   UNL     1      -9.040   7.010  70.825  1.00  0.00    -0.153 N  
HETATM    7 CL   UNL     1     -12.456   7.198  71.720  1.00  0.00    -0.378 Cl 
HETATM    8  C   UNL     1     -10.051   6.087  71.205  1.00  0.00    -0.192 C  
HETATM    9  C   UNL     1     -10.982   6.447  72.376  1.00  0.00    -0.250 C  
HETATM   10 CL   UNL     1     -11.405   4.987  73.306  1.00  0.00    -0.405 Cl 
HETATM   11  O   UNL     1     -10.203   5.021  70.594  1.00  0.00    -0.238 OA 
BRANCH   6  12
HETATM   12  C   UNL     1      -9.129   8.423  71.255  1.00  0.00    -0.178 C  
BRANCH  12  13
HETATM   13  C   UNL     1      -9.886   9.401  70.389  1.00  0.00    -0.313 A  
HETATM   14  C   UNL     1     -11.133   9.906  70.786  1.00  0.00    -0.417 A  
HETATM   15  C   UNL     1     -11.885  10.698  69.912  1.00  0.00    -0.392 A  
HETATM   16  C   UNL     1     -11.394  11.031  68.645  1.00  0.00    -0.281 A  
HETATM   17  C   UNL     1      -9.372   9.786  69.140  1.00  0.00    -0.185 A  
HETATM   18  C   UNL     1     -10.129  10.579  68.266  1.00  0.00    -0.180 A  
BRANCH  16  19
HETATM   19  O   UNL     1     -12.282  11.707  67.836  1.00  0.00    -0.560 OA 
BRANCH  19  20
HETATM   20  C   UNL     1     -11.904  12.857  67.183  1.00  0.00    -0.362 A  
HETATM   21  C   UNL     1     -12.381  13.023  65.878  1.00  0.00    -0.432 A  
HETATM   22  C   UNL     1     -12.092  14.190  65.165  1.00  0.00    -0.416 A  
HETATM   23  C   UNL     1     -11.320  15.193  65.770  1.00  0.00    -0.238 A  
HETATM   24  C   UNL     1     -10.873  15.045  67.091  1.00  0.00    -0.314 A  
HETATM   25  N   UNL     1     -10.984  16.407  65.021  1.00  0.00    -0.336 N  
HETATM   26  C   UNL     1     -11.185  13.885  67.799  1.00  0.00    -0.316 A  
HETATM   27  O   UNL     1     -11.452  16.533  63.882  1.00  0.00    -1.145 OA 
HETATM   28  O   UNL     1     -10.236  17.236  65.568  1.00  0.00    -0.602 OA 
ENDBRANCH  19  20
ENDBRANCH  16  19
ENDBRANCH  12  13
ENDBRANCH   6  12
ENDBRANCH   5   6
ENDBRANCH   4   5
ENDBRANCH   3   4
ENDBRANCH   2   3
TORSDOF 8
ENDMDL
MODEL       11
REMARK 921   NORMALIZED FREE ENERGY PREDICTED BY IDOCK:   -6.11 KCAL/MOL
REMARK 922        TOTAL FREE ENERGY PREDICTED BY IDOCK:   -9.90 KCAL/MOL
REMARK 923 INTER-LIGAND FREE ENERGY PREDICTED BY IDOCK:   -8.93 KCAL/MOL
REMARK 924 INTRA-LIGAND FREE ENERGY PREDICTED BY IDOCK:   -0.97 KCAL/MOL
REMARK 927      BINDING AFFINITY PREDICTED BY RF-SCORE:    0.00 PKD
ROOT
HETATM    1  C   UNL     1      -7.299  20.629  67.238  1.00  0.00    -0.394 C  
HETATM    2  C   UNL     1      -8.798  20.416  67.219  1.00  0.00    -0.338 C  
ENDROOT
BRANCH   2   3
HETATM    3  O   UNL     1      -9.228  19.874  65.964  1.00  0.00    -0.381 OA 
BRANCH   3   4
HETATM    4  C   UNL     1     -10.494  19.225  66.142  1.00  0.00    -0.488 C  
BRANCH   4   5
HETATM    5  C   UNL     1     -10.393  17.707  66.355  1.00  0.00    -0.345 C  
BRANCH   5   6
HETATM    6  N   UNL     1      -9.869  17.200  67.642  1.00  0.00    -0.263 N  
HETATM    7 CL   UNL     1      -8.055  14.397  68.804  1.00  0.00    -0.141 Cl 
HETATM    8  C   UNL     1      -8.514  16.773  67.611  1.00  0.00    -0.190 C  
HETATM    9  C   UNL     1      -7.899  16.167  68.884  1.00  0.00    -0.213 C  
HETATM   10 CL   UNL     1      -6.180  16.620  69.020  1.00  0.00    -0.162 Cl 
HETATM   11  O   UNL     1      -7.843  16.859  66.574  1.00  0.00    -0.235 OA 
BRANCH   6  12
HETATM   12  C   UNL     1     -10.772  16.718  68.710  1.00  0.00    -0.341 C  
BRANCH  12  13
HETATM   13  C   UNL     1     -11.292  15.303  68.639  1.00  0.00    -0.327 A  
HETATM   14  C   UNL     1     -11.688  14.617  69.797  1.00  0.00    -0.361 A  
HETATM   15  C   UNL     1     -12.033  13.263  69.734  1.00  0.00    -0.391 A  
HETATM   16  C   UNL     1     -12.025  12.579  68.514  1.00  0.00    -0.219 A  
HETATM   17  C   UNL     1     -11.343  14.627  67.409  1.00  0.00    -0.368 A  
HETATM   18  C   UNL     1     -11.688  13.270  67.349  1.00  0.00    -0.419 A  
BRANCH  16  19
HETATM   19  O   UNL     1     -12.260  11.224  68.606  1.00  0.00    -0.562 OA 
BRANCH  19  20
HETATM   20  C   UNL     1     -11.660  10.471  69.588  1.00  0.00    -0.271 A  
HETATM   21  C   UNL     1     -10.286  10.242  69.451  1.00  0.00    -0.255 A  
HETATM   22  C   UNL     1      -9.588   9.536  70.436  1.00  0.00    -0.326 A  
HETATM   23  C   UNL     1     -10.276   9.060  71.560  1.00  0.00    -0.344 A  
HETATM   24  C   UNL     1     -11.645   9.321  71.718  1.00  0.00    -0.458 A  
HETATM   25  N   UNL     1      -9.561   8.292  72.584  1.00  0.00    -0.276 N  
HETATM   26  C   UNL     1     -12.327  10.044  70.739  1.00  0.00    -0.396 A  
HETATM   27  O   UNL     1      -8.340   8.140  72.445  1.00  0.00    -0.141 OA 
HETATM   28  O   UNL     1     -10.224   7.826  73.526  1.00  0.00    -0.323 OA 
ENDBRANCH  19  20
ENDBRANCH  16  19
ENDBRANCH  12  13
ENDBRANCH   6  12
ENDBRANCH   5   6
ENDBRANCH   4   5
ENDBRANCH   3   4
ENDBRANCH   2   3
TORSDOF 8
ENDMDL
MODEL       12
REMARK 921   NORMALIZED FREE ENERGY PREDICTED BY IDOCK:   -6.09 KCAL/MOL
REMARK 922        TOTAL FREE ENERGY PREDICTED BY IDOCK:   -9.88 KCAL/MOL
REMARK 923 INTER-LIGAND FREE ENERGY PREDICTED BY IDOCK:   -8.83 KCAL/MOL
REMARK 924 INTRA-LIGAND FREE ENERGY PREDICTED BY IDOCK:   -1.05 KCAL/MOL
REMARK 927      BINDING AFFINITY PREDICTED BY RF-SCORE:    0.00 PKD
ROOT
HETATM    1  C   UNL     1      -9.585  20.398  67.471  1.00  0.00    -0.560 C  
HETATM    2  C   UNL     1     -10.400  19.398  66.678  1.00  0.00    -0.457 C  
ENDROOT
BRANCH   2   3
HETATM    3  O   UNL     1     -10.896  18.350  67.519  1.00  0.00    -0.408 OA 
BRANCH   3   4
HETATM    4  C   UNL     1      -9.800  17.530  67.945  1.00  0.00    -0.293 C  
BRANCH   4   5
HETATM    5  C   UNL     1     -10.096  16.692  69.198  1.00  0.00    -0.285 C  
BRANCH   5   6
HETATM    6  N   UNL     1     -11.322  15.864  69.230  1.00  0.00    -0.332 N  
HETATM    7 CL   UNL     1     -12.574  13.115  71.066  1.00  0.00    -0.435 Cl 
HETATM    8  C   UNL     1     -11.878  15.664  70.522  1.00  0.00    -0.373 C  
HETATM    9  C   UNL     1     -13.115  14.762  70.665  1.00  0.00    -0.293 C  
HETATM   10 CL   UNL     1     -14.189  15.378  71.947  1.00  0.00    -0.623 Cl 
HETATM   11  O   UNL     1     -11.365  16.183  71.523  1.00  0.00    -0.358 OA 
BRANCH   6  12
HETATM   12  C   UNL     1     -11.657  14.934  68.129  1.00  0.00    -0.334 C  
BRANCH  12  13
HETATM   13  C   UNL     1     -10.968  13.592  68.076  1.00  0.00    -0.271 A  
HETATM   14  C   UNL     1     -11.695  12.413  67.852  1.00  0.00    -0.421 A  
HETATM   15  C   UNL     1     -11.067  11.166  67.946  1.00  0.00    -0.331 A  
HETATM   16  C   UNL     1      -9.700  11.074  68.229  1.00  0.00    -0.177 A  
HETATM   17  C   UNL     1      -9.585  13.495  68.300  1.00  0.00    -0.218 A  
HETATM   18  C   UNL     1      -8.959  12.244  68.396  1.00  0.00    -0.141 A  
BRANCH  16  19
HETATM   19  O   UNL     1      -9.231   9.791  68.420  1.00  0.00    -0.129 OA 
BRANCH  19  20
HETATM   20  C   UNL     1      -9.634   9.050  69.507  1.00  0.00    -0.165 A  
HETATM   21  C   UNL     1     -10.374   7.893  69.238  1.00  0.00    -0.222 A  
HETATM   22  C   UNL     1     -10.772   7.053  70.283  1.00  0.00    -0.266 A  
HETATM   23  C   UNL     1     -10.422   7.379  71.601  1.00  0.00    -0.197 A  
HETATM   24  C   UNL     1      -9.648   8.518  71.868  1.00  0.00    -0.353 A  
HETATM   25  N   UNL     1     -10.860   6.522  72.706  1.00  0.00    -0.238 N  
HETATM   26  C   UNL     1      -9.239   9.338  70.817  1.00  0.00    -0.316 A  
HETATM   27  O   UNL     1     -11.484   5.490  72.426  1.00  0.00    -0.267 OA 
HETATM   28  O   UNL     1     -10.592   6.889  73.863  1.00  0.00    -0.369 OA 
ENDBRANCH  19  20
ENDBRANCH  16  19
ENDBRANCH  12  13
ENDBRANCH   6  12
ENDBRANCH   5   6
ENDBRANCH   4   5
ENDBRANCH   3   4
ENDBRANCH   2   3
TORSDOF 8
ENDMDL
MODEL       13
REMARK 921   NORMALIZED FREE ENERGY PREDICTED BY IDOCK:   -6.09 KCAL/MOL
REMARK 922        TOTAL FREE ENERGY PREDICTED BY IDOCK:   -9.87 KCAL/MOL
REMARK 923 INTER-LIGAND FREE ENERGY PREDICTED BY IDOCK:   -8.25 KCAL/MOL
REMARK 924 INTRA-LIGAND FREE ENERGY PREDICTED BY IDOCK:   -1.62 KCAL/MOL
REMARK 927      BINDING AFFINITY PREDICTED BY RF-SCORE:    0.00 PKD
ROOT
HETATM    1  C   UNL     1      -9.692  10.103  64.806  1.00  0.00    -0.389 C  
HETATM    2  C   UNL     1      -9.781   9.040  65.881  1.00  0.00    -0.236 C  
ENDROOT
BRANCH   2   3
HETATM    3  O   UNL     1      -8.494   8.473  66.155  1.00  0.00    -0.118 OA 
BRANCH   3   4
HETATM    4  C   UNL     1      -8.388   8.206  67.559  1.00  0.00    -0.123 C  
BRANCH   4   5
HETATM    5  C   UNL     1      -9.739   8.155  68.290  1.00  0.00    -0.161 C  
BRANCH   5   6
HETATM    6  N   UNL     1      -9.870   8.838  69.596  1.00  0.00    -0.179 N  
HETATM    7 CL   UNL     1     -12.472   9.959  71.710  1.00  0.00    -0.484 Cl 
HETATM    8  C   UNL     1     -10.787   8.235  70.498  1.00  0.00    -0.232 C  
HETATM    9  C   UNL     1     -11.042   8.911  71.856  1.00  0.00    -0.372 C  
HETATM   10 CL   UNL     1     -11.315   7.683  73.120  1.00  0.00    -0.350 Cl 
HETATM   11  O   UNL     1     -11.393   7.199  70.193  1.00  0.00    -0.277 OA 
BRANCH   6  12
HETATM   12  C   UNL     1      -9.484  10.255  69.770  1.00  0.00    -0.091 C  
BRANCH  12  13
HETATM   13  C   UNL     1      -9.944  11.266  68.746  1.00  0.00    -0.203 A  
HETATM   14  C   UNL     1      -9.021  12.027  68.014  1.00  0.00    -0.187 A  
HETATM   15  C   UNL     1      -9.460  13.056  67.175  1.00  0.00    -0.230 A  
HETATM   16  C   UNL     1     -10.826  13.320  67.022  1.00  0.00    -0.269 A  
HETATM   17  C   UNL     1     -11.314  11.496  68.543  1.00  0.00    -0.337 A  
HETATM   18  C   UNL     1     -11.752  12.529  67.703  1.00  0.00    -0.423 A  
BRANCH  16  19
HETATM   19  O   UNL     1     -11.121  14.437  66.269  1.00  0.00    -0.319 OA 
BRANCH  19  20
HETATM   20  C   UNL     1     -10.841  15.698  66.742  1.00  0.00    -0.277 A  
HETATM   21  C   UNL     1     -10.528  16.672  65.787  1.00  0.00    -0.324 A  
HETATM   22  C   UNL     1     -10.288  17.992  66.178  1.00  0.00    -0.368 A  
HETATM   23  C   UNL     1     -10.364  18.332  67.536  1.00  0.00    -0.398 A  
HETATM   24  C   UNL     1     -10.715  17.367  68.491  1.00  0.00    -0.279 A  
HETATM   25  N   UNL     1     -10.084  19.707  67.962  1.00  0.00    -0.412 N  
HETATM   26  C   UNL     1     -10.973  16.057  68.087  1.00  0.00    -0.339 A  
HETATM   27  O   UNL     1      -9.844  20.546  67.085  1.00  0.00    -0.454 OA 
HETATM   28  O   UNL     1     -10.090  19.947  69.181  1.00  0.00    -0.418 OA 
ENDBRANCH  19  20
ENDBRANCH  16  19
ENDBRANCH  12  13
ENDBRANCH   6  12
ENDBRANCH   5   6
ENDBRANCH   4   5
ENDBRANCH   3   4
ENDBRANCH   2   3
TORSDOF 8
ENDMDL
MODEL       14
REMARK 921   NORMALIZED FREE ENERGY PREDICTED BY IDOCK:   -6.06 KCAL/MOL
REMARK 922        TOTAL FREE ENERGY PREDICTED BY IDOCK:   -9.83 KCAL/MOL
REMARK 923 INTER-LIGAND FREE ENERGY PREDICTED BY IDOCK:   -8.85 KCAL/MOL
REMARK 924 INTRA-LIGAND FREE ENERGY PREDICTED BY IDOCK:   -0.98 KCAL/MOL
REMARK 927      BINDING AFFINITY PREDICTED BY RF-SCORE:    0.00 PKD
ROOT
HETATM    1  C   UNL     1     -13.173  15.856  73.263  1.00  0.00    -0.698 C  
HETATM    2  C   UNL     1     -14.201  15.575  72.188  1.00  0.00    -0.522 C  
ENDROOT
BRANCH   2   3
HETATM    3  O   UNL     1     -13.590  15.491  70.895  1.00  0.00    -0.520 OA 
BRANCH   3   4
HETATM    4  C   UNL     1     -13.029  14.183  70.725  1.00  0.00    -0.271 C  
BRANCH   4   5
HETATM    5  C   UNL     1     -11.641  14.179  70.066  1.00  0.00    -0.248 C  
BRANCH   5   6
HETATM    6  N   UNL     1     -11.479  13.529  68.747  1.00  0.00    -0.287 N  
HETATM    7 CL   UNL     1     -12.919  13.755  65.525  1.00  0.00    -0.467 Cl 
HETATM    8  C   UNL     1     -11.388  14.422  67.645  1.00  0.00    -0.329 C  
HETATM    9  C   UNL     1     -11.285  13.839  66.225  1.00  0.00    -0.306 C  
HETATM   10 CL   UNL     1     -10.240  14.863  65.208  1.00  0.00    -0.398 Cl 
HETATM   11  O   UNL     1     -11.417  15.648  67.815  1.00  0.00    -0.307 OA 
BRANCH   6  12
HETATM   12  C   UNL     1     -11.868  12.119  68.526  1.00  0.00    -0.310 C  
BRANCH  12  13
HETATM   13  C   UNL     1     -11.306  11.057  69.439  1.00  0.00    -0.352 A  
HETATM   14  C   UNL     1     -12.026  10.603  70.553  1.00  0.00    -0.446 A  
HETATM   15  C   UNL     1     -11.436   9.725  71.468  1.00  0.00    -0.393 A  
HETATM   16  C   UNL     1     -10.133   9.256  71.270  1.00  0.00    -0.291 A  
HETATM   17  C   UNL     1     -10.021  10.537  69.214  1.00  0.00    -0.233 A  
HETATM   18  C   UNL     1      -9.431   9.658  70.133  1.00  0.00    -0.298 A  
BRANCH  16  19
HETATM   19  O   UNL     1      -9.623   8.501  72.305  1.00  0.00    -0.275 OA 
BRANCH  19  20
HETATM   20  C   UNL     1      -9.813   7.139  72.342  1.00  0.00    -0.150 A  
HETATM   21  C   UNL     1     -10.563   6.639  73.413  1.00  0.00    -0.333 A  
HETATM   22  C   UNL     1     -10.852   5.274  73.494  1.00  0.00    -0.358 A  
HETATM   23  C   UNL     1     -10.385   4.410  72.493  1.00  0.00    -0.188 A  
HETATM   24  C   UNL     1      -9.666   4.914  71.400  1.00  0.00    -0.237 A  
HETATM   25  N   UNL     1     -10.655   2.972  72.584  1.00  0.00    -0.092 N  
HETATM   26  C   UNL     1      -9.401   6.281  71.318  1.00  0.00    -0.164 A  
HETATM   27  O   UNL     1     -11.350   2.573  73.527  1.00  0.00    -0.216 OA 
HETATM   28  O   UNL     1     -10.159   2.235  71.715  1.00  0.00    -0.164 OA 
ENDBRANCH  19  20
ENDBRANCH  16  19
ENDBRANCH  12  13
ENDBRANCH   6  12
ENDBRANCH   5   6
ENDBRANCH   4   5
ENDBRANCH   3   4
ENDBRANCH   2   3
TORSDOF 8
ENDMDL
MODEL       15
REMARK 921   NORMALIZED FREE ENERGY PREDICTED BY IDOCK:   -6.04 KCAL/MOL
REMARK 922        TOTAL FREE ENERGY PREDICTED BY IDOCK:   -9.80 KCAL/MOL
REMARK 923 INTER-LIGAND FREE ENERGY PREDICTED BY IDOCK:   -8.79 KCAL/MOL
REMARK 924 INTRA-LIGAND FREE ENERGY PREDICTED BY IDOCK:   -1.02 KCAL/MOL
REMARK 927      BINDING AFFINITY PREDICTED BY RF-SCORE:    0.00 PKD
ROOT
HETATM    1  C   UNL     1     -10.520  20.022  66.273  1.00  0.00    -0.536 C  
HETATM    2  C   UNL     1      -9.866  18.715  66.667  1.00  0.00    -0.354 C  
ENDROOT
BRANCH   2   3
HETATM    3  O   UNL     1     -10.750  17.911  67.456  1.00  0.00    -0.389 OA 
BRANCH   3   4
HETATM    4  C   UNL     1      -9.998  17.260  68.489  1.00  0.00    -0.320 C  
BRANCH   4   5
HETATM    5  C   UNL     1      -9.516  15.850  68.117  1.00  0.00    -0.203 C  
BRANCH   5   6
HETATM    6  N   UNL     1     -10.461  14.924  67.453  1.00  0.00    -0.252 N  
HETATM    7 CL   UNL     1     -12.371  14.827  64.479  1.00  0.00    -0.453 Cl 
HETATM    8  C   UNL     1     -10.201  14.687  66.076  1.00  0.00    -0.311 C  
HETATM    9  C   UNL     1     -11.168  13.792  65.283  1.00  0.00    -0.307 C  
HETATM   10 CL   UNL     1     -10.277  12.839  64.068  1.00  0.00    -0.389 Cl 
HETATM   11  O   UNL     1      -9.230  15.210  65.513  1.00  0.00    -0.107 OA 
BRANCH   6  12
HETATM   12  C   UNL     1     -11.808  14.665  68.006  1.00  0.00    -0.311 C  
BRANCH  12  13
HETATM   13  C   UNL     1     -12.012  13.458  68.890  1.00  0.00    -0.362 A  
HETATM   14  C   UNL     1     -12.401  13.599  70.231  1.00  0.00    -0.392 A  
HETATM   15  C   UNL     1     -12.448  12.484  71.074  1.00  0.00    -0.353 A  
HETATM   16  C   UNL     1     -12.145  11.207  70.589  1.00  0.00    -0.379 A  
HETATM   17  C   UNL     1     -11.766  12.167  68.395  1.00  0.00    -0.388 A  
HETATM   18  C   UNL     1     -11.813  11.052  69.243  1.00  0.00    -0.411 A  
BRANCH  16  19
HETATM   19  O   UNL     1     -12.104  10.216  71.547  1.00  0.00    -0.377 OA 
BRANCH  19  20
HETATM   20  C   UNL     1     -11.510   9.004  71.280  1.00  0.00    -0.320 A  
HETATM   21  C   UNL     1     -10.119   8.942  71.427  1.00  0.00    -0.379 A  
HETATM   22  C   UNL     1      -9.444   7.733  71.232  1.00  0.00    -0.173 A  
HETATM   23  C   UNL     1     -10.172   6.585  70.890  1.00  0.00    -0.190 A  
HETATM   24  C   UNL     1     -11.569   6.637  70.780  1.00  0.00    -0.432 A  
HETATM   25  N   UNL     1      -9.471   5.319  70.652  1.00  0.00    -0.161 N  
HETATM   26  C   UNL     1     -12.234   7.843  70.996  1.00  0.00    -0.214 A  
HETATM   27  O   UNL     1      -8.246   5.295  70.825  1.00  0.00    -0.105 OA 
HETATM   28  O   UNL     1     -10.147   4.346  70.279  1.00  0.00    -0.218 OA 
ENDBRANCH  19  20
ENDBRANCH  16  19
ENDBRANCH  12  13
ENDBRANCH   6  12
ENDBRANCH   5   6
ENDBRANCH   4   5
ENDBRANCH   3   4
ENDBRANCH   2   3
TORSDOF 8
ENDMDL
MODEL       16
REMARK 921   NORMALIZED FREE ENERGY PREDICTED BY IDOCK:   -6.04 KCAL/MOL
REMARK 922        TOTAL FREE ENERGY PREDICTED BY IDOCK:   -9.79 KCAL/MOL
REMARK 923 INTER-LIGAND FREE ENERGY PREDICTED BY IDOCK:   -8.72 KCAL/MOL
REMARK 924 INTRA-LIGAND FREE ENERGY PREDICTED BY IDOCK:   -1.08 KCAL/MOL
REMARK 927      BINDING AFFINITY PREDICTED BY RF-SCORE:    0.00 PKD
ROOT
HETATM    1  C   UNL     1     -12.344  11.964  63.384  1.00  0.00    -0.577 C  
HETATM    2  C   UNL     1     -12.491  12.440  64.814  1.00  0.00    -0.401 C  
ENDROOT
BRANCH   2   3
HETATM    3  O   UNL     1     -12.968  13.790  64.864  1.00  0.00    -0.712 OA 
BRANCH   3   4
HETATM    4  C   UNL     1     -11.957  14.665  64.348  1.00  0.00    -0.437 C  
BRANCH   4   5
HETATM    5  C   UNL     1     -10.786  14.905  65.313  1.00  0.00    -0.386 C  
BRANCH   5   6
HETATM    6  N   UNL     1     -11.018  15.719  66.527  1.00  0.00    -0.230 N  
HETATM    7 CL   UNL     1      -9.081  17.494  68.893  1.00  0.00    -0.205 Cl 
HETATM    8  C   UNL     1     -10.324  16.959  66.559  1.00  0.00    -0.299 C  
HETATM    9  C   UNL     1     -10.449  17.844  67.810  1.00  0.00    -0.400 C  
HETATM   10 CL   UNL     1     -10.437  19.568  67.356  1.00  0.00    -0.559 Cl 
HETATM   11  O   UNL     1      -9.611  17.314  65.612  1.00  0.00    -0.527 OA 
BRANCH   6  12
HETATM   12  C   UNL     1     -11.505  15.111  67.785  1.00  0.00    -0.318 C  
BRANCH  12  13
HETATM   13  C   UNL     1     -10.998  13.744  68.176  1.00  0.00    -0.265 A  
HETATM   14  C   UNL     1      -9.625  13.493  68.320  1.00  0.00    -0.218 A  
HETATM   15  C   UNL     1      -9.163  12.192  68.543  1.00  0.00    -0.100 A  
HETATM   16  C   UNL     1     -10.060  11.125  68.664  1.00  0.00    -0.200 A  
HETATM   17  C   UNL     1     -11.896  12.680  68.357  1.00  0.00    -0.347 A  
HETATM   18  C   UNL     1     -11.430  11.376  68.579  1.00  0.00    -0.361 A  
BRANCH  16  19
HETATM   19  O   UNL     1      -9.475   9.880  68.754  1.00  0.00    -0.148 OA 
BRANCH  19  20
HETATM   20  C   UNL     1      -9.665   9.093  69.866  1.00  0.00    -0.191 A  
HETATM   21  C   UNL     1     -10.812   8.290  69.877  1.00  0.00    -0.213 A  
HETATM   22  C   UNL     1     -11.051   7.417  70.942  1.00  0.00    -0.283 A  
HETATM   23  C   UNL     1     -10.131   7.351  71.998  1.00  0.00    -0.182 A  
HETATM   24  C   UNL     1      -8.962   8.126  71.970  1.00  0.00    -0.236 A  
HETATM   25  N   UNL     1     -10.386   6.462  73.136  1.00  0.00    -0.211 N  
HETATM   26  C   UNL     1      -8.724   8.979  70.893  1.00  0.00    -0.280 A  
HETATM   27  O   UNL     1     -11.393   5.744  73.093  1.00  0.00    -0.246 OA 
HETATM   28  O   UNL     1      -9.583   6.491  74.083  1.00  0.00    -0.187 OA 
ENDBRANCH  19  20
ENDBRANCH  16  19
ENDBRANCH  12  13
ENDBRANCH   6  12
ENDBRANCH   5   6
ENDBRANCH   4   5
ENDBRANCH   3   4
ENDBRANCH   2   3
TORSDOF 8
ENDMDL
MODEL       17
REMARK 921   NORMALIZED FREE ENERGY PREDICTED BY IDOCK:   -6.04 KCAL/MOL
REMARK 922        TOTAL FREE ENERGY PREDICTED BY IDOCK:   -9.79 KCAL/MOL
REMARK 923 INTER-LIGAND FREE ENERGY PREDICTED BY IDOCK:   -8.18 KCAL/MOL
REMARK 924 INTRA-LIGAND FREE ENERGY PREDICTED BY IDOCK:   -1.62 KCAL/MOL
REMARK 927      BINDING AFFINITY PREDICTED BY RF-SCORE:    0.00 PKD
ROOT
HETATM    1  C   UNL     1      -9.916  10.376  65.011  1.00  0.00    -0.399 C  
HETATM    2  C   UNL     1      -9.972   9.230  65.998  1.00  0.00    -0.255 C  
ENDROOT
BRANCH   2   3
HETATM    3  O   UNL     1      -8.658   8.748  66.308  1.00  0.00    -0.120 OA 
BRANCH   3   4
HETATM    4  C   UNL     1      -8.742   7.823  67.399  1.00  0.00    -0.128 C  
BRANCH   4   5
HETATM    5  C   UNL     1     -10.091   7.844  68.134  1.00  0.00    -0.191 C  
BRANCH   5   6
HETATM    6  N   UNL     1     -10.118   8.212  69.567  1.00  0.00    -0.189 N  
HETATM    7 CL   UNL     1     -12.543   8.900  72.045  1.00  0.00    -0.426 Cl 
HETATM    8  C   UNL     1     -11.010   7.448  70.366  1.00  0.00    -0.251 C  
HETATM    9  C   UNL     1     -11.157   7.801  71.856  1.00  0.00    -0.257 C  
HETATM   10 CL   UNL     1     -11.416   6.325  72.821  1.00  0.00    -0.247 Cl 
HETATM   11  O   UNL     1     -11.679   6.530  69.873  1.00  0.00    -0.406 OA 
BRANCH   6  12
HETATM   12  C   UNL     1      -9.657   9.538  70.034  1.00  0.00    -0.238 C  
BRANCH  12  13
HETATM   13  C   UNL     1     -10.047  10.764  69.243  1.00  0.00    -0.200 A  
HETATM   14  C   UNL     1     -11.392  11.136  69.099  1.00  0.00    -0.340 A  
HETATM   15  C   UNL     1     -11.747  12.188  68.249  1.00  0.00    -0.401 A  
HETATM   16  C   UNL     1     -10.769  12.911  67.558  1.00  0.00    -0.226 A  
HETATM   17  C   UNL     1      -9.066  11.530  68.594  1.00  0.00    -0.124 A  
HETATM   18  C   UNL     1      -9.425  12.584  67.742  1.00  0.00    -0.197 A  
BRANCH  16  19
HETATM   19  O   UNL     1     -11.256  13.836  66.658  1.00  0.00    -0.306 OA 
BRANCH  19  20
HETATM   20  C   UNL     1     -11.002  15.177  66.822  1.00  0.00    -0.321 A  
HETATM   21  C   UNL     1     -11.170  15.695  68.112  1.00  0.00    -0.345 A  
HETATM   22  C   UNL     1     -10.877  17.036  68.376  1.00  0.00    -0.333 A  
HETATM   23  C   UNL     1     -10.413  17.857  67.339  1.00  0.00    -0.383 A  
HETATM   24  C   UNL     1     -10.208  17.331  66.055  1.00  0.00    -0.314 A  
HETATM   25  N   UNL     1     -10.132  19.273  67.598  1.00  0.00    -0.363 N  
HETATM   26  C   UNL     1     -10.484  15.987  65.807  1.00  0.00    -0.391 A  
HETATM   27  O   UNL     1     -10.259  19.685  68.758  1.00  0.00    -0.437 OA 
HETATM   28  O   UNL     1      -9.794  19.980  66.634  1.00  0.00    -0.391 OA 
ENDBRANCH  19  20
ENDBRANCH  16  19
ENDBRANCH  12  13
ENDBRANCH   6  12
ENDBRANCH   5   6
ENDBRANCH   4   5
ENDBRANCH   3   4
ENDBRANCH   2   3
TORSDOF 8
ENDMDL
MODEL       18
REMARK 921   NORMALIZED FREE ENERGY PREDICTED BY IDOCK:   -5.94 KCAL/MOL
REMARK 922        TOTAL FREE ENERGY PREDICTED BY IDOCK:   -9.65 KCAL/MOL
REMARK 923 INTER-LIGAND FREE ENERGY PREDICTED BY IDOCK:   -7.77 KCAL/MOL
REMARK 924 INTRA-LIGAND FREE ENERGY PREDICTED BY IDOCK:   -1.88 KCAL/MOL
REMARK 927      BINDING AFFINITY PREDICTED BY RF-SCORE:    0.00 PKD
ROOT
HETATM    1  C   UNL     1      -8.176  13.516  68.172  1.00  0.00    -0.162 C  
HETATM    2  C   UNL     1      -7.535  12.148  68.065  1.00  0.00    -0.116 C  
ENDROOT
BRANCH   2   3
HETATM    3  O   UNL     1      -7.342  11.564  69.359  1.00  0.00    -0.065 OA 
BRANCH   3   4
HETATM    4  C   UNL     1      -7.317  10.137  69.231  1.00  0.00    -0.098 C  
BRANCH   4   5
HETATM    5  C   UNL     1      -8.123   9.399  70.311  1.00  0.00    -0.164 C  
BRANCH   5   6
HETATM    6  N   UNL     1      -9.583   9.242  70.129  1.00  0.00    -0.204 N  
HETATM    7 CL   UNL     1     -12.011   6.703  70.532  1.00  0.00    -0.440 Cl 
HETATM    8  C   UNL     1     -10.262   8.639  71.222  1.00  0.00    -0.239 C  
HETATM    9  C   UNL     1     -11.772   8.372  71.100  1.00  0.00    -0.280 C  
HETATM   10 CL   UNL     1     -12.573   8.598  72.676  1.00  0.00    -0.372 Cl 
HETATM   11  O   UNL     1      -9.652   8.308  72.247  1.00  0.00    -0.227 OA 
BRANCH   6  12
HETATM   12  C   UNL     1     -10.200   9.242  68.784  1.00  0.00    -0.205 C  
BRANCH  12  13
HETATM   13  C   UNL     1     -10.800  10.524  68.260  1.00  0.00    -0.293 A  
HETATM   14  C   UNL     1     -10.812  10.811  66.887  1.00  0.00    -0.288 A  
HETATM   15  C   UNL     1     -11.241  12.061  66.429  1.00  0.00    -0.389 A  
HETATM   16  C   UNL     1     -11.699  13.032  67.325  1.00  0.00    -0.375 A  
HETATM   17  C   UNL     1     -11.317  11.481  69.149  1.00  0.00    -0.351 A  
HETATM   18  C   UNL     1     -11.745  12.733  68.687  1.00  0.00    -0.360 A  
BRANCH  16  19
HETATM   19  O   UNL     1     -11.972  14.261  66.761  1.00  0.00    -0.414 OA 
BRANCH  19  20
HETATM   20  C   UNL     1     -11.141  15.335  66.980  1.00  0.00    -0.305 A  
HETATM   21  C   UNL     1     -10.288  15.693  65.930  1.00  0.00    -0.368 A  
HETATM   22  C   UNL     1      -9.453  16.808  66.049  1.00  0.00    -0.257 A  
HETATM   23  C   UNL     1      -9.478  17.565  67.229  1.00  0.00    -0.253 A  
HETATM   24  C   UNL     1     -10.359  17.230  68.267  1.00  0.00    -0.361 A  
HETATM   25  N   UNL     1      -8.585  18.717  67.377  1.00  0.00    -0.271 N  
HETATM   26  C   UNL     1     -11.203  16.128  68.130  1.00  0.00    -0.311 A  
HETATM   27  O   UNL     1      -7.870  19.023  66.414  1.00  0.00    -0.258 OA 
HETATM   28  O   UNL     1      -8.587  19.314  68.467  1.00  0.00    -0.345 OA 
ENDBRANCH  19  20
ENDBRANCH  16  19
ENDBRANCH  12  13
ENDBRANCH   6  12
ENDBRANCH   5   6
ENDBRANCH   4   5
ENDBRANCH   3   4
ENDBRANCH   2   3
TORSDOF 8
ENDMDL
MODEL       19
REMARK 921   NORMALIZED FREE ENERGY PREDICTED BY IDOCK:   -5.93 KCAL/MOL
REMARK 922        TOTAL FREE ENERGY PREDICTED BY IDOCK:   -9.64 KCAL/MOL
REMARK 923 INTER-LIGAND FREE ENERGY PREDICTED BY IDOCK:   -8.54 KCAL/MOL
REMARK 924 INTRA-LIGAND FREE ENERGY PREDICTED BY IDOCK:   -1.10 KCAL/MOL
REMARK 927      BINDING AFFINITY PREDICTED BY RF-SCORE:    0.00 PKD
ROOT
HETATM    1  C   UNL     1     -11.507   6.414  69.978  1.00  0.00    -0.496 C  
HETATM    2  C   UNL     1     -12.516   6.839  71.023  1.00  0.00    -0.263 C  
ENDROOT
BRANCH   2   3
HETATM    3  O   UNL     1     -11.954   7.797  71.927  1.00  0.00    -0.280 OA 
BRANCH   3   4
HETATM    4  C   UNL     1     -12.727   9.002  71.876  1.00  0.00    -0.382 C  
BRANCH   4   5
HETATM    5  C   UNL     1     -11.945  10.226  71.375  1.00  0.00    -0.327 C  
BRANCH   5   6
HETATM    6  N   UNL     1     -11.322  10.174  70.034  1.00  0.00    -0.270 N  
HETATM    7 CL   UNL     1      -8.395  11.383  68.462  1.00  0.00    -0.152 Cl 
HETATM    8  C   UNL     1      -9.945   9.823  70.025  1.00  0.00    -0.254 C  
HETATM    9  C   UNL     1      -9.193   9.808  68.684  1.00  0.00    -0.137 C  
HETATM   10 CL   UNL     1      -7.978   8.503  68.667  1.00  0.00    -0.114 Cl 
HETATM   11  O   UNL     1      -9.349   9.558  71.078  1.00  0.00    -0.201 OA 
BRANCH   6  12
HETATM   12  C   UNL     1     -11.911  10.887  68.879  1.00  0.00    -0.270 C  
BRANCH  12  13
HETATM   13  C   UNL     1     -11.701  12.377  68.760  1.00  0.00    -0.379 A  
HETATM   14  C   UNL     1     -11.802  13.216  69.880  1.00  0.00    -0.378 A  
HETATM   15  C   UNL     1     -11.747  14.605  69.731  1.00  0.00    -0.361 A  
HETATM   16  C   UNL     1     -11.552  15.182  68.471  1.00  0.00    -0.335 A  
HETATM   17  C   UNL     1     -11.447  12.960  67.507  1.00  0.00    -0.386 A  
HETATM   18  C   UNL     1     -11.393  14.352  67.361  1.00  0.00    -0.353 A  
BRANCH  16  19
HETATM   19  O   UNL     1     -11.644  16.558  68.441  1.00  0.00    -0.231 OA 
BRANCH  19  20
HETATM   20  C   UNL     1     -10.529  17.332  68.219  1.00  0.00    -0.385 A  
HETATM   21  C   UNL     1     -10.747  18.609  67.689  1.00  0.00    -0.428 A  
HETATM   22  C   UNL     1      -9.674  19.481  67.488  1.00  0.00    -0.456 A  
HETATM   23  C   UNL     1      -8.377  19.066  67.823  1.00  0.00    -0.288 A  
HETATM   24  C   UNL     1      -8.161  17.802  68.390  1.00  0.00    -0.297 A  
HETATM   25  N   UNL     1      -7.240  19.961  67.587  1.00  0.00    -0.267 N  
HETATM   26  C   UNL     1      -9.242  16.948  68.605  1.00  0.00    -0.265 A  
HETATM   27  O   UNL     1      -7.476  21.094  67.148  1.00  0.00    -0.380 OA 
HETATM   28  O   UNL     1      -6.102  19.525  67.830  1.00  0.00    -0.201 OA 
ENDBRANCH  19  20
ENDBRANCH  16  19
ENDBRANCH  12  13
ENDBRANCH   6  12
ENDBRANCH   5   6
ENDBRANCH   4   5
ENDBRANCH   3   4
ENDBRANCH   2   3
TORSDOF 8
ENDMDL
MODEL       20
REMARK 921   NORMALIZED FREE ENERGY PREDICTED BY IDOCK:   -5.93 KCAL/MOL
REMARK 922        TOTAL FREE ENERGY PREDICTED BY IDOCK:   -9.64 KCAL/MOL
REMARK 923 INTER-LIGAND FREE ENERGY PREDICTED BY IDOCK:   -8.63 KCAL/MOL
REMARK 924 INTRA-LIGAND FREE ENERGY PREDICTED BY IDOCK:   -1.01 KCAL/MOL
REMARK 927      BINDING AFFINITY PREDICTED BY RF-SCORE:    0.00 PKD
ROOT
HETATM    1  C   UNL     1     -13.844  13.688  72.283  1.00  0.00    -0.689 C  
HETATM    2  C   UNL     1     -14.362  14.893  71.526  1.00  0.00    -0.539 C  
ENDROOT
BRANCH   2   3
HETATM    3  O   UNL     1     -13.315  15.838  71.277  1.00  0.00    -0.532 OA 
BRANCH   3   4
HETATM    4  C   UNL     1     -12.063  15.144  71.203  1.00  0.00    -0.333 C  
BRANCH   4   5
HETATM    5  C   UNL     1     -11.283  15.398  69.904  1.00  0.00    -0.299 C  
BRANCH   5   6
HETATM    6  N   UNL     1     -11.386  14.412  68.805  1.00  0.00    -0.257 N  
HETATM    7 CL   UNL     1     -12.907  14.195  65.621  1.00  0.00    -0.501 Cl 
HETATM    8  C   UNL     1     -11.124  14.931  67.508  1.00  0.00    -0.317 C  
HETATM    9  C   UNL     1     -11.272  13.998  66.294  1.00  0.00    -0.320 C  
HETATM   10 CL   UNL     1     -10.053  14.392  65.055  1.00  0.00    -0.389 Cl 
HETATM   11  O   UNL     1     -10.808  16.117  67.348  1.00  0.00    -0.322 OA 
BRANCH   6  12
HETATM   12  C   UNL     1     -12.157  13.159  68.959  1.00  0.00    -0.198 C  
BRANCH  12  13
HETATM   13  C   UNL     1     -11.448  11.927  69.467  1.00  0.00    -0.357 A  
HETATM   14  C   UNL     1     -10.213  11.529  68.933  1.00  0.00    -0.166 A  
HETATM   15  C   UNL     1      -9.638  10.312  69.311  1.00  0.00    -0.239 A  
HETATM   16  C   UNL     1     -10.263   9.488  70.254  1.00  0.00    -0.260 A  
HETATM   17  C   UNL     1     -12.040  11.124  70.455  1.00  0.00    -0.474 A  
HETATM   18  C   UNL     1     -11.462   9.904  70.832  1.00  0.00    -0.456 A  
BRANCH  16  19
HETATM   19  O   UNL     1      -9.661   8.262  70.444  1.00  0.00    -0.166 OA 
BRANCH  19  20
HETATM   20  C   UNL     1      -9.710   7.295  69.468  1.00  0.00    -0.158 A  
HETATM   21  C   UNL     1      -9.156   6.050  69.789  1.00  0.00    -0.145 A  
HETATM   22  C   UNL     1      -9.217   4.994  68.874  1.00  0.00    -0.155 A  
HETATM   23  C   UNL     1      -9.839   5.193  67.633  1.00  0.00    -0.160 A  
HETATM   24  C   UNL     1     -10.429   6.428  67.325  1.00  0.00    -0.326 A  
HETATM   25  N   UNL     1      -9.882   4.103  66.654  1.00  0.00    -0.216 N  
HETATM   26  C   UNL     1     -10.380   7.467  68.253  1.00  0.00    -0.233 A  
HETATM   27  O   UNL     1      -9.412   3.008  66.987  1.00  0.00    -0.163 OA 
HETATM   28  O   UNL     1     -10.377   4.345  65.541  1.00  0.00    -0.254 OA 
ENDBRANCH  19  20
ENDBRANCH  16  19
ENDBRANCH  12  13
ENDBRANCH   6  12
ENDBRANCH   5   6
ENDBRANCH   4   5
ENDBRANCH   3   4
ENDBRANCH   2   3
TORSDOF 8
ENDMDL
MODEL       21
REMARK 921   NORMALIZED FREE ENERGY PREDICTED BY IDOCK:   -5.92 KCAL/MOL
REMARK 922        TOTAL FREE ENERGY PREDICTED BY IDOCK:   -9.62 KCAL/MOL
REMARK 923 INTER-LIGAND FREE ENERGY PREDICTED BY IDOCK:   -8.39 KCAL/MOL
REMARK 924 INTRA-LIGAND FREE ENERGY PREDICTED BY IDOCK:   -1.23 KCAL/MOL
REMARK 927      BINDING AFFINITY PREDICTED BY RF-SCORE:    0.00 PKD
ROOT
HETATM    1  C   UNL     1     -10.878   5.854  66.599  1.00  0.00    -0.292 C  
HETATM    2  C   UNL     1     -10.753   6.983  67.600  1.00  0.00    -0.261 C  
ENDROOT
BRANCH   2   3
HETATM    3  O   UNL     1     -10.181   6.524  68.830  1.00  0.00    -0.162 OA 
BRANCH   3   4
HETATM    4  C   UNL     1     -11.234   6.135  69.722  1.00  0.00    -0.423 C  
BRANCH   4   5
HETATM    5  C   UNL     1     -10.845   6.184  71.207  1.00  0.00    -0.266 C  
BRANCH   5   6
HETATM    6  N   UNL     1      -9.979   7.286  71.682  1.00  0.00    -0.180 N  
HETATM    7 CL   UNL     1      -8.010   8.024  74.525  1.00  0.00    -0.281 Cl 
HETATM    8  C   UNL     1      -8.713   6.879  72.184  1.00  0.00    -0.127 C  
HETATM    9  C   UNL     1      -7.769   7.947  72.763  1.00  0.00    -0.116 C  
HETATM   10 CL   UNL     1      -6.072   7.539  72.400  1.00  0.00    -0.040 Cl 
HETATM   11  O   UNL     1      -8.380   5.687  72.183  1.00  0.00    -0.114 OA 
BRANCH   6  12
HETATM   12  C   UNL     1     -10.538   8.601  72.064  1.00  0.00    -0.351 C  
BRANCH  12  13
HETATM   13  C   UNL     1     -10.881   9.589  70.976  1.00  0.00    -0.423 A  
HETATM   14  C   UNL     1     -12.116  10.254  70.963  1.00  0.00    -0.487 A  
HETATM   15  C   UNL     1     -12.476  11.057  69.875  1.00  0.00    -0.286 A  
HETATM   16  C   UNL     1     -11.599  11.241  68.801  1.00  0.00    -0.316 A  
HETATM   17  C   UNL     1      -9.982   9.825  69.923  1.00  0.00    -0.282 A  
HETATM   18  C   UNL     1     -10.346  10.629  68.834  1.00  0.00    -0.225 A  
BRANCH  16  19
HETATM   19  O   UNL     1     -12.121  11.948  67.739  1.00  0.00    -0.564 OA 
BRANCH  19  20
HETATM   20  C   UNL     1     -11.670  13.215  67.448  1.00  0.00    -0.370 A  
HETATM   21  C   UNL     1     -11.705  14.148  68.490  1.00  0.00    -0.380 A  
HETATM   22  C   UNL     1     -11.211  15.441  68.294  1.00  0.00    -0.325 A  
HETATM   23  C   UNL     1     -10.680  15.794  67.046  1.00  0.00    -0.306 A  
HETATM   24  C   UNL     1     -10.610  14.849  66.012  1.00  0.00    -0.321 A  
HETATM   25  N   UNL     1     -10.188  17.157  66.820  1.00  0.00    -0.304 N  
HETATM   26  C   UNL     1     -11.087  13.556  66.224  1.00  0.00    -0.308 A  
HETATM   27  O   UNL     1     -10.203  17.943  67.775  1.00  0.00    -0.332 OA 
HETATM   28  O   UNL     1      -9.795  17.447  65.677  1.00  0.00    -0.544 OA 
ENDBRANCH  19  20
ENDBRANCH  16  19
ENDBRANCH  12  13
ENDBRANCH   6  12
ENDBRANCH   5   6
ENDBRANCH   4   5
ENDBRANCH   3   4
ENDBRANCH   2   3
TORSDOF 8
ENDMDL
MODEL       22
REMARK 921   NORMALIZED FREE ENERGY PREDICTED BY IDOCK:   -5.92 KCAL/MOL
REMARK 922        TOTAL FREE ENERGY PREDICTED BY IDOCK:   -9.62 KCAL/MOL
REMARK 923 INTER-LIGAND FREE ENERGY PREDICTED BY IDOCK:   -8.53 KCAL/MOL
REMARK 924 INTRA-LIGAND FREE ENERGY PREDICTED BY IDOCK:   -1.09 KCAL/MOL
REMARK 927      BINDING AFFINITY PREDICTED BY RF-SCORE:    0.00 PKD
ROOT
HETATM    1  C   UNL     1      -8.426   7.720  74.211  1.00  0.00    -0.285 C  
HETATM    2  C   UNL     1      -9.211   7.079  73.086  1.00  0.00    -0.138 C  
ENDROOT
BRANCH   2   3
HETATM    3  O   UNL     1     -10.620   7.138  73.339  1.00  0.00    -0.325 OA 
BRANCH   3   4
HETATM    4  C   UNL     1     -11.178   8.253  72.632  1.00  0.00    -0.340 C  
BRANCH   4   5
HETATM    5  C   UNL     1     -11.855   7.877  71.305  1.00  0.00    -0.296 C  
BRANCH   5   6
HETATM    6  N   UNL     1     -11.094   8.032  70.046  1.00  0.00    -0.205 N  
HETATM    7 CL   UNL     1      -8.289   6.549  68.486  1.00  0.00    -0.121 Cl 
HETATM    8  C   UNL     1     -10.831   6.821  69.351  1.00  0.00    -0.271 C  
HETATM    9  C   UNL     1      -9.988   6.873  68.065  1.00  0.00    -0.154 C  
HETATM   10 CL   UNL     1     -10.565   5.659  66.894  1.00  0.00    -0.341 Cl 
HETATM   11  O   UNL     1     -11.246   5.737  69.781  1.00  0.00    -0.355 OA 
BRANCH   6  12
HETATM   12  C   UNL     1     -10.267   9.230  69.784  1.00  0.00    -0.211 C  
BRANCH  12  13
HETATM   13  C   UNL     1     -10.911  10.433  69.139  1.00  0.00    -0.285 A  
HETATM   14  C   UNL     1     -10.955  10.571  67.744  1.00  0.00    -0.372 A  
HETATM   15  C   UNL     1     -11.426  11.754  67.165  1.00  0.00    -0.366 A  
HETATM   16  C   UNL     1     -11.896  12.803  67.962  1.00  0.00    -0.336 A  
HETATM   17  C   UNL     1     -11.439  11.465  69.932  1.00  0.00    -0.353 A  
HETATM   18  C   UNL     1     -11.910  12.649  69.349  1.00  0.00    -0.356 A  
BRANCH  16  19
HETATM   19  O   UNL     1     -12.213  13.957  67.277  1.00  0.00    -0.394 OA 
BRANCH  19  20
HETATM   20  C   UNL     1     -11.334  15.015  67.238  1.00  0.00    -0.332 A  
HETATM   21  C   UNL     1     -10.577  15.158  66.069  1.00  0.00    -0.329 A  
HETATM   22  C   UNL     1      -9.703  16.239  65.924  1.00  0.00    -0.354 A  
HETATM   23  C   UNL     1      -9.592  17.179  66.959  1.00  0.00    -0.260 A  
HETATM   24  C   UNL     1     -10.378  17.059  68.114  1.00  0.00    -0.347 A  
HETATM   25  N   UNL     1      -8.656  18.300  66.831  1.00  0.00    -0.255 N  
HETATM   26  C   UNL     1     -11.262  15.987  68.239  1.00  0.00    -0.350 A  
HETATM   27  O   UNL     1      -8.029  18.412  65.769  1.00  0.00    -0.509 OA 
HETATM   28  O   UNL     1      -8.536  19.067  67.801  1.00  0.00    -0.288 OA 
ENDBRANCH  19  20
ENDBRANCH  16  19
ENDBRANCH  12  13
ENDBRANCH   6  12
ENDBRANCH   5   6
ENDBRANCH   4   5
ENDBRANCH   3   4
ENDBRANCH   2   3
TORSDOF 8
ENDMDL
MODEL       23
REMARK 921   NORMALIZED FREE ENERGY PREDICTED BY IDOCK:   -5.92 KCAL/MOL
REMARK 922        TOTAL FREE ENERGY PREDICTED BY IDOCK:   -9.62 KCAL/MOL
REMARK 923 INTER-LIGAND FREE ENERGY PREDICTED BY IDOCK:   -8.71 KCAL/MOL
REMARK 924 INTRA-LIGAND FREE ENERGY PREDICTED BY IDOCK:   -0.91 KCAL/MOL
REMARK 927      BINDING AFFINITY PREDICTED BY RF-SCORE:    0.00 PKD
ROOT
HETATM    1  C   UNL     1     -12.478  11.960  63.434  1.00  0.00    -0.582 C  
HETATM    2  C   UNL     1     -12.267  12.238  64.907  1.00  0.00    -0.339 C  
ENDROOT
BRANCH   2   3
HETATM    3  O   UNL     1     -12.933  13.441  65.309  1.00  0.00    -0.681 OA 
BRANCH   3   4
HETATM    4  C   UNL     1     -12.366  14.551  64.601  1.00  0.00    -0.403 C  
BRANCH   4   5
HETATM    5  C   UNL     1     -10.896  14.829  64.949  1.00  0.00    -0.416 C  
BRANCH   5   6
HETATM    6  N   UNL     1     -10.588  15.684  66.116  1.00  0.00    -0.313 N  
HETATM    7 CL   UNL     1      -8.435  18.381  66.887  1.00  0.00    -0.261 Cl 
HETATM    8  C   UNL     1     -10.557  17.079  65.846  1.00  0.00    -0.216 C  
HETATM    9  C   UNL     1     -10.180  18.045  66.982  1.00  0.00    -0.362 C  
HETATM   10 CL   UNL     1     -11.100  19.565  66.837  1.00  0.00    -0.413 Cl 
HETATM   11  O   UNL     1     -10.803  17.514  64.714  1.00  0.00    -0.814 OA 
BRANCH   6  12
HETATM   12  C   UNL     1      -9.898  15.146  67.309  1.00  0.00    -0.228 C  
BRANCH  12  13
HETATM   13  C   UNL     1     -10.195  13.732  67.745  1.00  0.00    -0.241 A  
HETATM   14  C   UNL     1     -11.445  13.383  68.276  1.00  0.00    -0.350 A  
HETATM   15  C   UNL     1     -11.658  12.106  68.806  1.00  0.00    -0.380 A  
HETATM   16  C   UNL     1     -10.643  11.144  68.781  1.00  0.00    -0.202 A  
HETATM   17  C   UNL     1      -9.200  12.743  67.669  1.00  0.00    -0.192 A  
HETATM   18  C   UNL     1      -9.415  11.465  68.201  1.00  0.00    -0.181 A  
BRANCH  16  19
HETATM   19  O   UNL     1     -10.937   9.972  69.446  1.00  0.00    -0.229 OA 
BRANCH  19  20
HETATM   20  C   UNL     1     -10.640   8.752  68.886  1.00  0.00    -0.155 A  
HETATM   21  C   UNL     1     -10.436   7.687  69.772  1.00  0.00    -0.232 A  
HETATM   22  C   UNL     1     -10.186   6.402  69.283  1.00  0.00    -0.229 A  
HETATM   23  C   UNL     1     -10.144   6.188  67.898  1.00  0.00    -0.153 A  
HETATM   24  C   UNL     1     -10.386   7.245  67.009  1.00  0.00    -0.376 A  
HETATM   25  N   UNL     1      -9.852   4.850  67.374  1.00  0.00    -0.172 N  
HETATM   26  C   UNL     1     -10.654   8.519  67.508  1.00  0.00    -0.284 A  
HETATM   27  O   UNL     1      -9.711   3.928  68.188  1.00  0.00    -0.146 OA 
HETATM   28  O   UNL     1      -9.751   4.721  66.142  1.00  0.00    -0.160 OA 
ENDBRANCH  19  20
ENDBRANCH  16  19
ENDBRANCH  12  13
ENDBRANCH   6  12
ENDBRANCH   5   6
ENDBRANCH   4   5
ENDBRANCH   3   4
ENDBRANCH   2   3
TORSDOF 8
ENDMDL
MODEL       24
REMARK 921   NORMALIZED FREE ENERGY PREDICTED BY IDOCK:   -5.90 KCAL/MOL
REMARK 922        TOTAL FREE ENERGY PREDICTED BY IDOCK:   -9.59 KCAL/MOL
REMARK 923 INTER-LIGAND FREE ENERGY PREDICTED BY IDOCK:   -8.26 KCAL/MOL
REMARK 924 INTRA-LIGAND FREE ENERGY PREDICTED BY IDOCK:   -1.33 KCAL/MOL
REMARK 927      BINDING AFFINITY PREDICTED BY RF-SCORE:    0.00 PKD
ROOT
HETATM    1  C   UNL     1      -6.020   9.536  68.744  1.00  0.00    -0.043 C  
HETATM    2  C   UNL     1      -6.005  10.611  69.810  1.00  0.00    -0.062 C  
ENDROOT
BRANCH   2   3
HETATM    3  O   UNL     1      -6.794  10.230  70.942  1.00  0.00    -0.339 OA 
BRANCH   3   4
HETATM    4  C   UNL     1      -6.605   8.832  71.198  1.00  0.00    -0.071 C  
BRANCH   4   5
HETATM    5  C   UNL     1      -7.668   8.216  72.121  1.00  0.00    -0.118 C  
BRANCH   5   6
HETATM    6  N   UNL     1      -8.810   7.498  71.513  1.00  0.00    -0.123 N  
HETATM    7 CL   UNL     1      -9.783   4.150  70.926  1.00  0.00    -0.253 Cl 
HETATM    8  C   UNL     1      -9.333   6.432  72.294  1.00  0.00    -0.141 C  
HETATM    9  C   UNL     1     -10.479   5.584  71.717  1.00  0.00    -0.228 C  
HETATM   10 CL   UNL     1     -11.594   5.082  73.014  1.00  0.00    -0.359 Cl 
HETATM   11  O   UNL     1      -8.861   6.168  73.408  1.00  0.00    -0.126 OA 
BRANCH   6  12
HETATM   12  C   UNL     1      -9.067   7.544  70.057  1.00  0.00    -0.148 C  
BRANCH  12  13
HETATM   13  C   UNL     1      -9.792   8.737  69.483  1.00  0.00    -0.180 A  
HETATM   14  C   UNL     1     -10.371   9.704  70.317  1.00  0.00    -0.336 A  
HETATM   15  C   UNL     1     -11.159  10.725  69.775  1.00  0.00    -0.346 A  
HETATM   16  C   UNL     1     -11.353  10.822  68.393  1.00  0.00    -0.302 A  
HETATM   17  C   UNL     1      -9.941   8.874  68.093  1.00  0.00    -0.208 A  
HETATM   18  C   UNL     1     -10.732   9.897  67.553  1.00  0.00    -0.333 A  
BRANCH  16  19
HETATM   19  O   UNL     1     -12.250  11.792  67.999  1.00  0.00    -0.518 OA 
BRANCH  19  20
HETATM   20  C   UNL     1     -11.826  12.902  67.307  1.00  0.00    -0.356 A  
HETATM   21  C   UNL     1     -12.401  13.115  66.048  1.00  0.00    -0.426 A  
HETATM   22  C   UNL     1     -12.069  14.251  65.304  1.00  0.00    -0.400 A  
HETATM   23  C   UNL     1     -11.155  15.175  65.830  1.00  0.00    -0.330 A  
HETATM   24  C   UNL     1     -10.606  14.984  67.106  1.00  0.00    -0.295 A  
HETATM   25  N   UNL     1     -10.775  16.354  65.045  1.00  0.00    -0.344 N  
HETATM   26  C   UNL     1     -10.961  13.857  67.848  1.00  0.00    -0.265 A  
HETATM   27  O   UNL     1     -11.331  16.525  63.952  1.00  0.00    -1.057 OA 
HETATM   28  O   UNL     1      -9.907  17.107  65.517  1.00  0.00    -0.549 OA 
ENDBRANCH  19  20
ENDBRANCH  16  19
ENDBRANCH  12  13
ENDBRANCH   6  12
ENDBRANCH   5   6
ENDBRANCH   4   5
ENDBRANCH   3   4
ENDBRANCH   2   3
TORSDOF 8
ENDMDL
MODEL       25
REMARK 921   NORMALIZED FREE ENERGY PREDICTED BY IDOCK:   -5.85 KCAL/MOL
REMARK 922        TOTAL FREE ENERGY PREDICTED BY IDOCK:   -9.51 KCAL/MOL
REMARK 923 INTER-LIGAND FREE ENERGY PREDICTED BY IDOCK:   -8.64 KCAL/MOL
REMARK 924 INTRA-LIGAND FREE ENERGY PREDICTED BY IDOCK:   -0.88 KCAL/MOL
REMARK 927      BINDING AFFINITY PREDICTED BY RF-SCORE:    0.00 PKD
ROOT
HETATM    1  C   UNL     1     -10.195   3.703  72.609  1.00  0.00    -0.239 C  
HETATM    2  C   UNL     1     -10.624   4.643  73.714  1.00  0.00    -0.263 C  
ENDROOT
BRANCH   2   3
HETATM    3  O   UNL     1      -9.674   5.701  73.893  1.00  0.00    -0.147 OA 
BRANCH   3   4
HETATM    4  C   UNL     1     -10.370   6.952  73.957  1.00  0.00    -0.320 C  
BRANCH   4   5
HETATM    5  C   UNL     1     -10.201   7.826  72.705  1.00  0.00    -0.299 C  
BRANCH   5   6
HETATM    6  N   UNL     1     -10.954   7.474  71.481  1.00  0.00    -0.228 N  
HETATM    7 CL   UNL     1     -10.542   7.765  67.982  1.00  0.00    -0.236 Cl 
HETATM    8  C   UNL     1     -10.196   6.808  70.481  1.00  0.00    -0.192 C  
HETATM    9  C   UNL     1     -10.875   6.461  69.145  1.00  0.00    -0.322 C  
HETATM   10 CL   UNL     1     -10.254   4.913  68.516  1.00  0.00    -0.158 Cl 
HETATM   11  O   UNL     1      -9.003   6.533  70.664  1.00  0.00    -0.146 OA 
BRANCH   6  12
HETATM   12  C   UNL     1     -12.210   8.167  71.119  1.00  0.00    -0.239 C  
BRANCH  12  13
HETATM   13  C   UNL     1     -12.207   9.673  71.020  1.00  0.00    -0.409 A  
HETATM   14  C   UNL     1     -13.057  10.454  71.817  1.00  0.00    -0.567 A  
HETATM   15  C   UNL     1     -13.145  11.835  71.614  1.00  0.00    -0.443 A  
HETATM   16  C   UNL     1     -12.362  12.467  70.642  1.00  0.00    -0.282 A  
HETATM   17  C   UNL     1     -11.381  10.321  70.087  1.00  0.00    -0.388 A  
HETATM   18  C   UNL     1     -11.472  11.705  69.885  1.00  0.00    -0.308 A  
BRANCH  16  19
HETATM   19  O   UNL     1     -12.635  13.806  70.456  1.00  0.00    -0.327 OA 
BRANCH  19  20
HETATM   20  C   UNL     1     -11.992  14.525  69.476  1.00  0.00    -0.319 A  
HETATM   21  C   UNL     1     -12.150  14.074  68.160  1.00  0.00    -0.307 A  
HETATM   22  C   UNL     1     -11.577  14.782  67.099  1.00  0.00    -0.373 A  
HETATM   23  C   UNL     1     -10.844  15.947  67.364  1.00  0.00    -0.291 A  
HETATM   24  C   UNL     1     -10.716  16.421  68.678  1.00  0.00    -0.317 A  
HETATM   25  N   UNL     1     -10.213  16.679  66.262  1.00  0.00    -0.322 N  
HETATM   26  C   UNL     1     -11.309  15.719  69.726  1.00  0.00    -0.339 A  
HETATM   27  O   UNL     1     -10.404  16.269  65.110  1.00  0.00    -0.587 OA 
HETATM   28  O   UNL     1      -9.511  17.664  66.550  1.00  0.00    -0.269 OA 
ENDBRANCH  19  20
ENDBRANCH  16  19
ENDBRANCH  12  13
ENDBRANCH   6  12
ENDBRANCH   5   6
ENDBRANCH   4   5
ENDBRANCH   3   4
ENDBRANCH   2   3
TORSDOF 8
ENDMDL
MODEL       26
REMARK 921   NORMALIZED FREE ENERGY PREDICTED BY IDOCK:   -5.81 KCAL/MOL
REMARK 922        TOTAL FREE ENERGY PREDICTED BY IDOCK:   -9.47 KCAL/MOL
REMARK 923 INTER-LIGAND FREE ENERGY PREDICTED BY IDOCK:   -8.42 KCAL/MOL
REMARK 924 INTRA-LIGAND FREE ENERGY PREDICTED BY IDOCK:   -1.04 KCAL/MOL
REMARK 927      BINDING AFFINITY PREDICTED BY RF-SCORE:    0.00 PKD
ROOT
HETATM    1  C   UNL     1     -14.138  14.057  72.162  1.00  0.00    -0.641 C  
HETATM    2  C   UNL     1     -13.113  13.031  71.729  1.00  0.00    -0.373 C  
ENDROOT
BRANCH   2   3
HETATM    3  O   UNL     1     -13.405  11.742  72.281  1.00  0.00    -0.455 OA 
BRANCH   3   4
HETATM    4  C   UNL     1     -13.028  10.730  71.339  1.00  0.00    -0.432 C  
BRANCH   4   5
HETATM    5  C   UNL     1     -11.742  11.049  70.561  1.00  0.00    -0.318 C  
BRANCH   5   6
HETATM    6  N   UNL     1     -11.192  10.028  69.642  1.00  0.00    -0.249 N  
HETATM    7 CL   UNL     1      -8.011   8.887  68.602  1.00  0.00    -0.102 Cl 
HETATM    8  C   UNL     1     -10.166   9.215  70.194  1.00  0.00    -0.205 C  
HETATM    9  C   UNL     1      -9.485   8.169  69.294  1.00  0.00    -0.159 C  
HETATM   10 CL   UNL     1      -9.068   6.715  70.236  1.00  0.00    -0.155 Cl 
HETATM   11  O   UNL     1      -9.802   9.357  71.368  1.00  0.00    -0.260 OA 
BRANCH   6  12
HETATM   12  C   UNL     1     -11.326  10.156  68.174  1.00  0.00    -0.099 C  
BRANCH  12  13
HETATM   13  C   UNL     1     -10.951  11.463  67.520  1.00  0.00    -0.312 A  
HETATM   14  C   UNL     1     -11.901  12.477  67.326  1.00  0.00    -0.381 A  
HETATM   15  C   UNL     1     -11.574  13.622  66.594  1.00  0.00    -0.391 A  
HETATM   16  C   UNL     1     -10.287  13.796  66.075  1.00  0.00    -0.308 A  
HETATM   17  C   UNL     1      -9.645  11.670  67.048  1.00  0.00    -0.196 A  
HETATM   18  C   UNL     1      -9.320  12.819  66.313  1.00  0.00    -0.156 A  
BRANCH  16  19
HETATM   19  O   UNL     1     -10.130  14.903  65.268  1.00  0.00    -0.355 OA 
BRANCH  19  20
HETATM   20  C   UNL     1      -9.747  16.112  65.799  1.00  0.00    -0.290 A  
HETATM   21  C   UNL     1     -10.645  17.176  65.650  1.00  0.00    -0.187 A  
HETATM   22  C   UNL     1     -10.358  18.424  66.211  1.00  0.00    -0.440 A  
HETATM   23  C   UNL     1      -9.164  18.600  66.925  1.00  0.00    -0.304 A  
HETATM   24  C   UNL     1      -8.282  17.526  67.108  1.00  0.00    -0.229 A  
HETATM   25  N   UNL     1      -8.838  19.912  67.492  1.00  0.00    -0.329 N  
HETATM   26  C   UNL     1      -8.588  16.280  66.561  1.00  0.00    -0.332 A  
HETATM   27  O   UNL     1      -9.672  20.819  67.368  1.00  0.00    -0.465 OA 
HETATM   28  O   UNL     1      -7.737  20.043  68.052  1.00  0.00    -0.299 OA 
ENDBRANCH  19  20
ENDBRANCH  16  19
ENDBRANCH  12  13
ENDBRANCH   6  12
ENDBRANCH   5   6
ENDBRANCH   4   5
ENDBRANCH   3   4
ENDBRANCH   2   3
TORSDOF 8
ENDMDL
MODEL       27
REMARK 921   NORMALIZED FREE ENERGY PREDICTED BY IDOCK:   -5.81 KCAL/MOL
REMARK 922        TOTAL FREE ENERGY PREDICTED BY IDOCK:   -9.46 KCAL/MOL
REMARK 923 INTER-LIGAND FREE ENERGY PREDICTED BY IDOCK:   -8.51 KCAL/MOL
REMARK 924 INTRA-LIGAND FREE ENERGY PREDICTED BY IDOCK:   -0.95 KCAL/MOL
REMARK 927      BINDING AFFINITY PREDICTED BY RF-SCORE:    0.00 PKD
ROOT
HETATM    1  C   UNL     1     -10.573  18.482  67.549  1.00  0.00    -0.461 C  
HETATM    2  C   UNL     1     -10.617  16.977  67.388  1.00  0.00    -0.289 C  
ENDROOT
BRANCH   2   3
HETATM    3  O   UNL     1     -11.370  16.365  68.441  1.00  0.00    -0.366 OA 
BRANCH   3   4
HETATM    4  C   UNL     1     -11.653  15.005  68.087  1.00  0.00    -0.340 C  
BRANCH   4   5
HETATM    5  C   UNL     1     -10.538  14.324  67.279  1.00  0.00    -0.278 C  
BRANCH   5   6
HETATM    6  N   UNL     1     -10.840  13.061  66.570  1.00  0.00    -0.276 N  
HETATM    7 CL   UNL     1     -12.538  12.048  63.639  1.00  0.00    -0.640 Cl 
HETATM    8  C   UNL     1     -10.572  13.077  65.175  1.00  0.00    -0.312 C  
HETATM    9  C   UNL     1     -10.916  11.832  64.340  1.00  0.00    -0.339 C  
HETATM   10 CL   UNL     1      -9.718  11.605  63.041  1.00  0.00    -0.400 Cl 
HETATM   11  O   UNL     1     -10.095  14.081  64.630  1.00  0.00    -0.358 OA 
BRANCH   6  12
HETATM   12  C   UNL     1     -11.776  12.063  67.132  1.00  0.00    -0.273 C  
BRANCH  12  13
HETATM   13  C   UNL     1     -11.309  11.186  68.269  1.00  0.00    -0.365 A  
HETATM   14  C   UNL     1     -12.128  10.942  69.381  1.00  0.00    -0.362 A  
HETATM   15  C   UNL     1     -11.630  10.247  70.487  1.00  0.00    -0.424 A  
HETATM   16  C   UNL     1     -10.322   9.750  70.491  1.00  0.00    -0.283 A  
HETATM   17  C   UNL     1     -10.018  10.634  68.254  1.00  0.00    -0.173 A  
HETATM   18  C   UNL     1      -9.521   9.938  69.364  1.00  0.00    -0.226 A  
BRANCH  16  19
HETATM   19  O   UNL     1      -9.914   9.197  71.686  1.00  0.00    -0.316 OA 
BRANCH  19  20
HETATM   20  C   UNL     1      -9.999   7.841  71.899  1.00  0.00    -0.174 A  
HETATM   21  C   UNL     1     -10.450   7.431  73.159  1.00  0.00    -0.406 A  
HETATM   22  C   UNL     1     -10.622   6.072  73.438  1.00  0.00    -0.277 A  
HETATM   23  C   UNL     1     -10.339   5.123  72.445  1.00  0.00    -0.204 A  
HETATM   24  C   UNL     1      -9.924   5.534  71.170  1.00  0.00    -0.253 A  
HETATM   25  N   UNL     1     -10.485   3.694  72.736  1.00  0.00    -0.159 N  
HETATM   26  C   UNL     1      -9.776   6.893  70.896  1.00  0.00    -0.183 A  
HETATM   27  O   UNL     1     -10.919   3.372  73.850  1.00  0.00    -0.212 OA 
HETATM   28  O   UNL     1     -10.153   2.887  71.852  1.00  0.00    -0.163 OA 
ENDBRANCH  19  20
ENDBRANCH  16  19
ENDBRANCH  12  13
ENDBRANCH   6  12
ENDBRANCH   5   6
ENDBRANCH   4   5
ENDBRANCH   3   4
ENDBRANCH   2   3
TORSDOF 8
ENDMDL
MODEL       28
REMARK 921   NORMALIZED FREE ENERGY PREDICTED BY IDOCK:   -5.74 KCAL/MOL
REMARK 922        TOTAL FREE ENERGY PREDICTED BY IDOCK:   -9.35 KCAL/MOL
REMARK 923 INTER-LIGAND FREE ENERGY PREDICTED BY IDOCK:   -8.40 KCAL/MOL
REMARK 924 INTRA-LIGAND FREE ENERGY PREDICTED BY IDOCK:   -0.95 KCAL/MOL
REMARK 927      BINDING AFFINITY PREDICTED BY RF-SCORE:    0.00 PKD
ROOT
HETATM    1  C   UNL     1     -14.374   8.713  72.078  1.00  0.00    -0.512 C  
HETATM    2  C   UNL     1     -14.254   7.310  71.523  1.00  0.00    -0.390 C  
ENDROOT
BRANCH   2   3
HETATM    3  O   UNL     1     -12.993   6.723  71.867  1.00  0.00    -0.325 OA 
BRANCH   3   4
HETATM    4  C   UNL     1     -12.059   6.960  70.806  1.00  0.00    -0.349 C  
BRANCH   4   5
HETATM    5  C   UNL     1     -10.903   7.897  71.189  1.00  0.00    -0.234 C  
BRANCH   5   6
HETATM    6  N   UNL     1      -9.858   8.188  70.183  1.00  0.00    -0.183 N  
HETATM    7 CL   UNL     1      -7.658  10.840  69.389  1.00  0.00    -0.132 Cl 
HETATM    8  C   UNL     1      -8.644   8.704  70.712  1.00  0.00    -0.171 C  
HETATM    9  C   UNL     1      -7.521   9.100  69.738  1.00  0.00    -0.069 C  
HETATM   10 CL   UNL     1      -5.926   8.748  70.451  1.00  0.00    -0.030 Cl 
HETATM   11  O   UNL     1      -8.496   8.860  71.931  1.00  0.00    -0.348 OA 
BRANCH   6  12
HETATM   12  C   UNL     1     -10.192   8.399  68.757  1.00  0.00    -0.207 C  
BRANCH  12  13
HETATM   13  C   UNL     1     -10.630   9.772  68.308  1.00  0.00    -0.271 A  
HETATM   14  C   UNL     1     -11.376  10.608  69.152  1.00  0.00    -0.338 A  
HETATM   15  C   UNL     1     -11.894  11.815  68.673  1.00  0.00    -0.369 A  
HETATM   16  C   UNL     1     -11.649  12.229  67.360  1.00  0.00    -0.355 A  
HETATM   17  C   UNL     1     -10.338  10.219  67.009  1.00  0.00    -0.299 A  
HETATM   18  C   UNL     1     -10.860  11.429  66.532  1.00  0.00    -0.334 A  
BRANCH  16  19
HETATM   19  O   UNL     1     -12.319  13.370  66.974  1.00  0.00    -0.311 OA 
BRANCH  19  20
HETATM   20  C   UNL     1     -11.676  14.586  66.939  1.00  0.00    -0.382 A  
HETATM   21  C   UNL     1     -11.583  15.282  68.150  1.00  0.00    -0.344 A  
HETATM   22  C   UNL     1     -10.895  16.497  68.213  1.00  0.00    -0.352 A  
HETATM   23  C   UNL     1     -10.298  17.011  67.054  1.00  0.00    -0.304 A  
HETATM   24  C   UNL     1     -10.357  16.297  65.849  1.00  0.00    -0.381 A  
HETATM   25  N   UNL     1      -9.600  18.300  67.101  1.00  0.00    -0.274 N  
HETATM   26  C   UNL     1     -11.028  15.076  65.802  1.00  0.00    -0.351 A  
HETATM   27  O   UNL     1      -9.510  18.869  68.197  1.00  0.00    -0.306 OA 
HETATM   28  O   UNL     1      -9.150  18.753  66.035  1.00  0.00    -0.479 OA 
ENDBRANCH  19  20
ENDBRANCH  16  19
ENDBRANCH  12  13
ENDBRANCH   6  12
ENDBRANCH   5   6
ENDBRANCH   4   5
ENDBRANCH   3   4
ENDBRANCH   2   3
TORSDOF 8
ENDMDL
MODEL       29
REMARK 921   NORMALIZED FREE ENERGY PREDICTED BY IDOCK:   -5.72 KCAL/MOL
REMARK 922        TOTAL FREE ENERGY PREDICTED BY IDOCK:   -9.32 KCAL/MOL
REMARK 923 INTER-LIGAND FREE ENERGY PREDICTED BY IDOCK:   -8.28 KCAL/MOL
REMARK 924 INTRA-LIGAND FREE ENERGY PREDICTED BY IDOCK:   -1.05 KCAL/MOL
REMARK 927      BINDING AFFINITY PREDICTED BY RF-SCORE:    0.00 PKD
ROOT
HETATM    1  C   UNL     1     -13.625   9.147  72.440  1.00  0.00    -0.544 C  
HETATM    2  C   UNL     1     -14.399   8.119  71.643  1.00  0.00    -0.469 C  
ENDROOT
BRANCH   2   3
HETATM    3  O   UNL     1     -13.595   6.968  71.361  1.00  0.00    -0.334 OA 
BRANCH   3   4
HETATM    4  C   UNL     1     -12.225   7.268  71.656  1.00  0.00    -0.343 C  
BRANCH   4   5
HETATM    5  C   UNL     1     -11.258   6.973  70.500  1.00  0.00    -0.295 C  
BRANCH   5   6
HETATM    6  N   UNL     1     -10.233   7.982  70.151  1.00  0.00    -0.199 N  
HETATM    7 CL   UNL     1      -6.853   8.657  70.937  1.00  0.00    -0.054 Cl 
HETATM    8  C   UNL     1      -8.970   7.450  69.778  1.00  0.00    -0.141 C  
HETATM    9  C   UNL     1      -7.821   8.422  69.462  1.00  0.00    -0.102 C  
HETATM   10 CL   UNL     1      -6.794   7.769  68.160  1.00  0.00    -0.066 Cl 
HETATM   11  O   UNL     1      -8.782   6.227  69.732  1.00  0.00    -0.134 OA 
BRANCH   6  12
HETATM   12  C   UNL     1     -10.339   9.383  70.613  1.00  0.00    -0.284 C  
BRANCH  12  13
HETATM   13  C   UNL     1     -10.900  10.420  69.669  1.00  0.00    -0.320 A  
HETATM   14  C   UNL     1     -10.557  10.424  68.309  1.00  0.00    -0.245 A  
HETATM   15  C   UNL     1     -10.970  11.470  67.479  1.00  0.00    -0.308 A  
HETATM   16  C   UNL     1     -11.761  12.511  67.979  1.00  0.00    -0.355 A  
HETATM   17  C   UNL     1     -11.742  11.435  70.152  1.00  0.00    -0.414 A  
HETATM   18  C   UNL     1     -12.153  12.484  69.317  1.00  0.00    -0.214 A  
BRANCH  16  19
HETATM   19  O   UNL     1     -11.993  13.542  67.093  1.00  0.00    -0.380 OA 
BRANCH  19  20
HETATM   20  C   UNL     1     -11.266  14.708  67.165  1.00  0.00    -0.344 A  
HETATM   21  C   UNL     1     -10.547  15.070  66.020  1.00  0.00    -0.329 A  
HETATM   22  C   UNL     1      -9.829  16.270  65.990  1.00  0.00    -0.371 A  
HETATM   23  C   UNL     1      -9.837  17.106  67.115  1.00  0.00    -0.271 A  
HETATM   24  C   UNL     1     -10.588  16.763  68.249  1.00  0.00    -0.352 A  
HETATM   25  N   UNL     1      -9.063  18.351  67.106  1.00  0.00    -0.263 N  
HETATM   26  C   UNL     1     -11.317  15.574  68.261  1.00  0.00    -0.360 A  
HETATM   27  O   UNL     1      -8.468  18.654  66.064  1.00  0.00    -0.486 OA 
HETATM   28  O   UNL     1      -9.039  19.024  68.150  1.00  0.00    -0.299 OA 
ENDBRANCH  19  20
ENDBRANCH  16  19
ENDBRANCH  12  13
ENDBRANCH   6  12
ENDBRANCH   5   6
ENDBRANCH   4   5
ENDBRANCH   3   4
ENDBRANCH   2   3
TORSDOF 8
ENDMDL
MODEL       30
REMARK 921   NORMALIZED FREE ENERGY PREDICTED BY IDOCK:   -5.72 KCAL/MOL
REMARK 922        TOTAL FREE ENERGY PREDICTED BY IDOCK:   -9.32 KCAL/MOL
REMARK 923 INTER-LIGAND FREE ENERGY PREDICTED BY IDOCK:   -7.89 KCAL/MOL
REMARK 924 INTRA-LIGAND FREE ENERGY PREDICTED BY IDOCK:   -1.43 KCAL/MOL
REMARK 927      BINDING AFFINITY PREDICTED BY RF-SCORE:    0.00 PKD
ROOT
HETATM    1  C   UNL     1      -8.925   9.321  66.559  1.00  0.00    -0.178 C  
HETATM    2  C   UNL     1      -8.096  10.172  65.621  1.00  0.00    -0.149 C  
ENDROOT
BRANCH   2   3
HETATM    3  O   UNL     1      -7.305  11.122  66.345  1.00  0.00    -0.143 OA 
BRANCH   3   4
HETATM    4  C   UNL     1      -8.144  11.826  67.268  1.00  0.00    -0.164 C  
BRANCH   4   5
HETATM    5  C   UNL     1      -8.800  13.086  66.681  1.00  0.00    -0.073 C  
BRANCH   5   6
HETATM    6  N   UNL     1     -10.262  13.091  66.457  1.00  0.00    -0.263 N  
HETATM    7 CL   UNL     1     -12.590  14.807  64.423  1.00  0.00    -0.291 Cl 
HETATM    8  C   UNL     1     -10.660  13.044  65.094  1.00  0.00    -0.312 C  
HETATM    9  C   UNL     1     -12.160  13.113  64.758  1.00  0.00    -0.409 C  
HETATM   10 CL   UNL     1     -12.526  12.101  63.337  1.00  0.00    -0.677 Cl 
HETATM   11  O   UNL     1      -9.821  12.975  64.187  1.00  0.00    -0.208 OA 
BRANCH   6  12
HETATM   12  C   UNL     1     -11.200  13.593  67.485  1.00  0.00    -0.294 C  
BRANCH  12  13
HETATM   13  C   UNL     1     -11.662  12.651  68.571  1.00  0.00    -0.372 A  
HETATM   14  C   UNL     1     -12.032  13.129  69.837  1.00  0.00    -0.387 A  
HETATM   15  C   UNL     1     -12.321  12.235  70.873  1.00  0.00    -0.363 A  
HETATM   16  C   UNL     1     -12.283  10.853  70.658  1.00  0.00    -0.376 A  
HETATM   17  C   UNL     1     -11.684  11.265  68.345  1.00  0.00    -0.365 A  
HETATM   18  C   UNL     1     -11.972  10.372  69.385  1.00  0.00    -0.151 A  
BRANCH  16  19
HETATM   19  O   UNL     1     -12.463  10.083  71.788  1.00  0.00    -0.389 OA 
BRANCH  19  20
HETATM   20  C   UNL     1     -11.762   8.912  71.959  1.00  0.00    -0.367 A  
HETATM   21  C   UNL     1     -12.499   7.724  71.884  1.00  0.00    -0.343 A  
HETATM   22  C   UNL     1     -11.855   6.488  71.990  1.00  0.00    -0.374 A  
HETATM   23  C   UNL     1     -10.465   6.449  72.170  1.00  0.00    -0.207 A  
HETATM   24  C   UNL     1      -9.720   7.637  72.206  1.00  0.00    -0.226 A  
HETATM   25  N   UNL     1      -9.783   5.159  72.312  1.00  0.00    -0.159 N  
HETATM   26  C   UNL     1     -10.371   8.863  72.079  1.00  0.00    -0.378 A  
HETATM   27  O   UNL     1     -10.463   4.130  72.207  1.00  0.00    -0.158 OA 
HETATM   28  O   UNL     1      -8.562   5.173  72.544  1.00  0.00    -0.119 OA 
ENDBRANCH  19  20
ENDBRANCH  16  19
ENDBRANCH  12  13
ENDBRANCH   6  12
ENDBRANCH   5   6
ENDBRANCH   4   5
ENDBRANCH   3   4
ENDBRANCH   2   3
TORSDOF 8
ENDMDL
MODEL       31
REMARK 921   NORMALIZED FREE ENERGY PREDICTED BY IDOCK:   -5.71 KCAL/MOL
REMARK 922        TOTAL FREE ENERGY PREDICTED BY IDOCK:   -9.32 KCAL/MOL
REMARK 923 INTER-LIGAND FREE ENERGY PREDICTED BY IDOCK:   -8.28 KCAL/MOL
REMARK 924 INTRA-LIGAND FREE ENERGY PREDICTED BY IDOCK:   -1.04 KCAL/MOL
REMARK 927      BINDING AFFINITY PREDICTED BY RF-SCORE:    0.00 PKD
ROOT
HETATM    1  C   UNL     1      -8.783  16.705  66.225  1.00  0.00    -0.359 C  
HETATM    2  C   UNL     1      -9.979  17.496  66.711  1.00  0.00    -0.313 C  
ENDROOT
BRANCH   2   3
HETATM    3  O   UNL     1     -10.513  16.939  67.918  1.00  0.00    -0.317 OA 
BRANCH   3   4
HETATM    4  C   UNL     1      -9.745  15.785  68.283  1.00  0.00    -0.201 C  
BRANCH   4   5
HETATM    5  C   UNL     1     -10.144  15.171  69.634  1.00  0.00    -0.190 C  
BRANCH   5   6
HETATM    6  N   UNL     1     -11.561  14.814  69.865  1.00  0.00    -0.271 N  
HETATM    7 CL   UNL     1     -13.442  12.984  72.234  1.00  0.00    -0.663 Cl 
HETATM    8  C   UNL     1     -12.025  15.029  71.191  1.00  0.00    -0.323 C  
HETATM    9  C   UNL     1     -13.466  14.624  71.546  1.00  0.00    -0.388 C  
HETATM   10 CL   UNL     1     -14.160  15.767  72.724  1.00  0.00    -0.586 Cl 
HETATM   11  O   UNL     1     -11.281  15.509  72.056  1.00  0.00    -0.390 OA 
BRANCH   6  12
HETATM   12  C   UNL     1     -12.277  13.876  68.974  1.00  0.00    -0.239 C  
BRANCH  12  13
HETATM   13  C   UNL     1     -11.693  12.503  68.741  1.00  0.00    -0.371 A  
HETATM   14  C   UNL     1     -11.282  12.098  67.462  1.00  0.00    -0.357 A  
HETATM   15  C   UNL     1     -10.876  10.779  67.235  1.00  0.00    -0.344 A  
HETATM   16  C   UNL     1     -10.837   9.852  68.282  1.00  0.00    -0.230 A  
HETATM   17  C   UNL     1     -11.596  11.585  69.799  1.00  0.00    -0.401 A  
HETATM   18  C   UNL     1     -11.190  10.264  69.568  1.00  0.00    -0.314 A  
BRANCH  16  19
HETATM   19  O   UNL     1     -10.543   8.559  67.904  1.00  0.00    -0.220 OA 
BRANCH  19  20
HETATM   20  C   UNL     1     -10.259   7.598  68.845  1.00  0.00    -0.210 A  
HETATM   21  C   UNL     1      -8.977   7.627  69.405  1.00  0.00    -0.139 A  
HETATM   22  C   UNL     1      -8.626   6.722  70.411  1.00  0.00    -0.146 A  
HETATM   23  C   UNL     1      -9.570   5.785  70.855  1.00  0.00    -0.168 A  
HETATM   24  C   UNL     1     -10.868   5.779  70.322  1.00  0.00    -0.373 A  
HETATM   25  N   UNL     1      -9.204   4.811  71.887  1.00  0.00    -0.134 N  
HETATM   26  C   UNL     1     -11.213   6.700  69.334  1.00  0.00    -0.356 A  
HETATM   27  O   UNL     1      -8.072   4.891  72.382  1.00  0.00    -0.107 OA 
HETATM   28  O   UNL     1     -10.047   3.953  72.197  1.00  0.00    -0.168 OA 
ENDBRANCH  19  20
ENDBRANCH  16  19
ENDBRANCH  12  13
ENDBRANCH   6  12
ENDBRANCH   5   6
ENDBRANCH   4   5
ENDBRANCH   3   4
ENDBRANCH   2   3
TORSDOF 8
ENDMDL
MODEL       32
REMARK 921   NORMALIZED FREE ENERGY PREDICTED BY IDOCK:   -5.71 KCAL/MOL
REMARK 922        TOTAL FREE ENERGY PREDICTED BY IDOCK:   -9.31 KCAL/MOL
REMARK 923 INTER-LIGAND FREE ENERGY PREDICTED BY IDOCK:   -8.67 KCAL/MOL
REMARK 924 INTRA-LIGAND FREE ENERGY PREDICTED BY IDOCK:   -0.64 KCAL/MOL
REMARK 927      BINDING AFFINITY PREDICTED BY RF-SCORE:    0.00 PKD
ROOT
HETATM    1  C   UNL     1     -10.620  18.924  66.741  1.00  0.00    -0.480 C  
HETATM    2  C   UNL     1     -10.028  17.774  65.956  1.00  0.00    -0.209 C  
ENDROOT
BRANCH   2   3
HETATM    3  O   UNL     1     -10.764  16.564  66.174  1.00  0.00    -0.264 OA 
BRANCH   3   4
HETATM    4  C   UNL     1     -11.149  16.014  64.908  1.00  0.00    -0.370 C  
BRANCH   4   5
HETATM    5  C   UNL     1     -11.536  14.528  64.964  1.00  0.00    -0.382 C  
BRANCH   5   6
HETATM    6  N   UNL     1     -10.463  13.515  65.076  1.00  0.00    -0.356 N  
HETATM    7 CL   UNL     1     -10.152   9.999  64.860  1.00  0.00    -0.314 Cl 
HETATM    8  C   UNL     1     -10.436  12.552  64.032  1.00  0.00    -0.422 C  
HETATM    9  C   UNL     1      -9.398  11.418  64.096  1.00  0.00    -0.055 C  
HETATM   10 CL   UNL     1      -8.835  10.998  62.458  1.00  0.00    -0.342 Cl 
HETATM   11  O   UNL     1     -11.247  12.603  63.098  1.00  0.00    -0.362 OA 
BRANCH   6  12
HETATM   12  C   UNL     1      -9.806  13.222  66.369  1.00  0.00    -0.281 C  
BRANCH  12  13
HETATM   13  C   UNL     1     -10.623  12.599  67.475  1.00  0.00    -0.236 A  
HETATM   14  C   UNL     1     -11.063  13.359  68.569  1.00  0.00    -0.299 A  
HETATM   15  C   UNL     1     -11.695  12.740  69.652  1.00  0.00    -0.372 A  
HETATM   16  C   UNL     1     -11.933  11.361  69.649  1.00  0.00    -0.348 A  
HETATM   17  C   UNL     1     -10.917  11.226  67.452  1.00  0.00    -0.337 A  
HETATM   18  C   UNL     1     -11.550  10.608  68.539  1.00  0.00    -0.279 A  
BRANCH  16  19
HETATM   19  O   UNL     1     -12.446  10.857  70.826  1.00  0.00    -0.335 OA 
BRANCH  19  20
HETATM   20  C   UNL     1     -11.949   9.696  71.369  1.00  0.00    -0.399 A  
HETATM   21  C   UNL     1     -12.871   8.672  71.613  1.00  0.00    -0.380 A  
HETATM   22  C   UNL     1     -12.440   7.438  72.110  1.00  0.00    -0.211 A  
HETATM   23  C   UNL     1     -11.076   7.236  72.360  1.00  0.00    -0.275 A  
HETATM   24  C   UNL     1     -10.145   8.247  72.080  1.00  0.00    -0.344 A  
HETATM   25  N   UNL     1     -10.616   5.957  72.910  1.00  0.00    -0.221 N  
HETATM   26  C   UNL     1     -10.584   9.466  71.566  1.00  0.00    -0.331 A  
HETATM   27  O   UNL     1     -11.456   5.065  73.080  1.00  0.00    -0.327 OA 
HETATM   28  O   UNL     1      -9.409   5.847  73.186  1.00  0.00    -0.140 OA 
ENDBRANCH  19  20
ENDBRANCH  16  19
ENDBRANCH  12  13
ENDBRANCH   6  12
ENDBRANCH   5   6
ENDBRANCH   4   5
ENDBRANCH   3   4
ENDBRANCH   2   3
TORSDOF 8
ENDMDL
MODEL       33
REMARK 921   NORMALIZED FREE ENERGY PREDICTED BY IDOCK:   -5.71 KCAL/MOL
REMARK 922        TOTAL FREE ENERGY PREDICTED BY IDOCK:   -9.31 KCAL/MOL
REMARK 923 INTER-LIGAND FREE ENERGY PREDICTED BY IDOCK:   -7.92 KCAL/MOL
REMARK 924 INTRA-LIGAND FREE ENERGY PREDICTED BY IDOCK:   -1.39 KCAL/MOL
REMARK 927      BINDING AFFINITY PREDICTED BY RF-SCORE:    0.00 PKD
ROOT
HETATM    1  C   UNL     1      -8.931   5.990  65.952  1.00  0.00    -0.144 C  
HETATM    2  C   UNL     1      -7.876   5.794  67.019  1.00  0.00    -0.102 C  
ENDROOT
BRANCH   2   3
HETATM    3  O   UNL     1      -8.382   5.016  68.111  1.00  0.00    -0.096 OA 
BRANCH   3   4
HETATM    4  C   UNL     1      -9.799   5.204  68.205  1.00  0.00    -0.151 C  
BRANCH   4   5
HETATM    5  C   UNL     1     -10.245   5.990  69.447  1.00  0.00    -0.211 C  
BRANCH   5   6
HETATM    6  N   UNL     1      -9.217   6.653  70.279  1.00  0.00    -0.155 N  
HETATM    7 CL   UNL     1      -9.051   8.327  73.389  1.00  0.00    -0.293 Cl 
HETATM    8  C   UNL     1      -9.217   6.272  71.648  1.00  0.00    -0.144 C  
HETATM    9  C   UNL     1      -8.228   6.957  72.607  1.00  0.00    -0.109 C  
HETATM   10 CL   UNL     1      -7.660   5.804  73.842  1.00  0.00    -0.096 Cl 
HETATM   11  O   UNL     1     -10.012   5.424  72.073  1.00  0.00    -0.174 OA 
BRANCH   6  12
HETATM   12  C   UNL     1      -8.592   7.928  69.866  1.00  0.00    -0.139 C  
BRANCH  12  13
HETATM   13  C   UNL     1      -9.471   9.028  69.323  1.00  0.00    -0.157 A  
HETATM   14  C   UNL     1     -10.214   9.853  70.181  1.00  0.00    -0.326 A  
HETATM   15  C   UNL     1     -11.131  10.772  69.661  1.00  0.00    -0.339 A  
HETATM   16  C   UNL     1     -11.298  10.912  68.279  1.00  0.00    -0.308 A  
HETATM   17  C   UNL     1      -9.600   9.214  67.937  1.00  0.00    -0.168 A  
HETATM   18  C   UNL     1     -10.521  10.135  67.418  1.00  0.00    -0.310 A  
BRANCH  16  19
HETATM   19  O   UNL     1     -12.319  11.756  67.899  1.00  0.00    -0.399 OA 
BRANCH  19  20
HETATM   20  C   UNL     1     -12.060  12.883  67.154  1.00  0.00    -0.219 A  
HETATM   21  C   UNL     1     -11.331  13.898  67.785  1.00  0.00    -0.335 A  
HETATM   22  C   UNL     1     -10.974  15.052  67.080  1.00  0.00    -0.318 A  
HETATM   23  C   UNL     1     -11.353  15.182  65.736  1.00  0.00    -0.238 A  
HETATM   24  C   UNL     1     -12.050  14.150  65.092  1.00  0.00    -0.416 A  
HETATM   25  N   UNL     1     -11.011  16.401  64.996  1.00  0.00    -0.336 N  
HETATM   26  C   UNL     1     -12.382  12.995  65.799  1.00  0.00    -0.477 A  
HETATM   27  O   UNL     1     -10.337  17.261  65.577  1.00  0.00    -0.614 OA 
HETATM   28  O   UNL     1     -11.430  16.506  63.831  1.00  0.00    -1.145 OA 
ENDBRANCH  19  20
ENDBRANCH  16  19
ENDBRANCH  12  13
ENDBRANCH   6  12
ENDBRANCH   5   6
ENDBRANCH   4   5
ENDBRANCH   3   4
ENDBRANCH   2   3
TORSDOF 8
ENDMDL
MODEL       34
REMARK 921   NORMALIZED FREE ENERGY PREDICTED BY IDOCK:   -5.70 KCAL/MOL
REMARK 922        TOTAL FREE ENERGY PREDICTED BY IDOCK:   -9.30 KCAL/MOL
REMARK 923 INTER-LIGAND FREE ENERGY PREDICTED BY IDOCK:   -8.08 KCAL/MOL
REMARK 924 INTRA-LIGAND FREE ENERGY PREDICTED BY IDOCK:   -1.22 KCAL/MOL
REMARK 927      BINDING AFFINITY PREDICTED BY RF-SCORE:    0.00 PKD
ROOT
HETATM    1  C   UNL     1     -13.246  10.498  71.951  1.00  0.00    -0.526 C  
HETATM    2  C   UNL     1     -13.286   8.990  72.083  1.00  0.00    -0.446 C  
ENDROOT
BRANCH   2   3
HETATM    3  O   UNL     1     -12.012   8.471  72.486  1.00  0.00    -0.389 OA 
BRANCH   3   4
HETATM    4  C   UNL     1     -11.256   8.124  71.319  1.00  0.00    -0.260 C  
BRANCH   4   5
HETATM    5  C   UNL     1      -9.963   8.935  71.149  1.00  0.00    -0.272 C  
BRANCH   5   6
HETATM    6  N   UNL     1      -9.388   9.087  69.793  1.00  0.00    -0.164 N  
HETATM    7 CL   UNL     1      -7.673  11.563  67.942  1.00  0.00    -0.114 Cl 
HETATM    8  C   UNL     1      -8.066   9.605  69.757  1.00  0.00    -0.155 C  
HETATM    9  C   UNL     1      -7.408   9.861  68.390  1.00  0.00    -0.078 C  
HETATM   10 CL   UNL     1      -5.661   9.518  68.466  1.00  0.00    -0.040 Cl 
HETATM   11  O   UNL     1      -7.457   9.872  70.801  1.00  0.00    -0.313 OA 
BRANCH   6  12
HETATM   12  C   UNL     1     -10.249   9.171  68.593  1.00  0.00    -0.204 C  
BRANCH  12  13
HETATM   13  C   UNL     1     -10.858  10.503  68.226  1.00  0.00    -0.293 A  
HETATM   14  C   UNL     1     -11.079  10.855  66.886  1.00  0.00    -0.236 A  
HETATM   15  C   UNL     1     -11.510  12.143  66.555  1.00  0.00    -0.430 A  
HETATM   16  C   UNL     1     -11.764  13.091  67.553  1.00  0.00    -0.370 A  
HETATM   17  C   UNL     1     -11.171  11.439  69.225  1.00  0.00    -0.342 A  
HETATM   18  C   UNL     1     -11.602  12.730  68.891  1.00  0.00    -0.362 A  
BRANCH  16  19
HETATM   19  O   UNL     1     -12.059  14.356  67.091  1.00  0.00    -0.414 OA 
BRANCH  19  20
HETATM   20  C   UNL     1     -11.123  15.362  67.148  1.00  0.00    -0.291 A  
HETATM   21  C   UNL     1     -11.235  16.264  68.212  1.00  0.00    -0.324 A  
HETATM   22  C   UNL     1     -10.290  17.281  68.377  1.00  0.00    -0.366 A  
HETATM   23  C   UNL     1      -9.229  17.389  67.467  1.00  0.00    -0.233 A  
HETATM   24  C   UNL     1      -9.093  16.463  66.422  1.00  0.00    -0.341 A  
HETATM   25  N   UNL     1      -8.249  18.470  67.611  1.00  0.00    -0.252 N  
HETATM   26  C   UNL     1     -10.030  15.440  66.280  1.00  0.00    -0.308 A  
HETATM   27  O   UNL     1      -8.362  19.227  68.584  1.00  0.00    -0.357 OA 
HETATM   28  O   UNL     1      -7.368  18.572  66.741  1.00  0.00    -0.203 OA 
ENDBRANCH  19  20
ENDBRANCH  16  19
ENDBRANCH  12  13
ENDBRANCH   6  12
ENDBRANCH   5   6
ENDBRANCH   4   5
ENDBRANCH   3   4
ENDBRANCH   2   3
TORSDOF 8
ENDMDL
MODEL       35
REMARK 921   NORMALIZED FREE ENERGY PREDICTED BY IDOCK:   -5.68 KCAL/MOL
REMARK 922        TOTAL FREE ENERGY PREDICTED BY IDOCK:   -9.27 KCAL/MOL
REMARK 923 INTER-LIGAND FREE ENERGY PREDICTED BY IDOCK:   -8.24 KCAL/MOL
REMARK 924 INTRA-LIGAND FREE ENERGY PREDICTED BY IDOCK:   -1.03 KCAL/MOL
REMARK 927      BINDING AFFINITY PREDICTED BY RF-SCORE:    0.00 PKD
ROOT
HETATM    1  C   UNL     1      -8.353   6.329  73.772  1.00  0.00    -0.116 C  
HETATM    2  C   UNL     1      -9.212   7.569  73.893  1.00  0.00    -0.262 C  
ENDROOT
BRANCH   2   3
HETATM    3  O   UNL     1     -10.603   7.249  73.780  1.00  0.00    -0.364 OA 
BRANCH   3   4
HETATM    4  C   UNL     1     -11.162   7.966  72.671  1.00  0.00    -0.398 C  
BRANCH   4   5
HETATM    5  C   UNL     1     -11.457   7.089  71.444  1.00  0.00    -0.276 C  
BRANCH   5   6
HETATM    6  N   UNL     1     -10.350   6.763  70.518  1.00  0.00    -0.199 N  
HETATM    7 CL   UNL     1      -7.222   5.120  70.656  1.00  0.00    -0.065 Cl 
HETATM    8  C   UNL     1      -9.903   5.415  70.569  1.00  0.00    -0.203 C  
HETATM    9  C   UNL     1      -8.712   4.996  69.691  1.00  0.00    -0.091 C  
HETATM   10 CL   UNL     1      -8.924   3.323  69.113  1.00  0.00    -0.163 Cl 
HETATM   11  O   UNL     1     -10.441   4.594  71.323  1.00  0.00    -0.128 OA 
BRANCH   6  12
HETATM   12  C   UNL     1      -9.469   7.814  69.964  1.00  0.00    -0.161 C  
BRANCH  12  13
HETATM   13  C   UNL     1      -9.815   8.424  68.628  1.00  0.00    -0.180 A  
HETATM   14  C   UNL     1      -9.304   7.893  67.434  1.00  0.00    -0.169 A  
HETATM   15  C   UNL     1      -9.517   8.551  66.219  1.00  0.00    -0.299 A  
HETATM   16  C   UNL     1     -10.272   9.728  66.165  1.00  0.00    -0.208 A  
HETATM   17  C   UNL     1     -10.620   9.573  68.560  1.00  0.00    -0.247 A  
HETATM   18  C   UNL     1     -10.831  10.231  67.340  1.00  0.00    -0.336 A  
BRANCH  16  19
HETATM   19  O   UNL     1     -10.300  10.345  64.932  1.00  0.00    -0.317 OA 
BRANCH  19  20
HETATM   20  C   UNL     1     -10.484  11.704  64.830  1.00  0.00    -0.288 A  
HETATM   21  C   UNL     1     -11.522  12.136  63.996  1.00  0.00    -0.488 A  
HETATM   22  C   UNL     1     -11.813  13.499  63.881  1.00  0.00    -0.460 A  
HETATM   23  C   UNL     1     -11.057  14.428  64.610  1.00  0.00    -0.354 A  
HETATM   24  C   UNL     1     -10.042  13.995  65.476  1.00  0.00    -0.343 A  
HETATM   25  N   UNL     1     -11.333  15.861  64.474  1.00  0.00    -0.399 N  
HETATM   26  C   UNL     1      -9.774  12.632  65.598  1.00  0.00    -0.149 A  
HETATM   27  O   UNL     1     -12.280  16.202  63.754  1.00  0.00    -0.934 OA 
HETATM   28  O   UNL     1     -10.591  16.653  65.080  1.00  0.00    -0.645 OA 
ENDBRANCH  19  20
ENDBRANCH  16  19
ENDBRANCH  12  13
ENDBRANCH   6  12
ENDBRANCH   5   6
ENDBRANCH   4   5
ENDBRANCH   3   4
ENDBRANCH   2   3
TORSDOF 8
ENDMDL
MODEL       36
REMARK 921   NORMALIZED FREE ENERGY PREDICTED BY IDOCK:   -5.68 KCAL/MOL
REMARK 922        TOTAL FREE ENERGY PREDICTED BY IDOCK:   -9.27 KCAL/MOL
REMARK 923 INTER-LIGAND FREE ENERGY PREDICTED BY IDOCK:   -7.90 KCAL/MOL
REMARK 924 INTRA-LIGAND FREE ENERGY PREDICTED BY IDOCK:   -1.36 KCAL/MOL
REMARK 927      BINDING AFFINITY PREDICTED BY RF-SCORE:    0.00 PKD
ROOT
HETATM    1  C   UNL     1      -9.360   3.831  69.733  1.00  0.00    -0.245 C  
HETATM    2  C   UNL     1      -8.743   4.590  68.577  1.00  0.00    -0.099 C  
ENDROOT
BRANCH   2   3
HETATM    3  O   UNL     1      -9.751   5.094  67.692  1.00  0.00    -0.134 OA 
BRANCH   3   4
HETATM    4  C   UNL     1      -9.500   6.482  67.435  1.00  0.00    -0.124 C  
BRANCH   4   5
HETATM    5  C   UNL     1     -10.469   7.435  68.151  1.00  0.00    -0.193 C  
BRANCH   5   6
HETATM    6  N   UNL     1     -10.205   7.794  69.562  1.00  0.00    -0.202 N  
HETATM    7 CL   UNL     1     -12.079   8.629  72.442  1.00  0.00    -0.439 Cl 
HETATM    8  C   UNL     1     -10.985   7.087  70.516  1.00  0.00    -0.265 C  
HETATM    9  C   UNL     1     -10.831   7.438  72.006  1.00  0.00    -0.227 C  
HETATM   10 CL   UNL     1     -11.008   5.977  73.010  1.00  0.00    -0.289 Cl 
HETATM   11  O   UNL     1     -11.795   6.221  70.160  1.00  0.00    -0.349 OA 
BRANCH   6  12
HETATM   12  C   UNL     1      -9.577   9.082  69.929  1.00  0.00    -0.183 C  
BRANCH  12  13
HETATM   13  C   UNL     1     -10.150  10.359  69.362  1.00  0.00    -0.251 A  
HETATM   14  C   UNL     1     -11.433  10.798  69.719  1.00  0.00    -0.386 A  
HETATM   15  C   UNL     1     -12.005  11.903  69.080  1.00  0.00    -0.336 A  
HETATM   16  C   UNL     1     -11.297  12.611  68.104  1.00  0.00    -0.290 A  
HETATM   17  C   UNL     1      -9.421  11.108  68.425  1.00  0.00    -0.189 A  
HETATM   18  C   UNL     1      -9.997  12.215  67.785  1.00  0.00    -0.198 A  
BRANCH  16  19
HETATM   19  O   UNL     1     -12.017  13.597  67.463  1.00  0.00    -0.363 OA 
BRANCH  19  20
HETATM   20  C   UNL     1     -11.493  14.858  67.301  1.00  0.00    -0.340 A  
HETATM   21  C   UNL     1     -11.469  15.679  68.435  1.00  0.00    -0.374 A  
HETATM   22  C   UNL     1     -10.900  16.954  68.370  1.00  0.00    -0.347 A  
HETATM   23  C   UNL     1     -10.352  17.403  67.160  1.00  0.00    -0.325 A  
HETATM   24  C   UNL     1     -10.341  16.568  66.033  1.00  0.00    -0.358 A  
HETATM   25  N   UNL     1      -9.781  18.750  67.072  1.00  0.00    -0.300 N  
HETATM   26  C   UNL     1     -10.893  15.290  66.115  1.00  0.00    -0.320 A  
HETATM   27  O   UNL     1      -9.747  19.433  68.104  1.00  0.00    -0.338 OA 
HETATM   28  O   UNL     1      -9.374  19.134  65.962  1.00  0.00    -0.439 OA 
ENDBRANCH  19  20
ENDBRANCH  16  19
ENDBRANCH  12  13
ENDBRANCH   6  12
ENDBRANCH   5   6
ENDBRANCH   4   5
ENDBRANCH   3   4
ENDBRANCH   2   3
TORSDOF 8
ENDMDL
MODEL       37
REMARK 921   NORMALIZED FREE ENERGY PREDICTED BY IDOCK:   -5.66 KCAL/MOL
REMARK 922        TOTAL FREE ENERGY PREDICTED BY IDOCK:   -9.25 KCAL/MOL
REMARK 923 INTER-LIGAND FREE ENERGY PREDICTED BY IDOCK:   -8.42 KCAL/MOL
REMARK 924 INTRA-LIGAND FREE ENERGY PREDICTED BY IDOCK:   -0.83 KCAL/MOL
REMARK 927      BINDING AFFINITY PREDICTED BY RF-SCORE:    0.00 PKD
ROOT
HETATM    1  C   UNL     1     -11.052  11.579  63.636  1.00  0.00    -0.469 C  
HETATM    2  C   UNL     1     -12.472  12.034  63.374  1.00  0.00    -0.509 C  
ENDROOT
BRANCH   2   3
HETATM    3  O   UNL     1     -13.081  12.543  64.566  1.00  0.00    -0.816 OA 
BRANCH   3   4
HETATM    4  C   UNL     1     -12.133  12.490  65.639  1.00  0.00    -0.400 C  
BRANCH   4   5
HETATM    5  C   UNL     1     -12.118  13.746  66.523  1.00  0.00    -0.443 C  
BRANCH   5   6
HETATM    6  N   UNL     1     -11.350  13.720  67.788  1.00  0.00    -0.288 N  
HETATM    7 CL   UNL     1      -8.939  15.721  69.426  1.00  0.00    -0.264 Cl 
HETATM    8  C   UNL     1     -11.357  14.938  68.519  1.00  0.00    -0.298 C  
HETATM    9  C   UNL     1     -10.532  15.029  69.814  1.00  0.00    -0.186 C  
HETATM   10 CL   UNL     1     -11.365  16.054  71.011  1.00  0.00    -0.427 Cl 
HETATM   11  O   UNL     1     -11.993  15.920  68.114  1.00  0.00    -0.130 OA 
BRANCH   6  12
HETATM   12  C   UNL     1     -10.286  12.719  68.027  1.00  0.00    -0.229 C  
BRANCH  12  13
HETATM   13  C   UNL     1     -10.546  11.601  69.007  1.00  0.00    -0.188 A  
HETATM   14  C   UNL     1      -9.554  10.657  69.309  1.00  0.00    -0.164 A  
HETATM   15  C   UNL     1      -9.853   9.548  70.108  1.00  0.00    -0.288 A  
HETATM   16  C   UNL     1     -11.132   9.380  70.648  1.00  0.00    -0.289 A  
HETATM   17  C   UNL     1     -11.811  11.458  69.600  1.00  0.00    -0.431 A  
HETATM   18  C   UNL     1     -12.108  10.345  70.398  1.00  0.00    -0.402 A  
BRANCH  16  19
HETATM   19  O   UNL     1     -11.331   8.186  71.308  1.00  0.00    -0.254 OA 
BRANCH  19  20
HETATM   20  C   UNL     1     -10.870   7.003  70.778  1.00  0.00    -0.246 A  
HETATM   21  C   UNL     1     -10.282   6.102  71.673  1.00  0.00    -0.235 A  
HETATM   22  C   UNL     1      -9.840   4.853  71.226  1.00  0.00    -0.253 A  
HETATM   23  C   UNL     1      -9.992   4.511  69.875  1.00  0.00    -0.203 A  
HETATM   24  C   UNL     1     -10.616   5.397  68.985  1.00  0.00    -0.217 A  
HETATM   25  N   UNL     1      -9.504   3.217  69.389  1.00  0.00    -0.165 N  
HETATM   26  C   UNL     1     -11.072   6.632  69.446  1.00  0.00    -0.365 A  
HETATM   27  O   UNL     1      -9.020   2.434  70.216  1.00  0.00    -0.076 OA 
HETATM   28  O   UNL     1      -9.593   2.986  68.171  1.00  0.00    -0.184 OA 
ENDBRANCH  19  20
ENDBRANCH  16  19
ENDBRANCH  12  13
ENDBRANCH   6  12
ENDBRANCH   5   6
ENDBRANCH   4   5
ENDBRANCH   3   4
ENDBRANCH   2   3
TORSDOF 8
ENDMDL
MODEL       38
REMARK 921   NORMALIZED FREE ENERGY PREDICTED BY IDOCK:   -5.66 KCAL/MOL
REMARK 922        TOTAL FREE ENERGY PREDICTED BY IDOCK:   -9.25 KCAL/MOL
REMARK 923 INTER-LIGAND FREE ENERGY PREDICTED BY IDOCK:   -8.09 KCAL/MOL
REMARK 924 INTRA-LIGAND FREE ENERGY PREDICTED BY IDOCK:   -1.16 KCAL/MOL
REMARK 927      BINDING AFFINITY PREDICTED BY RF-SCORE:    0.00 PKD
ROOT
HETATM    1  C   UNL     1      -5.884  13.704  69.866  1.00  0.00    -0.124 C  
HETATM    2  C   UNL     1      -6.183  15.164  69.598  1.00  0.00    -0.135 C  
ENDROOT
BRANCH   2   3
HETATM    3  O   UNL     1      -5.544  15.612  68.397  1.00  0.00    -0.098 OA 
BRANCH   3   4
HETATM    4  C   UNL     1      -6.038  16.914  68.059  1.00  0.00    -0.132 C  
BRANCH   4   5
HETATM    5  C   UNL     1      -7.035  16.920  66.889  1.00  0.00    -0.216 C  
BRANCH   5   6
HETATM    6  N   UNL     1      -8.448  17.264  67.158  1.00  0.00    -0.200 N  
HETATM    7 CL   UNL     1     -10.286  20.053  68.317  1.00  0.00    -0.558 Cl 
HETATM    8  C   UNL     1      -8.877  18.505  66.614  1.00  0.00    -0.294 C  
HETATM    9  C   UNL     1     -10.312  18.981  66.897  1.00  0.00    -0.407 C  
HETATM   10 CL   UNL     1     -10.966  19.855  65.488  1.00  0.00    -0.319 Cl 
HETATM   11  O   UNL     1      -8.107  19.207  65.946  1.00  0.00    -0.449 OA 
BRANCH   6  12
HETATM   12  C   UNL     1      -9.196  16.649  68.277  1.00  0.00    -0.217 C  
BRANCH  12  13
HETATM   13  C   UNL     1      -9.961  15.372  68.025  1.00  0.00    -0.221 A  
HETATM   14  C   UNL     1     -11.299  15.238  68.424  1.00  0.00    -0.338 A  
HETATM   15  C   UNL     1     -11.950  14.006  68.313  1.00  0.00    -0.384 A  
HETATM   16  C   UNL     1     -11.294  12.896  67.771  1.00  0.00    -0.299 A  
HETATM   17  C   UNL     1      -9.326  14.271  67.428  1.00  0.00    -0.203 A  
HETATM   18  C   UNL     1      -9.981  13.036  67.319  1.00  0.00    -0.232 A  
BRANCH  16  19
HETATM   19  O   UNL     1     -12.000  11.713  67.835  1.00  0.00    -0.599 OA 
BRANCH  19  20
HETATM   20  C   UNL     1     -11.777  10.815  68.851  1.00  0.00    -0.267 A  
HETATM   21  C   UNL     1     -10.842   9.803  68.601  1.00  0.00    -0.223 A  
HETATM   22  C   UNL     1     -10.514   8.884  69.602  1.00  0.00    -0.218 A  
HETATM   23  C   UNL     1     -11.128   8.984  70.858  1.00  0.00    -0.280 A  
HETATM   24  C   UNL     1     -12.036  10.020  71.123  1.00  0.00    -0.484 A  
HETATM   25  N   UNL     1     -10.815   8.007  71.905  1.00  0.00    -0.242 N  
HETATM   26  C   UNL     1     -12.341  10.944  70.124  1.00  0.00    -0.399 A  
HETATM   27  O   UNL     1      -9.958   7.148  71.657  1.00  0.00    -0.178 OA 
HETATM   28  O   UNL     1     -11.437   8.090  72.977  1.00  0.00    -0.370 OA 
ENDBRANCH  19  20
ENDBRANCH  16  19
ENDBRANCH  12  13
ENDBRANCH   6  12
ENDBRANCH   5   6
ENDBRANCH   4   5
ENDBRANCH   3   4
ENDBRANCH   2   3
TORSDOF 8
ENDMDL
MODEL       39
REMARK 921   NORMALIZED FREE ENERGY PREDICTED BY IDOCK:   -5.66 KCAL/MOL
REMARK 922        TOTAL FREE ENERGY PREDICTED BY IDOCK:   -9.24 KCAL/MOL
REMARK 923 INTER-LIGAND FREE ENERGY PREDICTED BY IDOCK:   -8.20 KCAL/MOL
REMARK 924 INTRA-LIGAND FREE ENERGY PREDICTED BY IDOCK:   -1.04 KCAL/MOL
REMARK 927      BINDING AFFINITY PREDICTED BY RF-SCORE:    0.00 PKD
ROOT
HETATM    1  C   UNL     1     -13.825  13.788  72.365  1.00  0.00    -0.681 C  
HETATM    2  C   UNL     1     -13.075  12.713  71.609  1.00  0.00    -0.323 C  
ENDROOT
BRANCH   2   3
HETATM    3  O   UNL     1     -13.346  11.414  72.149  1.00  0.00    -0.469 OA 
BRANCH   3   4
HETATM    4  C   UNL     1     -12.866  10.416  71.239  1.00  0.00    -0.433 C  
BRANCH   4   5
HETATM    5  C   UNL     1     -11.644  10.855  70.418  1.00  0.00    -0.323 C  
BRANCH   5   6
HETATM    6  N   UNL     1     -11.614  10.559  68.969  1.00  0.00    -0.238 N  
HETATM    7 CL   UNL     1      -9.209   9.695  66.526  1.00  0.00    -0.185 Cl 
HETATM    8  C   UNL     1     -10.894   9.388  68.611  1.00  0.00    -0.109 C  
HETATM    9  C   UNL     1     -10.750   9.034  67.121  1.00  0.00    -0.136 C  
HETATM   10 CL   UNL     1     -10.779   7.266  66.896  1.00  0.00    -0.405 Cl 
HETATM   11  O   UNL     1     -10.368   8.674  69.475  1.00  0.00    -0.206 OA 
BRANCH   6  12
HETATM   12  C   UNL     1     -11.865  11.611  67.959  1.00  0.00    -0.225 C  
BRANCH  12  13
HETATM   13  C   UNL     1     -11.169  12.942  68.106  1.00  0.00    -0.305 A  
HETATM   14  C   UNL     1      -9.771  13.024  68.192  1.00  0.00    -0.228 A  
HETATM   15  C   UNL     1      -9.150  14.246  68.470  1.00  0.00    -0.191 A  
HETATM   16  C   UNL     1      -9.906  15.413  68.631  1.00  0.00    -0.208 A  
HETATM   17  C   UNL     1     -11.918  14.126  68.210  1.00  0.00    -0.367 A  
HETATM   18  C   UNL     1     -11.293  15.349  68.490  1.00  0.00    -0.342 A  
BRANCH  16  19
HETATM   19  O   UNL     1      -9.188  16.521  69.026  1.00  0.00    -0.257 OA 
BRANCH  19  20
HETATM   20  C   UNL     1      -8.571  17.327  68.099  1.00  0.00    -0.242 A  
HETATM   21  C   UNL     1      -8.219  18.615  68.520  1.00  0.00    -0.370 A  
HETATM   22  C   UNL     1      -7.537  19.477  67.657  1.00  0.00    -0.301 A  
HETATM   23  C   UNL     1      -7.206  19.041  66.367  1.00  0.00    -0.236 A  
HETATM   24  C   UNL     1      -7.523  17.738  65.955  1.00  0.00    -0.284 A  
HETATM   25  N   UNL     1      -6.518  19.947  65.443  1.00  0.00    -0.247 N  
HETATM   26  C   UNL     1      -8.186  16.879  66.831  1.00  0.00    -0.245 A  
HETATM   27  O   UNL     1      -6.194  21.065  65.863  1.00  0.00    -0.253 OA 
HETATM   28  O   UNL     1      -6.311  19.545  64.285  1.00  0.00    -0.395 OA 
ENDBRANCH  19  20
ENDBRANCH  16  19
ENDBRANCH  12  13
ENDBRANCH   6  12
ENDBRANCH   5   6
ENDBRANCH   4   5
ENDBRANCH   3   4
ENDBRANCH   2   3
TORSDOF 8
ENDMDL
MODEL       40
REMARK 921   NORMALIZED FREE ENERGY PREDICTED BY IDOCK:   -5.66 KCAL/MOL
REMARK 922        TOTAL FREE ENERGY PREDICTED BY IDOCK:   -9.24 KCAL/MOL
REMARK 923 INTER-LIGAND FREE ENERGY PREDICTED BY IDOCK:   -7.82 KCAL/MOL
REMARK 924 INTRA-LIGAND FREE ENERGY PREDICTED BY IDOCK:   -1.42 KCAL/MOL
REMARK 927      BINDING AFFINITY PREDICTED BY RF-SCORE:    0.00 PKD
ROOT
HETATM    1  C   UNL     1     -10.141  12.144  64.289  1.00  0.00    -0.317 C  
HETATM    2  C   UNL     1     -10.249  10.925  65.181  1.00  0.00    -0.297 C  
ENDROOT
BRANCH   2   3
HETATM    3  O   UNL     1      -8.980  10.588  65.755  1.00  0.00    -0.167 OA 
BRANCH   3   4
HETATM    4  C   UNL     1      -9.184   9.683  66.847  1.00  0.00    -0.143 C  
BRANCH   4   5
HETATM    5  C   UNL     1     -10.605   9.717  67.430  1.00  0.00    -0.268 C  
BRANCH   5   6
HETATM    6  N   UNL     1     -10.794  10.178  68.823  1.00  0.00    -0.217 N  
HETATM    7 CL   UNL     1     -12.856   9.385  71.583  1.00  0.00    -0.425 Cl 
HETATM    8  C   UNL     1     -10.849   9.144  69.795  1.00  0.00    -0.211 C  
HETATM    9  C   UNL     1     -11.111   9.521  71.263  1.00  0.00    -0.379 C  
HETATM   10 CL   UNL     1     -10.208   8.438  72.353  1.00  0.00    -0.395 Cl 
HETATM   11  O   UNL     1     -10.716   7.957  69.470  1.00  0.00    -0.236 OA 
BRANCH   6  12
HETATM   12  C   UNL     1     -11.363  11.510  69.126  1.00  0.00    -0.286 C  
BRANCH  12  13
HETATM   13  C   UNL     1     -11.009  12.673  68.232  1.00  0.00    -0.275 A  
HETATM   14  C   UNL     1      -9.715  13.217  68.227  1.00  0.00    -0.223 A  
HETATM   15  C   UNL     1      -9.440  14.380  67.502  1.00  0.00    -0.207 A  
HETATM   16  C   UNL     1     -10.436  15.001  66.740  1.00  0.00    -0.283 A  
HETATM   17  C   UNL     1     -11.988  13.267  67.419  1.00  0.00    -0.383 A  
HETATM   18  C   UNL     1     -11.709  14.433  66.694  1.00  0.00    -0.410 A  
BRANCH  16  19
HETATM   19  O   UNL     1     -10.071  16.206  66.177  1.00  0.00    -0.297 OA 
BRANCH  19  20
HETATM   20  C   UNL     1      -9.180  17.038  66.813  1.00  0.00    -0.252 A  
HETATM   21  C   UNL     1      -7.945  17.234  66.184  1.00  0.00    -0.292 A  
HETATM   22  C   UNL     1      -7.005  18.110  66.735  1.00  0.00    -0.226 A  
HETATM   23  C   UNL     1      -7.310  18.792  67.921  1.00  0.00    -0.241 A  
HETATM   24  C   UNL     1      -8.562  18.627  68.532  1.00  0.00    -0.370 A  
HETATM   25  N   UNL     1      -6.320  19.689  68.524  1.00  0.00    -0.244 N  
HETATM   26  C   UNL     1      -9.500  17.766  67.963  1.00  0.00    -0.281 A  
HETATM   27  O   UNL     1      -5.254  19.863  67.921  1.00  0.00    -0.174 OA 
HETATM   28  O   UNL     1      -6.605  20.215  69.613  1.00  0.00    -0.319 OA 
ENDBRANCH  19  20
ENDBRANCH  16  19
ENDBRANCH  12  13
ENDBRANCH   6  12
ENDBRANCH   5   6
ENDBRANCH   4   5
ENDBRANCH   3   4
ENDBRANCH   2   3
TORSDOF 8
ENDMDL
MODEL       41
REMARK 921   NORMALIZED FREE ENERGY PREDICTED BY IDOCK:   -5.65 KCAL/MOL
REMARK 922        TOTAL FREE ENERGY PREDICTED BY IDOCK:   -9.23 KCAL/MOL
REMARK 923 INTER-LIGAND FREE ENERGY PREDICTED BY IDOCK:   -8.24 KCAL/MOL
REMARK 924 INTRA-LIGAND FREE ENERGY PREDICTED BY IDOCK:   -0.99 KCAL/MOL
REMARK 927      BINDING AFFINITY PREDICTED BY RF-SCORE:    0.00 PKD
ROOT
HETATM    1  C   UNL     1      -8.808   5.164  65.173  1.00  0.00    -0.146 C  
HETATM    2  C   UNL     1      -9.818   4.108  65.568  1.00  0.00    -0.207 C  
ENDROOT
BRANCH   2   3
HETATM    3  O   UNL     1     -10.773   4.628  66.501  1.00  0.00    -0.152 OA 
BRANCH   3   4
HETATM    4  C   UNL     1     -10.133   5.603  67.335  1.00  0.00    -0.173 C  
BRANCH   4   5
HETATM    5  C   UNL     1     -11.083   6.307  68.316  1.00  0.00    -0.269 C  
BRANCH   5   6
HETATM    6  N   UNL     1     -10.516   7.244  69.310  1.00  0.00    -0.212 N  
HETATM    7 CL   UNL     1     -11.689   9.768  71.491  1.00  0.00    -0.460 Cl 
HETATM    8  C   UNL     1     -11.200   7.285  70.554  1.00  0.00    -0.279 C  
HETATM    9  C   UNL     1     -10.726   8.278  71.629  1.00  0.00    -0.256 C  
HETATM   10 CL   UNL     1     -10.922   7.576  73.255  1.00  0.00    -0.424 Cl 
HETATM   11  O   UNL     1     -12.177   6.555  70.768  1.00  0.00    -0.328 OA 
BRANCH   6  12
HETATM   12  C   UNL     1      -9.653   8.375  68.903  1.00  0.00    -0.153 C  
BRANCH  12  13
HETATM   13  C   UNL     1     -10.123   9.288  67.796  1.00  0.00    -0.253 A  
HETATM   14  C   UNL     1      -9.670   9.124  66.479  1.00  0.00    -0.306 A  
HETATM   15  C   UNL     1     -10.001  10.061  65.495  1.00  0.00    -0.367 A  
HETATM   16  C   UNL     1     -10.820  11.155  65.796  1.00  0.00    -0.151 A  
HETATM   17  C   UNL     1     -10.992  10.355  68.078  1.00  0.00    -0.347 A  
HETATM   18  C   UNL     1     -11.322  11.293  67.090  1.00  0.00    -0.295 A  
BRANCH  16  19
HETATM   19  O   UNL     1     -10.967  12.069  64.774  1.00  0.00    -0.292 OA 
BRANCH  19  20
HETATM   20  C   UNL     1     -10.701  13.403  64.981  1.00  0.00    -0.343 A  
HETATM   21  C   UNL     1     -11.558  14.317  64.357  1.00  0.00    -0.358 A  
HETATM   22  C   UNL     1     -11.394  15.690  64.562  1.00  0.00    -0.327 A  
HETATM   23  C   UNL     1     -10.363  16.143  65.398  1.00  0.00    -0.330 A  
HETATM   24  C   UNL     1      -9.528  15.227  66.054  1.00  0.00    -0.372 A  
HETATM   25  N   UNL     1     -10.162  17.582  65.596  1.00  0.00    -0.161 N  
HETATM   26  C   UNL     1      -9.714  13.859  65.859  1.00  0.00    -0.237 A  
HETATM   27  O   UNL     1     -10.960  18.357  65.055  1.00  0.00    -0.644 OA 
HETATM   28  O   UNL     1      -9.192  17.940  66.285  1.00  0.00    -0.395 OA 
ENDBRANCH  19  20
ENDBRANCH  16  19
ENDBRANCH  12  13
ENDBRANCH   6  12
ENDBRANCH   5   6
ENDBRANCH   4   5
ENDBRANCH   3   4
ENDBRANCH   2   3
TORSDOF 8
ENDMDL
MODEL       42
REMARK 921   NORMALIZED FREE ENERGY PREDICTED BY IDOCK:   -5.65 KCAL/MOL
REMARK 922        TOTAL FREE ENERGY PREDICTED BY IDOCK:   -9.23 KCAL/MOL
REMARK 923 INTER-LIGAND FREE ENERGY PREDICTED BY IDOCK:   -8.68 KCAL/MOL
REMARK 924 INTRA-LIGAND FREE ENERGY PREDICTED BY IDOCK:   -0.54 KCAL/MOL
REMARK 927      BINDING AFFINITY PREDICTED BY RF-SCORE:    0.00 PKD
ROOT
HETATM    1  C   UNL     1     -10.919  11.748  63.443  1.00  0.00    -0.458 C  
HETATM    2  C   UNL     1     -12.421  11.934  63.495  1.00  0.00    -0.492 C  
ENDROOT
BRANCH   2   3
HETATM    3  O   UNL     1     -12.781  12.994  64.388  1.00  0.00    -0.652 OA 
BRANCH   3   4
HETATM    4  C   UNL     1     -11.854  13.024  65.481  1.00  0.00    -0.395 C  
BRANCH   4   5
HETATM    5  C   UNL     1     -12.249  13.988  66.610  1.00  0.00    -0.428 C  
BRANCH   5   6
HETATM    6  N   UNL     1     -11.520  13.919  67.896  1.00  0.00    -0.299 N  
HETATM    7 CL   UNL     1      -8.903  15.661  69.514  1.00  0.00    -0.258 Cl 
HETATM    8  C   UNL     1     -11.383  15.160  68.574  1.00  0.00    -0.309 C  
HETATM    9  C   UNL     1     -10.582  15.202  69.887  1.00  0.00    -0.235 C  
HETATM   10 CL   UNL     1     -11.298  16.381  71.015  1.00  0.00    -0.326 Cl 
HETATM   11  O   UNL     1     -11.874  16.198  68.110  1.00  0.00    -0.152 OA 
BRANCH   6  12
HETATM   12  C   UNL     1     -10.604  12.801  68.206  1.00  0.00    -0.238 C  
BRANCH  12  13
HETATM   13  C   UNL     1     -11.040  11.759  69.208  1.00  0.00    -0.278 A  
HETATM   14  C   UNL     1     -10.431  10.496  69.254  1.00  0.00    -0.258 A  
HETATM   15  C   UNL     1     -10.939   9.495  70.088  1.00  0.00    -0.302 A  
HETATM   16  C   UNL     1     -12.038   9.745  70.917  1.00  0.00    -0.321 A  
HETATM   17  C   UNL     1     -12.106  12.021  70.085  1.00  0.00    -0.377 A  
HETATM   18  C   UNL     1     -12.614  11.016  70.919  1.00  0.00    -0.488 A  
BRANCH  16  19
HETATM   19  O   UNL     1     -12.518   8.643  71.592  1.00  0.00    -0.308 OA 
BRANCH  19  20
HETATM   20  C   UNL     1     -11.657   7.762  72.204  1.00  0.00    -0.317 A  
HETATM   21  C   UNL     1     -11.938   6.399  72.048  1.00  0.00    -0.375 A  
HETATM   22  C   UNL     1     -11.080   5.437  72.589  1.00  0.00    -0.332 A  
HETATM   23  C   UNL     1      -9.936   5.848  73.286  1.00  0.00    -0.181 A  
HETATM   24  C   UNL     1      -9.632   7.212  73.410  1.00  0.00    -0.249 A  
HETATM   25  N   UNL     1      -9.046   4.848  73.884  1.00  0.00    -0.113 N  
HETATM   26  C   UNL     1     -10.484   8.163  72.850  1.00  0.00    -0.338 A  
HETATM   27  O   UNL     1      -9.309   3.654  73.696  1.00  0.00    -0.099 OA 
HETATM   28  O   UNL     1      -8.085   5.259  74.556  1.00  0.00    -0.101 OA 
ENDBRANCH  19  20
ENDBRANCH  16  19
ENDBRANCH  12  13
ENDBRANCH   6  12
ENDBRANCH   5   6
ENDBRANCH   4   5
ENDBRANCH   3   4
ENDBRANCH   2   3
TORSDOF 8
ENDMDL
MODEL       43
REMARK 921   NORMALIZED FREE ENERGY PREDICTED BY IDOCK:   -5.60 KCAL/MOL
REMARK 922        TOTAL FREE ENERGY PREDICTED BY IDOCK:   -9.16 KCAL/MOL
REMARK 923 INTER-LIGAND FREE ENERGY PREDICTED BY IDOCK:   -7.95 KCAL/MOL
REMARK 924 INTRA-LIGAND FREE ENERGY PREDICTED BY IDOCK:   -1.21 KCAL/MOL
REMARK 927      BINDING AFFINITY PREDICTED BY RF-SCORE:    0.00 PKD
ROOT
HETATM    1  C   UNL     1      -9.558  19.967  66.927  1.00  0.00    -0.541 C  
HETATM    2  C   UNL     1     -10.410  19.029  66.100  1.00  0.00    -0.468 C  
ENDROOT
BRANCH   2   3
HETATM    3  O   UNL     1     -10.576  17.765  66.755  1.00  0.00    -0.318 OA 
BRANCH   3   4
HETATM    4  C   UNL     1     -10.656  17.977  68.170  1.00  0.00    -0.319 C  
BRANCH   4   5
HETATM    5  C   UNL     1     -10.521  16.693  69.003  1.00  0.00    -0.328 C  
BRANCH   5   6
HETATM    6  N   UNL     1     -11.715  15.843  69.204  1.00  0.00    -0.380 N  
HETATM    7 CL   UNL     1     -12.710  13.189  71.317  1.00  0.00    -0.439 Cl 
HETATM    8  C   UNL     1     -12.139  15.713  70.553  1.00  0.00    -0.395 C  
HETATM    9  C   UNL     1     -13.332  14.795  70.870  1.00  0.00    -0.322 C  
HETATM   10 CL   UNL     1     -14.295  15.468  72.211  1.00  0.00    -0.635 Cl 
HETATM   11  O   UNL     1     -11.547  16.304  71.466  1.00  0.00    -0.457 OA 
BRANCH   6  12
HETATM   12  C   UNL     1     -12.127  14.838  68.199  1.00  0.00    -0.132 C  
BRANCH  12  13
HETATM   13  C   UNL     1     -11.090  13.887  67.653  1.00  0.00    -0.295 A  
HETATM   14  C   UNL     1     -10.847  13.793  66.274  1.00  0.00    -0.283 A  
HETATM   15  C   UNL     1      -9.988  12.810  65.773  1.00  0.00    -0.259 A  
HETATM   16  C   UNL     1      -9.328  11.929  66.637  1.00  0.00    -0.205 A  
HETATM   17  C   UNL     1     -10.380  13.039  68.518  1.00  0.00    -0.247 A  
HETATM   18  C   UNL     1      -9.520  12.054  68.013  1.00  0.00    -0.199 A  
BRANCH  16  19
HETATM   19  O   UNL     1      -8.612  10.929  66.012  1.00  0.00    -0.170 OA 
BRANCH  19  20
HETATM   20  C   UNL     1      -8.805   9.610  66.350  1.00  0.00    -0.150 A  
HETATM   21  C   UNL     1      -7.689   8.917  66.834  1.00  0.00    -0.098 A  
HETATM   22  C   UNL     1      -7.812   7.590  67.255  1.00  0.00    -0.118 A  
HETATM   23  C   UNL     1      -9.062   6.959  67.188  1.00  0.00    -0.131 A  
HETATM   24  C   UNL     1     -10.189   7.663  66.739  1.00  0.00    -0.333 A  
HETATM   25  N   UNL     1      -9.197   5.558  67.597  1.00  0.00    -0.110 N  
HETATM   26  C   UNL     1     -10.059   8.993  66.341  1.00  0.00    -0.351 A  
HETATM   27  O   UNL     1      -8.196   4.989  68.051  1.00  0.00    -0.097 OA 
HETATM   28  O   UNL     1     -10.306   5.017  67.451  1.00  0.00    -0.175 OA 
ENDBRANCH  19  20
ENDBRANCH  16  19
ENDBRANCH  12  13
ENDBRANCH   6  12
ENDBRANCH   5   6
ENDBRANCH   4   5
ENDBRANCH   3   4
ENDBRANCH   2   3
TORSDOF 8
ENDMDL
MODEL       44
REMARK 921   NORMALIZED FREE ENERGY PREDICTED BY IDOCK:   -5.58 KCAL/MOL
REMARK 922        TOTAL FREE ENERGY PREDICTED BY IDOCK:   -9.12 KCAL/MOL
REMARK 923 INTER-LIGAND FREE ENERGY PREDICTED BY IDOCK:   -7.88 KCAL/MOL
REMARK 924 INTRA-LIGAND FREE ENERGY PREDICTED BY IDOCK:   -1.24 KCAL/MOL
REMARK 927      BINDING AFFINITY PREDICTED BY RF-SCORE:    0.00 PKD
ROOT
HETATM    1  C   UNL     1     -12.908   9.770  72.047  1.00  0.00    -0.491 C  
HETATM    2  C   UNL     1     -11.795   8.752  71.927  1.00  0.00    -0.367 C  
ENDROOT
BRANCH   2   3
HETATM    3  O   UNL     1     -10.533   9.388  71.694  1.00  0.00    -0.325 OA 
BRANCH   3   4
HETATM    4  C   UNL     1      -9.589   8.410  71.240  1.00  0.00    -0.185 C  
BRANCH   4   5
HETATM    5  C   UNL     1      -8.878   8.786  69.931  1.00  0.00    -0.143 C  
BRANCH   5   6
HETATM    6  N   UNL     1      -9.348   8.182  68.665  1.00  0.00    -0.143 N  
HETATM    7 CL   UNL     1      -8.435   8.228  65.249  1.00  0.00    -0.182 Cl 
HETATM    8  C   UNL     1      -8.330   7.591  67.869  1.00  0.00    -0.123 C  
HETATM    9  C   UNL     1      -8.709   6.995  66.503  1.00  0.00    -0.134 C  
HETATM   10 CL   UNL     1      -7.725   5.550  66.159  1.00  0.00    -0.094 Cl 
HETATM   11  O   UNL     1      -7.152   7.575  68.251  1.00  0.00    -0.079 OA 
BRANCH   6  12
HETATM   12  C   UNL     1     -10.633   8.578  68.048  1.00  0.00    -0.137 C  
BRANCH  12  13
HETATM   13  C   UNL     1     -10.899  10.042  67.798  1.00  0.00    -0.337 A  
HETATM   14  C   UNL     1     -11.473  10.854  68.788  1.00  0.00    -0.376 A  
HETATM   15  C   UNL     1     -11.844  12.170  68.495  1.00  0.00    -0.365 A  
HETATM   16  C   UNL     1     -11.617  12.712  67.226  1.00  0.00    -0.364 A  
HETATM   17  C   UNL     1     -10.620  10.610  66.544  1.00  0.00    -0.257 A  
HETATM   18  C   UNL     1     -10.994  11.929  66.254  1.00  0.00    -0.345 A  
BRANCH  16  19
HETATM   19  O   UNL     1     -12.142  13.972  67.029  1.00  0.00    -0.427 OA 
BRANCH  19  20
HETATM   20  C   UNL     1     -11.337  15.086  67.083  1.00  0.00    -0.320 A  
HETATM   21  C   UNL     1     -10.717  15.470  65.888  1.00  0.00    -0.346 A  
HETATM   22  C   UNL     1      -9.929  16.624  65.843  1.00  0.00    -0.320 A  
HETATM   23  C   UNL     1      -9.767  17.393  67.004  1.00  0.00    -0.276 A  
HETATM   24  C   UNL     1     -10.418  17.031  68.192  1.00  0.00    -0.357 A  
HETATM   25  N   UNL     1      -8.917  18.588  66.976  1.00  0.00    -0.268 N  
HETATM   26  C   UNL     1     -11.218  15.889  68.220  1.00  0.00    -0.354 A  
HETATM   27  O   UNL     1      -8.414  18.915  65.894  1.00  0.00    -0.474 OA 
HETATM   28  O   UNL     1      -8.742  19.197  68.045  1.00  0.00    -0.292 OA 
ENDBRANCH  19  20
ENDBRANCH  16  19
ENDBRANCH  12  13
ENDBRANCH   6  12
ENDBRANCH   5   6
ENDBRANCH   4   5
ENDBRANCH   3   4
ENDBRANCH   2   3
TORSDOF 8
ENDMDL
MODEL       45
REMARK 921   NORMALIZED FREE ENERGY PREDICTED BY IDOCK:   -5.58 KCAL/MOL
REMARK 922        TOTAL FREE ENERGY PREDICTED BY IDOCK:   -9.12 KCAL/MOL
REMARK 923 INTER-LIGAND FREE ENERGY PREDICTED BY IDOCK:   -8.08 KCAL/MOL
REMARK 924 INTRA-LIGAND FREE ENERGY PREDICTED BY IDOCK:   -1.04 KCAL/MOL
REMARK 927      BINDING AFFINITY PREDICTED BY RF-SCORE:    0.00 PKD
ROOT
HETATM    1  C   UNL     1     -10.526  16.045  67.040  1.00  0.00    -0.307 C  
HETATM    2  C   UNL     1     -10.544  16.285  65.546  1.00  0.00    -0.353 C  
ENDROOT
BRANCH   2   3
HETATM    3  O   UNL     1     -10.853  15.082  64.831  1.00  0.00    -0.393 OA 
BRANCH   3   4
HETATM    4  C   UNL     1     -12.101  14.561  65.306  1.00  0.00    -0.337 C  
BRANCH   4   5
HETATM    5  C   UNL     1     -12.040  13.088  65.735  1.00  0.00    -0.454 C  
BRANCH   5   6
HETATM    6  N   UNL     1     -10.724  12.412  65.786  1.00  0.00    -0.260 N  
HETATM    7 CL   UNL     1      -9.472   9.110  65.630  1.00  0.00    -0.322 Cl 
HETATM    8  C   UNL     1     -10.506  11.448  64.766  1.00  0.00    -0.308 C  
HETATM    9  C   UNL     1      -9.193  10.645  64.775  1.00  0.00    -0.220 C  
HETATM   10 CL   UNL     1      -8.651  10.322  63.108  1.00  0.00    -0.178 Cl 
HETATM   11  O   UNL     1     -11.362  11.233  63.898  1.00  0.00    -0.317 OA 
BRANCH   6  12
HETATM   12  C   UNL     1      -9.924  12.368  67.030  1.00  0.00    -0.212 C  
BRANCH  12  13
HETATM   13  C   UNL     1     -10.420  11.532  68.184  1.00  0.00    -0.216 A  
HETATM   14  C   UNL     1     -11.726  11.675  68.676  1.00  0.00    -0.386 A  
HETATM   15  C   UNL     1     -12.125  10.998  69.832  1.00  0.00    -0.435 A  
HETATM   16  C   UNL     1     -11.244  10.139  70.498  1.00  0.00    -0.336 A  
HETATM   17  C   UNL     1      -9.560  10.623  68.822  1.00  0.00    -0.190 A  
HETATM   18  C   UNL     1      -9.962   9.947  69.982  1.00  0.00    -0.302 A  
BRANCH  16  19
HETATM   19  O   UNL     1     -11.715   9.634  71.691  1.00  0.00    -0.386 OA 
BRANCH  19  20
HETATM   20  C   UNL     1     -11.314   8.396  72.138  1.00  0.00    -0.366 A  
HETATM   21  C   UNL     1     -11.916   7.286  71.535  1.00  0.00    -0.349 A  
HETATM   22  C   UNL     1     -11.523   5.992  71.891  1.00  0.00    -0.328 A  
HETATM   23  C   UNL     1     -10.520   5.817  72.855  1.00  0.00    -0.214 A  
HETATM   24  C   UNL     1      -9.889   6.928  73.433  1.00  0.00    -0.247 A  
HETATM   25  N   UNL     1     -10.122   4.465  73.258  1.00  0.00    -0.144 N  
HETATM   26  C   UNL     1     -10.275   8.214  73.056  1.00  0.00    -0.273 A  
HETATM   27  O   UNL     1     -10.652   3.509  72.678  1.00  0.00    -0.143 OA 
HETATM   28  O   UNL     1      -9.283   4.357  74.168  1.00  0.00    -0.109 OA 
ENDBRANCH  19  20
ENDBRANCH  16  19
ENDBRANCH  12  13
ENDBRANCH   6  12
ENDBRANCH   5   6
ENDBRANCH   4   5
ENDBRANCH   3   4
ENDBRANCH   2   3
TORSDOF 8
ENDMDL
MODEL       46
REMARK 921   NORMALIZED FREE ENERGY PREDICTED BY IDOCK:   -5.56 KCAL/MOL
REMARK 922        TOTAL FREE ENERGY PREDICTED BY IDOCK:   -9.10 KCAL/MOL
REMARK 923 INTER-LIGAND FREE ENERGY PREDICTED BY IDOCK:   -8.07 KCAL/MOL
REMARK 924 INTRA-LIGAND FREE ENERGY PREDICTED BY IDOCK:   -1.03 KCAL/MOL
REMARK 927      BINDING AFFINITY PREDICTED BY RF-SCORE:    0.00 PKD
ROOT
HETATM    1  C   UNL     1      -9.817  10.605  63.468  1.00  0.00    -0.384 C  
HETATM    2  C   UNL     1      -9.960  10.576  64.975  1.00  0.00    -0.322 C  
ENDROOT
BRANCH   2   3
HETATM    3  O   UNL     1      -8.860  11.234  65.613  1.00  0.00    -0.189 OA 
BRANCH   3   4
HETATM    4  C   UNL     1      -8.886  10.941  67.016  1.00  0.00    -0.140 C  
BRANCH   4   5
HETATM    5  C   UNL     1      -9.954   9.912  67.419  1.00  0.00    -0.189 C  
BRANCH   5   6
HETATM    6  N   UNL     1     -10.605  10.041  68.742  1.00  0.00    -0.208 N  
HETATM    7 CL   UNL     1     -12.176   7.926  71.100  1.00  0.00    -0.301 Cl 
HETATM    8  C   UNL     1     -10.178   9.097  69.714  1.00  0.00    -0.207 C  
HETATM    9  C   UNL     1     -10.846   9.108  71.100  1.00  0.00    -0.311 C  
HETATM   10 CL   UNL     1      -9.661   8.689  72.364  1.00  0.00    -0.354 Cl 
HETATM   11  O   UNL     1      -9.304   8.262  69.450  1.00  0.00    -0.154 OA 
BRANCH   6  12
HETATM   12  C   UNL     1     -11.903  10.733  68.901  1.00  0.00    -0.216 C  
BRANCH  12  13
HETATM   13  C   UNL     1     -11.925  12.242  68.928  1.00  0.00    -0.300 A  
HETATM   14  C   UNL     1     -11.881  12.988  67.741  1.00  0.00    -0.395 A  
HETATM   15  C   UNL     1     -11.759  14.381  67.785  1.00  0.00    -0.407 A  
HETATM   16  C   UNL     1     -11.716  15.056  69.009  1.00  0.00    -0.325 A  
HETATM   17  C   UNL     1     -11.940  12.929  70.152  1.00  0.00    -0.373 A  
HETATM   18  C   UNL     1     -11.817  14.325  70.193  1.00  0.00    -0.379 A  
BRANCH  16  19
HETATM   19  O   UNL     1     -11.466  16.409  68.918  1.00  0.00    -0.311 OA 
BRANCH  19  20
HETATM   20  C   UNL     1     -10.427  16.883  68.153  1.00  0.00    -0.350 A  
HETATM   21  C   UNL     1     -10.641  18.095  67.485  1.00  0.00    -0.419 A  
HETATM   22  C   UNL     1      -9.615  18.675  66.732  1.00  0.00    -0.332 A  
HETATM   23  C   UNL     1      -8.371  18.033  66.653  1.00  0.00    -0.262 A  
HETATM   24  C   UNL     1      -8.143  16.839  67.352  1.00  0.00    -0.190 A  
HETATM   25  N   UNL     1      -7.299  18.616  65.841  1.00  0.00    -0.245 N  
HETATM   26  C   UNL     1      -9.167  16.280  68.117  1.00  0.00    -0.199 A  
HETATM   27  O   UNL     1      -7.514  19.705  65.294  1.00  0.00    -0.382 OA 
HETATM   28  O   UNL     1      -6.238  17.977  65.740  1.00  0.00    -0.227 OA 
ENDBRANCH  19  20
ENDBRANCH  16  19
ENDBRANCH  12  13
ENDBRANCH   6  12
ENDBRANCH   5   6
ENDBRANCH   4   5
ENDBRANCH   3   4
ENDBRANCH   2   3
TORSDOF 8
ENDMDL
MODEL       47
REMARK 921   NORMALIZED FREE ENERGY PREDICTED BY IDOCK:   -5.56 KCAL/MOL
REMARK 922        TOTAL FREE ENERGY PREDICTED BY IDOCK:   -9.10 KCAL/MOL
REMARK 923 INTER-LIGAND FREE ENERGY PREDICTED BY IDOCK:   -8.01 KCAL/MOL
REMARK 924 INTRA-LIGAND FREE ENERGY PREDICTED BY IDOCK:   -1.09 KCAL/MOL
REMARK 927      BINDING AFFINITY PREDICTED BY RF-SCORE:    0.00 PKD
ROOT
HETATM    1  C   UNL     1      -9.399   3.708  66.123  1.00  0.00    -0.181 C  
HETATM    2  C   UNL     1      -9.701   4.945  66.943  1.00  0.00    -0.179 C  
ENDROOT
BRANCH   2   3
HETATM    3  O   UNL     1      -9.165   6.121  66.323  1.00  0.00    -0.153 OA 
BRANCH   3   4
HETATM    4  C   UNL     1      -8.910   7.108  67.330  1.00  0.00    -0.120 C  
BRANCH   4   5
HETATM    5  C   UNL     1     -10.165   7.562  68.092  1.00  0.00    -0.189 C  
BRANCH   5   6
HETATM    6  N   UNL     1      -9.999   8.331  69.345  1.00  0.00    -0.184 N  
HETATM    7 CL   UNL     1     -12.065   9.986  71.690  1.00  0.00    -0.461 Cl 
HETATM    8  C   UNL     1     -10.860   7.940  70.406  1.00  0.00    -0.244 C  
HETATM    9  C   UNL     1     -10.810   8.725  71.728  1.00  0.00    -0.345 C  
HETATM   10 CL   UNL     1     -11.088   7.633  73.109  1.00  0.00    -0.441 Cl 
HETATM   11  O   UNL     1     -11.658   7.004  70.267  1.00  0.00    -0.299 OA 
BRANCH   6  12
HETATM   12  C   UNL     1      -9.376   9.672  69.354  1.00  0.00    -0.193 C  
BRANCH  12  13
HETATM   13  C   UNL     1      -9.900  10.725  68.407  1.00  0.00    -0.177 A  
HETATM   14  C   UNL     1      -9.045  11.389  67.515  1.00  0.00    -0.157 A  
HETATM   15  C   UNL     1      -9.516  12.457  66.747  1.00  0.00    -0.228 A  
HETATM   16  C   UNL     1     -10.854  12.859  66.825  1.00  0.00    -0.267 A  
HETATM   17  C   UNL     1     -11.255  11.094  68.438  1.00  0.00    -0.325 A  
HETATM   18  C   UNL     1     -11.724  12.166  67.667  1.00  0.00    -0.386 A  
BRANCH  16  19
HETATM   19  O   UNL     1     -11.160  14.001  66.115  1.00  0.00    -0.297 OA 
BRANCH  19  20
HETATM   20  C   UNL     1     -10.839  15.244  66.609  1.00  0.00    -0.310 A  
HETATM   21  C   UNL     1     -10.619  16.256  65.667  1.00  0.00    -0.360 A  
HETATM   22  C   UNL     1     -10.344  17.561  66.087  1.00  0.00    -0.330 A  
HETATM   23  C   UNL     1     -10.292  17.847  67.458  1.00  0.00    -0.377 A  
HETATM   24  C   UNL     1     -10.550  16.843  68.403  1.00  0.00    -0.365 A  
HETATM   25  N   UNL     1      -9.975  19.206  67.910  1.00  0.00    -0.342 N  
HETATM   26  C   UNL     1     -10.843  15.550  67.973  1.00  0.00    -0.300 A  
HETATM   27  O   UNL     1      -9.820  20.080  67.048  1.00  0.00    -0.375 OA 
HETATM   28  O   UNL     1      -9.867  19.397  69.133  1.00  0.00    -0.426 OA 
ENDBRANCH  19  20
ENDBRANCH  16  19
ENDBRANCH  12  13
ENDBRANCH   6  12
ENDBRANCH   5   6
ENDBRANCH   4   5
ENDBRANCH   3   4
ENDBRANCH   2   3
TORSDOF 8
ENDMDL
MODEL       48
REMARK 921   NORMALIZED FREE ENERGY PREDICTED BY IDOCK:   -5.55 KCAL/MOL
REMARK 922        TOTAL FREE ENERGY PREDICTED BY IDOCK:   -9.09 KCAL/MOL
REMARK 923 INTER-LIGAND FREE ENERGY PREDICTED BY IDOCK:   -8.08 KCAL/MOL
REMARK 924 INTRA-LIGAND FREE ENERGY PREDICTED BY IDOCK:   -1.01 KCAL/MOL
REMARK 927      BINDING AFFINITY PREDICTED BY RF-SCORE:    0.00 PKD
ROOT
HETATM    1  C   UNL     1     -14.389  14.025  72.055  1.00  0.00    -0.548 C  
HETATM    2  C   UNL     1     -13.070  13.308  72.248  1.00  0.00    -0.371 C  
ENDROOT
BRANCH   2   3
HETATM    3  O   UNL     1     -12.943  12.203  71.345  1.00  0.00    -0.368 OA 
BRANCH   3   4
HETATM    4  C   UNL     1     -12.158  12.606  70.216  1.00  0.00    -0.294 C  
BRANCH   4   5
HETATM    5  C   UNL     1     -11.110  11.569  69.781  1.00  0.00    -0.084 C  
BRANCH   5   6
HETATM    6  N   UNL     1     -11.206  10.982  68.427  1.00  0.00    -0.250 N  
HETATM    7 CL   UNL     1      -9.011   9.692  65.974  1.00  0.00    -0.181 Cl 
HETATM    8  C   UNL     1     -10.472   9.780  68.241  1.00  0.00    -0.216 C  
HETATM    9  C   UNL     1     -10.456   9.130  66.846  1.00  0.00    -0.217 C  
HETATM   10 CL   UNL     1     -10.427   7.354  66.989  1.00  0.00    -0.386 Cl 
HETATM   11  O   UNL     1      -9.833   9.273  69.172  1.00  0.00    -0.159 OA 
BRANCH   6  12
HETATM   12  C   UNL     1     -11.601  11.797  67.256  1.00  0.00    -0.269 C  
BRANCH  12  13
HETATM   13  C   UNL     1     -10.920  13.125  67.031  1.00  0.00    -0.289 A  
HETATM   14  C   UNL     1     -11.664  14.291  66.801  1.00  0.00    -0.424 A  
HETATM   15  C   UNL     1     -11.020  15.484  66.454  1.00  0.00    -0.238 A  
HETATM   16  C   UNL     1      -9.625  15.544  66.366  1.00  0.00    -0.291 A  
HETATM   17  C   UNL     1      -9.518  13.206  67.000  1.00  0.00    -0.242 A  
HETATM   18  C   UNL     1      -8.876  14.402  66.651  1.00  0.00    -0.188 A  
BRANCH  16  19
HETATM   19  O   UNL     1      -9.123  16.738  65.893  1.00  0.00    -0.492 OA 
BRANCH  19  20
HETATM   20  C   UNL     1      -8.441  17.594  66.726  1.00  0.00    -0.251 A  
HETATM   21  C   UNL     1      -7.302  18.211  66.195  1.00  0.00    -0.309 A  
HETATM   22  C   UNL     1      -6.585  19.139  66.956  1.00  0.00    -0.200 A  
HETATM   23  C   UNL     1      -7.016  19.446  68.254  1.00  0.00    -0.282 A  
HETATM   24  C   UNL     1      -8.179  18.858  68.773  1.00  0.00    -0.347 A  
HETATM   25  N   UNL     1      -6.254  20.395  69.072  1.00  0.00    -0.327 N  
HETATM   26  C   UNL     1      -8.898  17.949  67.998  1.00  0.00    -0.268 A  
HETATM   27  O   UNL     1      -5.273  20.945  68.556  1.00  0.00    -0.265 OA 
HETATM   28  O   UNL     1      -6.630  20.581  70.241  1.00  0.00    -0.321 OA 
ENDBRANCH  19  20
ENDBRANCH  16  19
ENDBRANCH  12  13
ENDBRANCH   6  12
ENDBRANCH   5   6
ENDBRANCH   4   5
ENDBRANCH   3   4
ENDBRANCH   2   3
TORSDOF 8
ENDMDL
MODEL       49
REMARK 921   NORMALIZED FREE ENERGY PREDICTED BY IDOCK:   -5.54 KCAL/MOL
REMARK 922        TOTAL FREE ENERGY PREDICTED BY IDOCK:   -9.07 KCAL/MOL
REMARK 923 INTER-LIGAND FREE ENERGY PREDICTED BY IDOCK:   -8.01 KCAL/MOL
REMARK 924 INTRA-LIGAND FREE ENERGY PREDICTED BY IDOCK:   -1.05 KCAL/MOL
REMARK 927      BINDING AFFINITY PREDICTED BY RF-SCORE:    0.00 PKD
ROOT
HETATM    1  C   UNL     1     -13.406   8.488  72.110  1.00  0.00    -0.382 C  
HETATM    2  C   UNL     1     -13.506   9.948  71.724  1.00  0.00    -0.353 C  
ENDROOT
BRANCH   2   3
HETATM    3  O   UNL     1     -12.209  10.513  71.493  1.00  0.00    -0.355 OA 
BRANCH   3   4
HETATM    4  C   UNL     1     -11.243   9.457  71.420  1.00  0.00    -0.381 C  
BRANCH   4   5
HETATM    5  C   UNL     1     -10.243   9.604  70.263  1.00  0.00    -0.277 C  
BRANCH   5   6
HETATM    6  N   UNL     1     -10.675   9.243  68.895  1.00  0.00    -0.194 N  
HETATM    7 CL   UNL     1      -9.203   8.007  65.927  1.00  0.00    -0.174 Cl 
HETATM    8  C   UNL     1     -10.209   7.983  68.431  1.00  0.00    -0.207 C  
HETATM    9  C   UNL     1     -10.551   7.549  66.995  1.00  0.00    -0.339 C  
HETATM   10 CL   UNL     1     -10.812   5.788  66.924  1.00  0.00    -0.364 Cl 
HETATM   11  O   UNL     1      -9.518   7.254  69.155  1.00  0.00    -0.149 OA 
BRANCH   6  12
HETATM   12  C   UNL     1     -11.117  10.270  67.926  1.00  0.00    -0.276 C  
BRANCH  12  13
HETATM   13  C   UNL     1     -10.894  11.726  68.258  1.00  0.00    -0.259 A  
HETATM   14  C   UNL     1      -9.662  12.346  68.006  1.00  0.00    -0.210 A  
HETATM   15  C   UNL     1      -9.424  13.652  68.447  1.00  0.00    -0.190 A  
HETATM   16  C   UNL     1     -10.420  14.375  69.112  1.00  0.00    -0.189 A  
HETATM   17  C   UNL     1     -11.910  12.476  68.873  1.00  0.00    -0.346 A  
HETATM   18  C   UNL     1     -11.668  13.784  69.315  1.00  0.00    -0.376 A  
BRANCH  16  19
HETATM   19  O   UNL     1     -10.020  15.599  69.606  1.00  0.00    -0.266 OA 
BRANCH  19  20
HETATM   20  C   UNL     1      -9.697  16.629  68.754  1.00  0.00    -0.254 A  
HETATM   21  C   UNL     1     -10.757  17.232  68.067  1.00  0.00    -0.367 A  
HETATM   22  C   UNL     1     -10.522  18.323  67.226  1.00  0.00    -0.419 A  
HETATM   23  C   UNL     1      -9.215  18.810  67.078  1.00  0.00    -0.294 A  
HETATM   24  C   UNL     1      -8.157  18.231  67.794  1.00  0.00    -0.256 A  
HETATM   25  N   UNL     1      -8.953  19.934  66.175  1.00  0.00    -0.359 N  
HETATM   26  C   UNL     1      -8.407  17.156  68.646  1.00  0.00    -0.257 A  
HETATM   27  O   UNL     1      -9.920  20.462  65.612  1.00  0.00    -0.261 OA 
HETATM   28  O   UNL     1      -7.771  20.284  66.016  1.00  0.00    -0.260 OA 
ENDBRANCH  19  20
ENDBRANCH  16  19
ENDBRANCH  12  13
ENDBRANCH   6  12
ENDBRANCH   5   6
ENDBRANCH   4   5
ENDBRANCH   3   4
ENDBRANCH   2   3
TORSDOF 8
ENDMDL
MODEL       50
REMARK 921   NORMALIZED FREE ENERGY PREDICTED BY IDOCK:   -5.53 KCAL/MOL
REMARK 922        TOTAL FREE ENERGY PREDICTED BY IDOCK:   -9.06 KCAL/MOL
REMARK 923 INTER-LIGAND FREE ENERGY PREDICTED BY IDOCK:   -7.79 KCAL/MOL
REMARK 924 INTRA-LIGAND FREE ENERGY PREDICTED BY IDOCK:   -1.27 KCAL/MOL
REMARK 927      BINDING AFFINITY PREDICTED BY RF-SCORE:    0.00 PKD
ROOT
HETATM    1  C   UNL     1     -11.332   8.019  72.626  1.00  0.00    -0.469 C  
HETATM    2  C   UNL     1     -12.749   8.028  72.092  1.00  0.00    -0.261 C  
ENDROOT
BRANCH   2   3
HETATM    3  O   UNL     1     -12.834   7.341  70.838  1.00  0.00    -0.259 OA 
BRANCH   3   4
HETATM    4  C   UNL     1     -11.633   6.587  70.633  1.00  0.00    -0.381 C  
BRANCH   4   5
HETATM    5  C   UNL     1     -11.215   6.464  69.159  1.00  0.00    -0.354 C  
BRANCH   5   6
HETATM    6  N   UNL     1     -10.108   7.309  68.658  1.00  0.00    -0.171 N  
HETATM    7 CL   UNL     1      -6.573   7.249  68.644  1.00  0.00    -0.043 Cl 
HETATM    8  C   UNL     1      -9.100   6.612  67.941  1.00  0.00    -0.114 C  
HETATM    9  C   UNL     1      -7.874   7.393  67.438  1.00  0.00    -0.111 C  
HETATM   10 CL   UNL     1      -7.324   6.746  65.871  1.00  0.00    -0.074 Cl 
HETATM   11  O   UNL     1      -9.186   5.393  67.743  1.00  0.00    -0.108 OA 
BRANCH   6  12
HETATM   12  C   UNL     1      -9.814   8.631  69.252  1.00  0.00    -0.188 C  
BRANCH  12  13
HETATM   13  C   UNL     1     -10.584   9.835  68.766  1.00  0.00    -0.244 A  
HETATM   14  C   UNL     1     -10.685  10.127  67.398  1.00  0.00    -0.336 A  
HETATM   15  C   UNL     1     -11.279  11.320  66.971  1.00  0.00    -0.324 A  
HETATM   16  C   UNL     1     -11.815  12.223  67.895  1.00  0.00    -0.293 A  
HETATM   17  C   UNL     1     -11.176  10.717  69.685  1.00  0.00    -0.351 A  
HETATM   18  C   UNL     1     -11.769  11.911  69.255  1.00  0.00    -0.389 A  
BRANCH  16  19
HETATM   19  O   UNL     1     -12.255  13.413  67.357  1.00  0.00    -0.326 OA 
BRANCH  19  20
HETATM   20  C   UNL     1     -11.390  14.468  67.182  1.00  0.00    -0.350 A  
HETATM   21  C   UNL     1     -11.335  15.413  68.213  1.00  0.00    -0.354 A  
HETATM   22  C   UNL     1     -10.440  16.485  68.140  1.00  0.00    -0.313 A  
HETATM   23  C   UNL     1      -9.598  16.604  67.026  1.00  0.00    -0.244 A  
HETATM   24  C   UNL     1      -9.624  15.637  66.010  1.00  0.00    -0.386 A  
HETATM   25  N   UNL     1      -8.677  17.740  66.924  1.00  0.00    -0.241 N  
HETATM   26  C   UNL     1     -10.506  14.562  66.103  1.00  0.00    -0.303 A  
HETATM   27  O   UNL     1      -8.634  18.536  67.871  1.00  0.00    -0.276 OA 
HETATM   28  O   UNL     1      -8.003  17.846  65.886  1.00  0.00    -0.523 OA 
ENDBRANCH  19  20
ENDBRANCH  16  19
ENDBRANCH  12  13
ENDBRANCH   6  12
ENDBRANCH   5   6
ENDBRANCH   4   5
ENDBRANCH   3   4
ENDBRANCH   2   3
TORSDOF 8
ENDMDL
MODEL       51
REMARK 921   NORMALIZED FREE ENERGY PREDICTED BY IDOCK:   -5.53 KCAL/MOL
REMARK 922        TOTAL FREE ENERGY PREDICTED BY IDOCK:   -9.05 KCAL/MOL
REMARK 923 INTER-LIGAND FREE ENERGY PREDICTED BY IDOCK:   -8.07 KCAL/MOL
REMARK 924 INTRA-LIGAND FREE ENERGY PREDICTED BY IDOCK:   -0.98 KCAL/MOL
REMARK 927      BINDING AFFINITY PREDICTED BY RF-SCORE:    0.00 PKD
ROOT
HETATM    1  C   UNL     1     -13.771  15.703  72.585  1.00  0.00    -0.666 C  
HETATM    2  C   UNL     1     -13.467  14.221  72.558  1.00  0.00    -0.515 C  
ENDROOT
BRANCH   2   3
HETATM    3  O   UNL     1     -12.364  13.933  71.689  1.00  0.00    -0.293 OA 
BRANCH   3   4
HETATM    4  C   UNL     1     -12.646  14.454  70.384  1.00  0.00    -0.345 C  
BRANCH   4   5
HETATM    5  C   UNL     1     -11.419  14.530  69.463  1.00  0.00    -0.288 C  
BRANCH   5   6
HETATM    6  N   UNL     1     -10.967  13.300  68.775  1.00  0.00    -0.255 N  
HETATM    7 CL   UNL     1     -10.057  12.320  65.502  1.00  0.00    -0.274 Cl 
HETATM    8  C   UNL     1      -9.833  13.466  67.935  1.00  0.00    -0.237 C  
HETATM    9  C   UNL     1      -9.328  12.260  67.124  1.00  0.00    -0.196 C  
HETATM   10 CL   UNL     1      -7.551  12.298  66.994  1.00  0.00    -0.115 Cl 
HETATM   11  O   UNL     1      -9.272  14.565  67.831  1.00  0.00    -0.187 OA 
BRANCH   6  12
HETATM   12  C   UNL     1     -11.871  12.146  68.578  1.00  0.00    -0.310 C  
BRANCH  12  13
HETATM   13  C   UNL     1     -11.881  11.045  69.610  1.00  0.00    -0.414 A  
HETATM   14  C   UNL     1     -12.945  10.907  70.513  1.00  0.00    -0.212 A  
HETATM   15  C   UNL     1     -12.874   9.973  71.552  1.00  0.00    -0.537 A  
HETATM   16  C   UNL     1     -11.761   9.137  71.688  1.00  0.00    -0.378 A  
HETATM   17  C   UNL     1     -10.793  10.163  69.715  1.00  0.00    -0.320 A  
HETATM   18  C   UNL     1     -10.724   9.229  70.758  1.00  0.00    -0.350 A  
BRANCH  16  19
HETATM   19  O   UNL     1     -11.757   8.353  72.822  1.00  0.00    -0.367 OA 
BRANCH  19  20
HETATM   20  C   UNL     1     -10.981   7.220  72.892  1.00  0.00    -0.337 A  
HETATM   21  C   UNL     1      -9.848   7.284  73.712  1.00  0.00    -0.358 A  
HETATM   22  C   UNL     1      -9.038   6.158  73.884  1.00  0.00    -0.133 A  
HETATM   23  C   UNL     1      -9.370   4.964  73.228  1.00  0.00    -0.123 A  
HETATM   24  C   UNL     1     -10.525   4.887  72.436  1.00  0.00    -0.269 A  
HETATM   25  N   UNL     1      -8.510   3.786  73.376  1.00  0.00    -0.087 N  
HETATM   26  C   UNL     1     -11.337   6.011  72.289  1.00  0.00    -0.353 A  
HETATM   27  O   UNL     1      -7.537   3.871  74.137  1.00  0.00    -0.071 OA 
HETATM   28  O   UNL     1      -8.801   2.772  72.719  1.00  0.00    -0.080 OA 
ENDBRANCH  19  20
ENDBRANCH  16  19
ENDBRANCH  12  13
ENDBRANCH   6  12
ENDBRANCH   5   6
ENDBRANCH   4   5
ENDBRANCH   3   4
ENDBRANCH   2   3
TORSDOF 8
ENDMDL
MODEL       52
REMARK 921   NORMALIZED FREE ENERGY PREDICTED BY IDOCK:   -5.52 KCAL/MOL
REMARK 922        TOTAL FREE ENERGY PREDICTED BY IDOCK:   -9.04 KCAL/MOL
REMARK 923 INTER-LIGAND FREE ENERGY PREDICTED BY IDOCK:   -8.07 KCAL/MOL
REMARK 924 INTRA-LIGAND FREE ENERGY PREDICTED BY IDOCK:   -0.97 KCAL/MOL
REMARK 927      BINDING AFFINITY PREDICTED BY RF-SCORE:    0.00 PKD
ROOT
HETATM    1  C   UNL     1     -13.498  14.508  71.009  1.00  0.00    -0.345 C  
HETATM    2  C   UNL     1     -13.626  13.783  72.332  1.00  0.00    -0.588 C  
ENDROOT
BRANCH   2   3
HETATM    3  O   UNL     1     -13.444  12.372  72.169  1.00  0.00    -0.525 OA 
BRANCH   3   4
HETATM    4  C   UNL     1     -12.508  12.138  71.109  1.00  0.00    -0.234 C  
BRANCH   4   5
HETATM    5  C   UNL     1     -12.758  10.837  70.331  1.00  0.00    -0.269 C  
BRANCH   5   6
HETATM    6  N   UNL     1     -11.605  10.135  69.725  1.00  0.00    -0.215 N  
HETATM    7 CL   UNL     1      -8.137   9.800  70.327  1.00  0.00    -0.201 Cl 
HETATM    8  C   UNL     1     -10.789   9.418  70.642  1.00  0.00    -0.283 C  
HETATM    9  C   UNL     1      -9.528   8.712  70.117  1.00  0.00    -0.164 C  
HETATM   10 CL   UNL     1      -9.251   7.192  71.006  1.00  0.00    -0.158 Cl 
HETATM   11  O   UNL     1     -11.068   9.381  71.848  1.00  0.00    -0.344 OA 
BRANCH   6  12
HETATM   12  C   UNL     1     -11.062  10.532  68.407  1.00  0.00    -0.281 C  
BRANCH  12  13
HETATM   13  C   UNL     1     -10.991  11.999  68.062  1.00  0.00    -0.267 A  
HETATM   14  C   UNL     1     -12.001  12.618  67.312  1.00  0.00    -0.321 A  
HETATM   15  C   UNL     1     -11.853  13.940  66.880  1.00  0.00    -0.453 A  
HETATM   16  C   UNL     1     -10.714  14.680  67.218  1.00  0.00    -0.290 A  
HETATM   17  C   UNL     1      -9.878  12.765  68.448  1.00  0.00    -0.196 A  
HETATM   18  C   UNL     1      -9.731  14.089  68.013  1.00  0.00    -0.221 A  
BRANCH  16  19
HETATM   19  O   UNL     1     -10.631  15.922  66.626  1.00  0.00    -0.314 OA 
BRANCH  19  20
HETATM   20  C   UNL     1      -9.650  16.813  66.995  1.00  0.00    -0.239 A  
HETATM   21  C   UNL     1      -8.587  16.982  66.101  1.00  0.00    -0.252 A  
HETATM   22  C   UNL     1      -7.578  17.910  66.373  1.00  0.00    -0.308 A  
HETATM   23  C   UNL     1      -7.642  18.672  67.549  1.00  0.00    -0.228 A  
HETATM   24  C   UNL     1      -8.726  18.532  68.427  1.00  0.00    -0.351 A  
HETATM   25  N   UNL     1      -6.574  19.627  67.860  1.00  0.00    -0.231 N  
HETATM   26  C   UNL     1      -9.737  17.617  68.135  1.00  0.00    -0.310 A  
HETATM   27  O   UNL     1      -5.668  19.772  67.029  1.00  0.00    -0.174 OA 
HETATM   28  O   UNL     1      -6.633  20.226  68.947  1.00  0.00    -0.305 OA 
ENDBRANCH  19  20
ENDBRANCH  16  19
ENDBRANCH  12  13
ENDBRANCH   6  12
ENDBRANCH   5   6
ENDBRANCH   4   5
ENDBRANCH   3   4
ENDBRANCH   2   3
TORSDOF 8
ENDMDL
MODEL       53
REMARK 921   NORMALIZED FREE ENERGY PREDICTED BY IDOCK:   -5.52 KCAL/MOL
REMARK 922        TOTAL FREE ENERGY PREDICTED BY IDOCK:   -9.04 KCAL/MOL
REMARK 923 INTER-LIGAND FREE ENERGY PREDICTED BY IDOCK:   -8.36 KCAL/MOL
REMARK 924 INTRA-LIGAND FREE ENERGY PREDICTED BY IDOCK:   -0.68 KCAL/MOL
REMARK 927      BINDING AFFINITY PREDICTED BY RF-SCORE:    0.00 PKD
ROOT
HETATM    1  C   UNL     1      -7.709  12.016  67.316  1.00  0.00    -0.168 C  
HETATM    2  C   UNL     1      -9.134  12.330  67.721  1.00  0.00    -0.191 C  
ENDROOT
BRANCH   2   3
HETATM    3  O   UNL     1      -9.227  13.627  68.323  1.00  0.00    -0.196 OA 
BRANCH   3   4
HETATM    4  C   UNL     1      -8.844  14.619  67.362  1.00  0.00    -0.195 C  
BRANCH   4   5
HETATM    5  C   UNL     1      -8.557  16.000  67.971  1.00  0.00    -0.165 C  
BRANCH   5   6
HETATM    6  N   UNL     1      -9.640  17.008  67.998  1.00  0.00    -0.254 N  
HETATM    7 CL   UNL     1      -9.947  20.523  67.775  1.00  0.00    -0.490 Cl 
HETATM    8  C   UNL     1      -9.583  17.977  66.960  1.00  0.00    -0.287 C  
HETATM    9  C   UNL     1     -10.628  19.106  66.943  1.00  0.00    -0.448 C  
HETATM   10 CL   UNL     1     -11.054  19.533  65.265  1.00  0.00     0.016 Cl 
HETATM   11  O   UNL     1      -8.697  17.935  66.097  1.00  0.00    -0.453 OA 
BRANCH   6  12
HETATM   12  C   UNL     1     -10.404  17.291  69.233  1.00  0.00    -0.237 C  
BRANCH  12  13
HETATM   13  C   UNL     1     -11.258  16.197  69.826  1.00  0.00    -0.343 A  
HETATM   14  C   UNL     1     -11.351  16.021  71.215  1.00  0.00    -0.397 A  
HETATM   15  C   UNL     1     -12.030  14.920  71.745  1.00  0.00    -0.435 A  
HETATM   16  C   UNL     1     -12.660  13.996  70.904  1.00  0.00    -0.361 A  
HETATM   17  C   UNL     1     -11.942  15.299  68.990  1.00  0.00    -0.304 A  
HETATM   18  C   UNL     1     -12.621  14.195  69.524  1.00  0.00    -0.011 A  
BRANCH  16  19
HETATM   19  O   UNL     1     -13.184  12.891  71.543  1.00  0.00    -0.349 OA 
BRANCH  19  20
HETATM   20  C   UNL     1     -12.722  11.628  71.256  1.00  0.00    -0.340 A  
HETATM   21  C   UNL     1     -11.683  11.537  70.323  1.00  0.00    -0.379 A  
HETATM   22  C   UNL     1     -11.117  10.296  70.018  1.00  0.00    -0.373 A  
HETATM   23  C   UNL     1     -11.598   9.143  70.656  1.00  0.00    -0.235 A  
HETATM   24  C   UNL     1     -12.612   9.237  71.619  1.00  0.00    -0.446 A  
HETATM   25  N   UNL     1     -11.033   7.833  70.321  1.00  0.00    -0.250 N  
HETATM   26  C   UNL     1     -13.156  10.483  71.930  1.00  0.00    -0.567 A  
HETATM   27  O   UNL     1     -10.093   7.796  69.517  1.00  0.00    -0.185 OA 
HETATM   28  O   UNL     1     -11.539   6.832  70.855  1.00  0.00    -0.311 OA 
ENDBRANCH  19  20
ENDBRANCH  16  19
ENDBRANCH  12  13
ENDBRANCH   6  12
ENDBRANCH   5   6
ENDBRANCH   4   5
ENDBRANCH   3   4
ENDBRANCH   2   3
TORSDOF 8
ENDMDL
MODEL       54
REMARK 921   NORMALIZED FREE ENERGY PREDICTED BY IDOCK:   -5.51 KCAL/MOL
REMARK 922        TOTAL FREE ENERGY PREDICTED BY IDOCK:   -9.02 KCAL/MOL
REMARK 923 INTER-LIGAND FREE ENERGY PREDICTED BY IDOCK:   -7.68 KCAL/MOL
REMARK 924 INTRA-LIGAND FREE ENERGY PREDICTED BY IDOCK:   -1.34 KCAL/MOL
REMARK 927      BINDING AFFINITY PREDICTED BY RF-SCORE:    0.00 PKD
ROOT
HETATM    1  C   UNL     1      -6.400  11.890  66.997  1.00  0.00    -0.141 C  
HETATM    2  C   UNL     1      -7.641  12.628  67.452  1.00  0.00    -0.150 C  
ENDROOT
BRANCH   2   3
HETATM    3  O   UNL     1      -7.375  13.425  68.612  1.00  0.00    -0.106 OA 
BRANCH   3   4
HETATM    4  C   UNL     1      -7.367  14.809  68.240  1.00  0.00    -0.115 C  
BRANCH   4   5
HETATM    5  C   UNL     1      -8.380  15.669  69.012  1.00  0.00    -0.235 C  
BRANCH   5   6
HETATM    6  N   UNL     1      -9.105  16.737  68.290  1.00  0.00    -0.221 N  
HETATM    7 CL   UNL     1     -10.263  20.014  68.943  1.00  0.00    -0.467 Cl 
HETATM    8  C   UNL     1      -8.521  18.029  68.386  1.00  0.00    -0.298 C  
HETATM    9  C   UNL     1      -9.240  19.218  67.724  1.00  0.00    -0.309 C  
HETATM   10 CL   UNL     1      -8.053  20.378  67.076  1.00  0.00    -0.362 Cl 
HETATM   11  O   UNL     1      -7.468  18.207  69.011  1.00  0.00    -0.253 OA 
BRANCH   6  12
HETATM   12  C   UNL     1     -10.533  16.596  67.930  1.00  0.00    -0.322 C  
BRANCH  12  13
HETATM   13  C   UNL     1     -10.938  15.497  66.977  1.00  0.00    -0.283 A  
HETATM   14  C   UNL     1     -11.809  14.473  67.379  1.00  0.00    -0.416 A  
HETATM   15  C   UNL     1     -12.062  13.388  66.534  1.00  0.00    -0.444 A  
HETATM   16  C   UNL     1     -11.482  13.321  65.262  1.00  0.00    -0.295 A  
HETATM   17  C   UNL     1     -10.406  15.454  65.678  1.00  0.00    -0.395 A  
HETATM   18  C   UNL     1     -10.660  14.364  64.834  1.00  0.00    -0.456 A  
BRANCH  16  19
HETATM   19  O   UNL     1     -11.709  12.144  64.581  1.00  0.00    -0.350 OA 
BRANCH  19  20
HETATM   20  C   UNL     1     -10.670  11.296  64.278  1.00  0.00    -0.349 A  
HETATM   21  C   UNL     1     -10.172  10.513  65.326  1.00  0.00    -0.352 A  
HETATM   22  C   UNL     1      -9.155   9.583  65.089  1.00  0.00    -0.281 A  
HETATM   23  C   UNL     1      -8.639   9.441  63.793  1.00  0.00    -0.211 A  
HETATM   24  C   UNL     1      -9.163  10.197  62.734  1.00  0.00    -0.322 A  
HETATM   25  N   UNL     1      -7.551   8.491  63.540  1.00  0.00    -0.120 N  
HETATM   26  C   UNL     1     -10.191  11.107  62.978  1.00  0.00    -0.265 A  
HETATM   27  O   UNL     1      -7.161   7.793  64.484  1.00  0.00    -0.066 OA 
HETATM   28  O   UNL     1      -7.075   8.452  62.393  1.00  0.00    -0.097 OA 
ENDBRANCH  19  20
ENDBRANCH  16  19
ENDBRANCH  12  13
ENDBRANCH   6  12
ENDBRANCH   5   6
ENDBRANCH   4   5
ENDBRANCH   3   4
ENDBRANCH   2   3
TORSDOF 8
ENDMDL
MODEL       55
REMARK 921   NORMALIZED FREE ENERGY PREDICTED BY IDOCK:   -5.48 KCAL/MOL
REMARK 922        TOTAL FREE ENERGY PREDICTED BY IDOCK:   -8.98 KCAL/MOL
REMARK 923 INTER-LIGAND FREE ENERGY PREDICTED BY IDOCK:   -7.94 KCAL/MOL
REMARK 924 INTRA-LIGAND FREE ENERGY PREDICTED BY IDOCK:   -1.04 KCAL/MOL
REMARK 927      BINDING AFFINITY PREDICTED BY RF-SCORE:    0.00 PKD
ROOT
HETATM    1  C   UNL     1     -12.028  12.499  65.195  1.00  0.00    -0.484 C  
HETATM    2  C   UNL     1     -12.324  13.896  65.695  1.00  0.00    -0.482 C  
ENDROOT
BRANCH   2   3
HETATM    3  O   UNL     1     -11.186  14.462  66.357  1.00  0.00    -0.329 OA 
BRANCH   3   4
HETATM    4  C   UNL     1     -10.451  13.415  67.004  1.00  0.00    -0.257 C  
BRANCH   4   5
HETATM    5  C   UNL     1     -10.514  13.462  68.538  1.00  0.00    -0.252 C  
BRANCH   5   6
HETATM    6  N   UNL     1     -11.805  13.189  69.208  1.00  0.00    -0.320 N  
HETATM    7 CL   UNL     1     -13.067  13.088  72.509  1.00  0.00    -0.391 Cl 
HETATM    8  C   UNL     1     -12.185  14.145  70.188  1.00  0.00    -0.351 C  
HETATM    9  C   UNL     1     -13.479  13.912  70.987  1.00  0.00    -0.069 C  
HETATM   10 CL   UNL     1     -14.283  15.465  71.335  1.00  0.00    -0.583 Cl 
HETATM   11  O   UNL     1     -11.480  15.136  70.419  1.00  0.00    -0.251 OA 
BRANCH   6  12
HETATM   12  C   UNL     1     -12.394  11.833  69.230  1.00  0.00     0.014 C  
BRANCH  12  13
HETATM   13  C   UNL     1     -11.682  10.742  69.992  1.00  0.00    -0.417 A  
HETATM   14  C   UNL     1     -12.251  10.169  71.139  1.00  0.00    -0.490 A  
HETATM   15  C   UNL     1     -11.520   9.263  71.914  1.00  0.00    -0.382 A  
HETATM   16  C   UNL     1     -10.226   8.885  71.542  1.00  0.00    -0.328 A  
HETATM   17  C   UNL     1     -10.406  10.314  69.592  1.00  0.00    -0.281 A  
HETATM   18  C   UNL     1      -9.675   9.407  70.371  1.00  0.00    -0.315 A  
BRANCH  16  19
HETATM   19  O   UNL     1      -9.568   8.088  72.455  1.00  0.00    -0.186 OA 
BRANCH  19  20
HETATM   20  C   UNL     1      -9.871   6.751  72.569  1.00  0.00    -0.164 A  
HETATM   21  C   UNL     1      -9.683   5.965  71.427  1.00  0.00    -0.196 A  
HETATM   22  C   UNL     1      -9.912   4.587  71.474  1.00  0.00    -0.259 A  
HETATM   23  C   UNL     1     -10.332   3.999  72.676  1.00  0.00    -0.158 A  
HETATM   24  C   UNL     1     -10.484   4.779  73.832  1.00  0.00    -0.315 A  
HETATM   25  N   UNL     1     -10.605   2.560  72.730  1.00  0.00    -0.143 N  
HETATM   26  C   UNL     1     -10.233   6.150  73.778  1.00  0.00    -0.268 A  
HETATM   27  O   UNL     1     -10.394   1.893  71.709  1.00  0.00    -0.116 OA 
HETATM   28  O   UNL     1     -11.045   2.095  73.795  1.00  0.00    -0.168 OA 
ENDBRANCH  19  20
ENDBRANCH  16  19
ENDBRANCH  12  13
ENDBRANCH   6  12
ENDBRANCH   5   6
ENDBRANCH   4   5
ENDBRANCH   3   4
ENDBRANCH   2   3
TORSDOF 8
ENDMDL
MODEL       56
REMARK 921   NORMALIZED FREE ENERGY PREDICTED BY IDOCK:   -5.47 KCAL/MOL
REMARK 922        TOTAL FREE ENERGY PREDICTED BY IDOCK:   -8.96 KCAL/MOL
REMARK 923 INTER-LIGAND FREE ENERGY PREDICTED BY IDOCK:   -7.76 KCAL/MOL
REMARK 924 INTRA-LIGAND FREE ENERGY PREDICTED BY IDOCK:   -1.20 KCAL/MOL
REMARK 927      BINDING AFFINITY PREDICTED BY RF-SCORE:    0.00 PKD
ROOT
HETATM    1  C   UNL     1      -9.461   9.188  66.716  1.00  0.00    -0.230 C  
HETATM    2  C   UNL     1     -10.575   8.323  67.267  1.00  0.00    -0.265 C  
ENDROOT
BRANCH   2   3
HETATM    3  O   UNL     1     -10.088   7.433  68.279  1.00  0.00    -0.165 OA 
BRANCH   3   4
HETATM    4  C   UNL     1     -10.921   6.268  68.321  1.00  0.00    -0.321 C  
BRANCH   4   5
HETATM    5  C   UNL     1     -10.581   5.298  69.463  1.00  0.00    -0.173 C  
BRANCH   5   6
HETATM    6  N   UNL     1     -10.697   5.770  70.860  1.00  0.00    -0.264 N  
HETATM    7 CL   UNL     1     -10.786   4.357  74.100  1.00  0.00    -0.307 Cl 
HETATM    8  C   UNL     1      -9.749   5.216  71.761  1.00  0.00    -0.161 C  
HETATM    9  C   UNL     1      -9.831   5.595  73.250  1.00  0.00    -0.168 C  
HETATM   10 CL   UNL     1      -8.198   5.695  73.957  1.00  0.00    -0.109 Cl 
HETATM   11  O   UNL     1      -8.885   4.420  71.368  1.00  0.00    -0.109 OA 
BRANCH   6  12
HETATM   12  C   UNL     1     -11.952   6.359  71.376  1.00  0.00    -0.247 C  
BRANCH  12  13
HETATM   13  C   UNL     1     -12.071   7.862  71.457  1.00  0.00    -0.336 A  
HETATM   14  C   UNL     1     -13.319   8.482  71.622  1.00  0.00    -0.372 A  
HETATM   15  C   UNL     1     -13.431   9.874  71.553  1.00  0.00    -0.393 A  
HETATM   16  C   UNL     1     -12.300  10.674  71.355  1.00  0.00    -0.350 A  
HETATM   17  C   UNL     1     -10.933   8.672  71.318  1.00  0.00    -0.333 A  
HETATM   18  C   UNL     1     -11.048  10.067  71.247  1.00  0.00    -0.185 A  
BRANCH  16  19
HETATM   19  O   UNL     1     -12.561  12.017  71.178  1.00  0.00    -0.367 OA 
BRANCH  19  20
HETATM   20  C   UNL     1     -12.241  12.646  69.998  1.00  0.00    -0.197 A  
HETATM   21  C   UNL     1     -12.003  14.024  70.066  1.00  0.00    -0.404 A  
HETATM   22  C   UNL     1     -11.615  14.729  68.923  1.00  0.00    -0.340 A  
HETATM   23  C   UNL     1     -11.465  14.045  67.709  1.00  0.00    -0.322 A  
HETATM   24  C   UNL     1     -11.666  12.658  67.647  1.00  0.00    -0.420 A  
HETATM   25  N   UNL     1     -11.089  14.779  66.498  1.00  0.00    -0.330 N  
HETATM   26  C   UNL     1     -12.033  11.961  68.798  1.00  0.00    -0.307 A  
HETATM   27  O   UNL     1     -10.854  15.990  66.605  1.00  0.00    -0.285 OA 
HETATM   28  O   UNL     1     -11.040  14.146  65.430  1.00  0.00    -0.302 OA 
ENDBRANCH  19  20
ENDBRANCH  16  19
ENDBRANCH  12  13
ENDBRANCH   6  12
ENDBRANCH   5   6
ENDBRANCH   4   5
ENDBRANCH   3   4
ENDBRANCH   2   3
TORSDOF 8
ENDMDL
MODEL       57
REMARK 921   NORMALIZED FREE ENERGY PREDICTED BY IDOCK:   -5.47 KCAL/MOL
REMARK 922        TOTAL FREE ENERGY PREDICTED BY IDOCK:   -8.96 KCAL/MOL
REMARK 923 INTER-LIGAND FREE ENERGY PREDICTED BY IDOCK:   -7.65 KCAL/MOL
REMARK 924 INTRA-LIGAND FREE ENERGY PREDICTED BY IDOCK:   -1.30 KCAL/MOL
REMARK 927      BINDING AFFINITY PREDICTED BY RF-SCORE:    0.00 PKD
ROOT
HETATM    1  C   UNL     1     -10.094   8.791  71.775  1.00  0.00    -0.403 C  
HETATM    2  C   UNL     1     -11.608   8.773  71.758  1.00  0.00    -0.346 C  
ENDROOT
BRANCH   2   3
HETATM    3  O   UNL     1     -12.104   7.672  70.987  1.00  0.00    -0.305 OA 
BRANCH   3   4
HETATM    4  C   UNL     1     -10.998   6.890  70.519  1.00  0.00    -0.273 C  
BRANCH   4   5
HETATM    5  C   UNL     1     -11.189   6.321  69.105  1.00  0.00    -0.371 C  
BRANCH   5   6
HETATM    6  N   UNL     1     -10.248   6.730  68.038  1.00  0.00    -0.159 N  
HETATM    7 CL   UNL     1      -7.092   5.719  66.807  1.00  0.00    -0.068 Cl 
HETATM    8  C   UNL     1      -9.756   5.668  67.233  1.00  0.00    -0.135 C  
HETATM    9  C   UNL     1      -8.721   5.984  66.141  1.00  0.00    -0.146 C  
HETATM   10 CL   UNL     1      -8.975   4.937  64.721  1.00  0.00    -0.149 Cl 
HETATM   11  O   UNL     1     -10.129   4.502  67.419  1.00  0.00    -0.151 OA 
BRANCH   6  12
HETATM   12  C   UNL     1      -9.509   8.010  68.107  1.00  0.00    -0.143 C  
BRANCH  12  13
HETATM   13  C   UNL     1     -10.142   9.248  67.519  1.00  0.00    -0.273 A  
HETATM   14  C   UNL     1      -9.932   9.603  66.178  1.00  0.00    -0.346 A  
HETATM   15  C   UNL     1     -10.406  10.823  65.687  1.00  0.00    -0.297 A  
HETATM   16  C   UNL     1     -11.130  11.693  66.510  1.00  0.00    -0.301 A  
HETATM   17  C   UNL     1     -10.919  10.097  68.324  1.00  0.00    -0.299 A  
HETATM   18  C   UNL     1     -11.393  11.320  67.829  1.00  0.00    -0.354 A  
BRANCH  16  19
HETATM   19  O   UNL     1     -11.430  12.914  65.945  1.00  0.00    -0.317 OA 
BRANCH  19  20
HETATM   20  C   UNL     1     -10.940  14.080  66.486  1.00  0.00    -0.306 A  
HETATM   21  C   UNL     1      -9.778  14.602  65.906  1.00  0.00    -0.341 A  
HETATM   22  C   UNL     1      -9.248  15.814  66.359  1.00  0.00    -0.347 A  
HETATM   23  C   UNL     1      -9.890  16.501  67.399  1.00  0.00    -0.253 A  
HETATM   24  C   UNL     1     -11.075  15.999  67.956  1.00  0.00    -0.334 A  
HETATM   25  N   UNL     1      -9.326  17.756  67.903  1.00  0.00    -0.261 N  
HETATM   26  C   UNL     1     -11.607  14.799  67.482  1.00  0.00    -0.379 A  
HETATM   27  O   UNL     1      -8.317  18.204  67.342  1.00  0.00    -0.235 OA 
HETATM   28  O   UNL     1      -9.886  18.293  68.874  1.00  0.00    -0.362 OA 
ENDBRANCH  19  20
ENDBRANCH  16  19
ENDBRANCH  12  13
ENDBRANCH   6  12
ENDBRANCH   5   6
ENDBRANCH   4   5
ENDBRANCH   3   4
ENDBRANCH   2   3
TORSDOF 8
ENDMDL
MODEL       58
REMARK 921   NORMALIZED FREE ENERGY PREDICTED BY IDOCK:   -5.43 KCAL/MOL
REMARK 922        TOTAL FREE ENERGY PREDICTED BY IDOCK:   -8.90 KCAL/MOL
REMARK 923 INTER-LIGAND FREE ENERGY PREDICTED BY IDOCK:   -7.83 KCAL/MOL
REMARK 924 INTRA-LIGAND FREE ENERGY PREDICTED BY IDOCK:   -1.07 KCAL/MOL
REMARK 927      BINDING AFFINITY PREDICTED BY RF-SCORE:    0.00 PKD
ROOT
HETATM    1  C   UNL     1     -14.383   8.791  71.704  1.00  0.00    -0.387 C  
HETATM    2  C   UNL     1     -12.987   8.850  72.287  1.00  0.00    -0.419 C  
ENDROOT
BRANCH   2   3
HETATM    3  O   UNL     1     -12.310   7.597  72.139  1.00  0.00    -0.292 OA 
BRANCH   3   4
HETATM    4  C   UNL     1     -11.039   7.669  72.797  1.00  0.00    -0.383 C  
BRANCH   4   5
HETATM    5  C   UNL     1      -9.872   7.113  71.965  1.00  0.00    -0.158 C  
BRANCH   5   6
HETATM    6  N   UNL     1      -9.705   7.578  70.570  1.00  0.00    -0.179 N  
HETATM    7 CL   UNL     1      -8.112   6.465  67.616  1.00  0.00    -0.113 Cl 
HETATM    8  C   UNL     1      -9.963   6.596  69.576  1.00  0.00    -0.163 C  
HETATM    9  C   UNL     1      -9.751   6.964  68.098  1.00  0.00    -0.131 C  
HETATM   10 CL   UNL     1     -10.960   6.148  67.074  1.00  0.00    -0.426 Cl 
HETATM   11  O   UNL     1     -10.325   5.454  69.888  1.00  0.00    -0.260 OA 
BRANCH   6  12
HETATM   12  C   UNL     1      -8.886   8.765  70.242  1.00  0.00    -0.160 C  
BRANCH  12  13
HETATM   13  C   UNL     1      -9.496   9.862  69.405  1.00  0.00    -0.226 A  
HETATM   14  C   UNL     1     -10.839  10.234  69.564  1.00  0.00    -0.292 A  
HETATM   15  C   UNL     1     -11.428  11.150  68.687  1.00  0.00    -0.363 A  
HETATM   16  C   UNL     1     -10.682  11.740  67.661  1.00  0.00    -0.214 A  
HETATM   17  C   UNL     1      -8.737  10.501  68.411  1.00  0.00    -0.137 A  
HETATM   18  C   UNL     1      -9.330  11.418  67.533  1.00  0.00    -0.166 A  
BRANCH  16  19
HETATM   19  O   UNL     1     -11.408  12.525  66.791  1.00  0.00    -0.295 OA 
BRANCH  19  20
HETATM   20  C   UNL     1     -11.192  13.882  66.721  1.00  0.00    -0.318 A  
HETATM   21  C   UNL     1     -11.545  14.632  67.848  1.00  0.00    -0.373 A  
HETATM   22  C   UNL     1     -11.305  16.009  67.882  1.00  0.00    -0.218 A  
HETATM   23  C   UNL     1     -10.707  16.631  66.777  1.00  0.00    -0.133 A  
HETATM   24  C   UNL     1     -10.318  15.875  65.662  1.00  0.00    -0.413 A  
HETATM   25  N   UNL     1     -10.479  18.079  66.788  1.00  0.00    -0.350 N  
HETATM   26  C   UNL     1     -10.543  14.499  65.648  1.00  0.00    -0.343 A  
HETATM   27  O   UNL     1     -10.772  18.703  67.816  1.00  0.00    -0.409 OA 
HETATM   28  O   UNL     1     -10.014  18.599  65.760  1.00  0.00    -0.504 OA 
ENDBRANCH  19  20
ENDBRANCH  16  19
ENDBRANCH  12  13
ENDBRANCH   6  12
ENDBRANCH   5   6
ENDBRANCH   4   5
ENDBRANCH   3   4
ENDBRANCH   2   3
TORSDOF 8
ENDMDL
MODEL       59
REMARK 921   NORMALIZED FREE ENERGY PREDICTED BY IDOCK:   -5.41 KCAL/MOL
REMARK 922        TOTAL FREE ENERGY PREDICTED BY IDOCK:   -8.88 KCAL/MOL
REMARK 923 INTER-LIGAND FREE ENERGY PREDICTED BY IDOCK:   -7.61 KCAL/MOL
REMARK 924 INTRA-LIGAND FREE ENERGY PREDICTED BY IDOCK:   -1.27 KCAL/MOL
REMARK 927      BINDING AFFINITY PREDICTED BY RF-SCORE:    0.00 PKD
ROOT
HETATM    1  C   UNL     1      -8.426   7.288  67.367  1.00  0.00    -0.119 C  
HETATM    2  C   UNL     1      -8.210   8.518  66.511  1.00  0.00    -0.108 C  
ENDROOT
BRANCH   2   3
HETATM    3  O   UNL     1      -7.973   9.677  67.320  1.00  0.00    -0.105 OA 
BRANCH   3   4
HETATM    4  C   UNL     1      -7.536   9.262  68.620  1.00  0.00    -0.080 C  
BRANCH   4   5
HETATM    5  C   UNL     1      -8.293   9.931  69.778  1.00  0.00    -0.183 C  
BRANCH   5   6
HETATM    6  N   UNL     1      -9.579   9.350  70.219  1.00  0.00    -0.232 N  
HETATM    7 CL   UNL     1     -10.905   6.143  70.898  1.00  0.00    -0.323 Cl 
HETATM    8  C   UNL     1      -9.479   8.403  71.274  1.00  0.00    -0.186 C  
HETATM    9  C   UNL     1     -10.756   7.694  71.757  1.00  0.00    -0.216 C  
HETATM   10 CL   UNL     1     -10.682   7.410  73.515  1.00  0.00    -0.412 Cl 
HETATM   11  O   UNL     1      -8.384   8.129  71.782  1.00  0.00    -0.118 OA 
BRANCH   6  12
HETATM   12  C   UNL     1     -10.774   9.361  69.347  1.00  0.00    -0.217 C  
BRANCH  12  13
HETATM   13  C   UNL     1     -11.240  10.676  68.768  1.00  0.00    -0.337 A  
HETATM   14  C   UNL     1     -11.195  10.917  67.387  1.00  0.00    -0.345 A  
HETATM   15  C   UNL     1     -11.495  12.185  66.880  1.00  0.00    -0.414 A  
HETATM   16  C   UNL     1     -11.879  13.224  67.735  1.00  0.00    -0.353 A  
HETATM   17  C   UNL     1     -11.683  11.705  69.614  1.00  0.00    -0.418 A  
HETATM   18  C   UNL     1     -11.982  12.976  69.104  1.00  0.00    -0.320 A  
BRANCH  16  19
HETATM   19  O   UNL     1     -12.023  14.454  67.127  1.00  0.00    -0.405 OA 
BRANCH  19  20
HETATM   20  C   UNL     1     -11.097  15.450  67.328  1.00  0.00    -0.302 A  
HETATM   21  C   UNL     1     -10.135  15.625  66.325  1.00  0.00    -0.316 A  
HETATM   22  C   UNL     1      -9.193  16.653  66.424  1.00  0.00    -0.318 A  
HETATM   23  C   UNL     1      -9.220  17.508  67.535  1.00  0.00    -0.242 A  
HETATM   24  C   UNL     1     -10.206  17.358  68.521  1.00  0.00    -0.369 A  
HETATM   25  N   UNL     1      -8.218  18.570  67.664  1.00  0.00    -0.252 N  
HETATM   26  C   UNL     1     -11.154  16.342  68.402  1.00  0.00    -0.362 A  
HETATM   27  O   UNL     1      -7.406  18.714  66.742  1.00  0.00    -0.207 OA 
HETATM   28  O   UNL     1      -8.234  19.256  68.700  1.00  0.00    -0.356 OA 
ENDBRANCH  19  20
ENDBRANCH  16  19
ENDBRANCH  12  13
ENDBRANCH   6  12
ENDBRANCH   5   6
ENDBRANCH   4   5
ENDBRANCH   3   4
ENDBRANCH   2   3
TORSDOF 8
ENDMDL
MODEL       60
REMARK 921   NORMALIZED FREE ENERGY PREDICTED BY IDOCK:   -5.41 KCAL/MOL
REMARK 922        TOTAL FREE ENERGY PREDICTED BY IDOCK:   -8.87 KCAL/MOL
REMARK 923 INTER-LIGAND FREE ENERGY PREDICTED BY IDOCK:   -7.68 KCAL/MOL
REMARK 924 INTRA-LIGAND FREE ENERGY PREDICTED BY IDOCK:   -1.19 KCAL/MOL
REMARK 927      BINDING AFFINITY PREDICTED BY RF-SCORE:    0.00 PKD
ROOT
HETATM    1  C   UNL     1      -9.923  14.541  65.714  1.00  0.00    -0.361 C  
HETATM    2  C   UNL     1      -9.022  14.166  66.872  1.00  0.00    -0.230 C  
ENDROOT
BRANCH   2   3
HETATM    3  O   UNL     1      -8.666  15.319  67.645  1.00  0.00    -0.164 OA 
BRANCH   3   4
HETATM    4  C   UNL     1      -9.811  15.760  68.386  1.00  0.00    -0.206 C  
BRANCH   4   5
HETATM    5  C   UNL     1     -10.179  14.851  69.569  1.00  0.00    -0.130 C  
BRANCH   5   6
HETATM    6  N   UNL     1     -11.603  14.524  69.802  1.00  0.00    -0.280 N  
HETATM    7 CL   UNL     1     -13.539  12.872  72.256  1.00  0.00    -0.658 Cl 
HETATM    8  C   UNL     1     -12.084  14.831  71.103  1.00  0.00    -0.332 C  
HETATM    9  C   UNL     1     -13.534  14.465  71.463  1.00  0.00    -0.368 C  
HETATM   10 CL   UNL     1     -14.231  15.690  72.554  1.00  0.00    -0.595 Cl 
HETATM   11  O   UNL     1     -11.346  15.358  71.947  1.00  0.00    -0.419 OA 
BRANCH   6  12
HETATM   12  C   UNL     1     -12.318  13.538  68.962  1.00  0.00    -0.013 C  
BRANCH  12  13
HETATM   13  C   UNL     1     -11.818  12.115  68.926  1.00  0.00    -0.358 A  
HETATM   14  C   UNL     1     -11.699  11.358  70.101  1.00  0.00    -0.414 A  
HETATM   15  C   UNL     1     -11.102  10.093  70.071  1.00  0.00    -0.368 A  
HETATM   16  C   UNL     1     -10.647   9.546  68.866  1.00  0.00    -0.216 A  
HETATM   17  C   UNL     1     -11.414  11.535  67.712  1.00  0.00    -0.357 A  
HETATM   18  C   UNL     1     -10.815  10.269  67.685  1.00  0.00    -0.363 A  
BRANCH  16  19
HETATM   19  O   UNL     1      -9.966   8.353  68.990  1.00  0.00    -0.179 OA 
BRANCH  19  20
HETATM   20  C   UNL     1      -9.887   7.476  67.934  1.00  0.00    -0.154 A  
HETATM   21  C   UNL     1      -8.697   7.488  67.197  1.00  0.00    -0.121 A  
HETATM   22  C   UNL     1      -8.511   6.587  66.144  1.00  0.00    -0.137 A  
HETATM   23  C   UNL     1      -9.527   5.672  65.834  1.00  0.00    -0.067 A  
HETATM   24  C   UNL     1     -10.704   5.632  66.595  1.00  0.00    -0.339 A  
HETATM   25  N   UNL     1      -9.356   4.743  64.712  1.00  0.00    -0.108 N  
HETATM   26  C   UNL     1     -10.870   6.522  67.656  1.00  0.00    -0.419 A  
HETATM   27  O   UNL     1      -8.277   4.761  64.106  1.00  0.00    -0.105 OA 
HETATM   28  O   UNL     1     -10.311   4.001  64.426  1.00  0.00    -0.222 OA 
ENDBRANCH  19  20
ENDBRANCH  16  19
ENDBRANCH  12  13
ENDBRANCH   6  12
ENDBRANCH   5   6
ENDBRANCH   4   5
ENDBRANCH   3   4
ENDBRANCH   2   3
TORSDOF 8
ENDMDL
MODEL       61
REMARK 921   NORMALIZED FREE ENERGY PREDICTED BY IDOCK:   -5.41 KCAL/MOL
REMARK 922        TOTAL FREE ENERGY PREDICTED BY IDOCK:   -8.87 KCAL/MOL
REMARK 923 INTER-LIGAND FREE ENERGY PREDICTED BY IDOCK:   -8.06 KCAL/MOL
REMARK 924 INTRA-LIGAND FREE ENERGY PREDICTED BY IDOCK:   -0.81 KCAL/MOL
REMARK 927      BINDING AFFINITY PREDICTED BY RF-SCORE:    0.00 PKD
ROOT
HETATM    1  C   UNL     1     -13.390  14.006  72.193  1.00  0.00    -0.545 C  
HETATM    2  C   UNL     1     -13.295  15.110  71.161  1.00  0.00    -0.467 C  
ENDROOT
BRANCH   2   3
HETATM    3  O   UNL     1     -12.162  14.923  70.305  1.00  0.00    -0.296 OA 
BRANCH   3   4
HETATM    4  C   UNL     1     -11.486  16.176  70.139  1.00  0.00    -0.300 C  
BRANCH   4   5
HETATM    5  C   UNL     1     -10.028  16.042  69.672  1.00  0.00    -0.226 C  
BRANCH   5   6
HETATM    6  N   UNL     1      -9.693  16.389  68.274  1.00  0.00    -0.220 N  
HETATM    7 CL   UNL     1     -10.723  18.740  65.842  1.00  0.00    -0.429 Cl 
HETATM    8  C   UNL     1      -9.480  17.773  68.033  1.00  0.00    -0.281 C  
HETATM    9  C   UNL     1      -9.191  18.239  66.596  1.00  0.00    -0.295 C  
HETATM   10 CL   UNL     1      -8.044  19.603  66.604  1.00  0.00    -0.311 Cl 
HETATM   11  O   UNL     1      -9.549  18.597  68.954  1.00  0.00    -0.340 OA 
BRANCH   6  12
HETATM   12  C   UNL     1     -10.028  15.486  67.151  1.00  0.00    -0.242 C  
BRANCH  12  13
HETATM   13  C   UNL     1     -10.229  14.017  67.433  1.00  0.00    -0.248 A  
HETATM   14  C   UNL     1      -9.162  13.205  67.847  1.00  0.00    -0.207 A  
HETATM   15  C   UNL     1      -9.330  11.822  67.968  1.00  0.00    -0.184 A  
HETATM   16  C   UNL     1     -10.571  11.228  67.715  1.00  0.00    -0.201 A  
HETATM   17  C   UNL     1     -11.486  13.423  67.239  1.00  0.00    -0.374 A  
HETATM   18  C   UNL     1     -11.652  12.036  67.360  1.00  0.00    -0.388 A  
BRANCH  16  19
HETATM   19  O   UNL     1     -10.573   9.850  67.745  1.00  0.00    -0.226 OA 
BRANCH  19  20
HETATM   20  C   UNL     1     -10.604   9.172  68.942  1.00  0.00    -0.191 A  
HETATM   21  C   UNL     1     -10.281   7.811  68.901  1.00  0.00    -0.220 A  
HETATM   22  C   UNL     1     -10.232   7.063  70.081  1.00  0.00    -0.206 A  
HETATM   23  C   UNL     1     -10.509   7.688  71.305  1.00  0.00    -0.206 A  
HETATM   24  C   UNL     1     -10.796   9.060  71.352  1.00  0.00    -0.400 A  
HETATM   25  N   UNL     1     -10.491   6.906  72.545  1.00  0.00    -0.206 N  
HETATM   26  C   UNL     1     -10.822   9.801  70.171  1.00  0.00    -0.340 A  
HETATM   27  O   UNL     1     -10.167   5.714  72.472  1.00  0.00    -0.182 OA 
HETATM   28  O   UNL     1     -10.815   7.483  73.596  1.00  0.00    -0.329 OA 
ENDBRANCH  19  20
ENDBRANCH  16  19
ENDBRANCH  12  13
ENDBRANCH   6  12
ENDBRANCH   5   6
ENDBRANCH   4   5
ENDBRANCH   3   4
ENDBRANCH   2   3
TORSDOF 8
ENDMDL
MODEL       62
REMARK 921   NORMALIZED FREE ENERGY PREDICTED BY IDOCK:   -5.41 KCAL/MOL
REMARK 922        TOTAL FREE ENERGY PREDICTED BY IDOCK:   -8.87 KCAL/MOL
REMARK 923 INTER-LIGAND FREE ENERGY PREDICTED BY IDOCK:   -8.06 KCAL/MOL
REMARK 924 INTRA-LIGAND FREE ENERGY PREDICTED BY IDOCK:   -0.81 KCAL/MOL
REMARK 927      BINDING AFFINITY PREDICTED BY RF-SCORE:    0.00 PKD
ROOT
HETATM    1  C   UNL     1     -13.891  15.275  71.246  1.00  0.00    -0.562 C  
HETATM    2  C   UNL     1     -12.593  15.486  70.495  1.00  0.00    -0.416 C  
ENDROOT
BRANCH   2   3
HETATM    3  O   UNL     1     -12.276  14.352  69.679  1.00  0.00    -0.321 OA 
BRANCH   3   4
HETATM    4  C   UNL     1     -11.717  14.806  68.440  1.00  0.00    -0.314 C  
BRANCH   4   5
HETATM    5  C   UNL     1     -11.902  13.824  67.274  1.00  0.00    -0.401 C  
BRANCH   5   6
HETATM    6  N   UNL     1     -10.768  12.958  66.883  1.00  0.00    -0.256 N  
HETATM    7 CL   UNL     1     -10.276   9.641  65.761  1.00  0.00    -0.277 Cl 
HETATM    8  C   UNL     1     -10.945  12.254  65.661  1.00  0.00    -0.299 C  
HETATM    9  C   UNL     1      -9.848  11.276  65.204  1.00  0.00    -0.252 C  
HETATM   10 CL   UNL     1      -9.700  11.294  63.428  1.00  0.00    -0.342 Cl 
HETATM   11  O   UNL     1     -11.971  12.399  64.985  1.00  0.00    -0.390 OA 
BRANCH   6  12
HETATM   12  C   UNL     1      -9.780  12.481  67.875  1.00  0.00    -0.205 C  
BRANCH  12  13
HETATM   13  C   UNL     1     -10.192  11.409  68.855  1.00  0.00    -0.184 A  
HETATM   14  C   UNL     1     -11.528  11.268  69.257  1.00  0.00    -0.369 A  
HETATM   15  C   UNL     1     -11.871  10.366  70.269  1.00  0.00    -0.399 A  
HETATM   16  C   UNL     1     -10.897   9.562  70.871  1.00  0.00    -0.337 A  
HETATM   17  C   UNL     1      -9.228  10.558  69.421  1.00  0.00    -0.128 A  
HETATM   18  C   UNL     1      -9.575   9.655  70.435  1.00  0.00    -0.292 A  
BRANCH  16  19
HETATM   19  O   UNL     1     -11.342   8.811  71.938  1.00  0.00    -0.316 OA 
BRANCH  19  20
HETATM   20  C   UNL     1     -10.971   7.493  72.073  1.00  0.00    -0.242 A  
HETATM   21  C   UNL     1     -10.585   7.078  73.353  1.00  0.00    -0.399 A  
HETATM   22  C   UNL     1     -10.250   5.741  73.588  1.00  0.00    -0.232 A  
HETATM   23  C   UNL     1     -10.304   4.821  72.532  1.00  0.00    -0.201 A  
HETATM   24  C   UNL     1     -10.728   5.227  71.258  1.00  0.00    -0.198 A  
HETATM   25  N   UNL     1      -9.925   3.423  72.761  1.00  0.00    -0.143 N  
HETATM   26  C   UNL     1     -11.080   6.558  71.040  1.00  0.00    -0.339 A  
HETATM   27  O   UNL     1      -9.622   3.087  73.912  1.00  0.00    -0.087 OA 
HETATM   28  O   UNL     1      -9.917   2.659  71.781  1.00  0.00    -0.161 OA 
ENDBRANCH  19  20
ENDBRANCH  16  19
ENDBRANCH  12  13
ENDBRANCH   6  12
ENDBRANCH   5   6
ENDBRANCH   4   5
ENDBRANCH   3   4
ENDBRANCH   2   3
TORSDOF 8
ENDMDL
MODEL       63
REMARK 921   NORMALIZED FREE ENERGY PREDICTED BY IDOCK:   -5.40 KCAL/MOL
REMARK 922        TOTAL FREE ENERGY PREDICTED BY IDOCK:   -8.86 KCAL/MOL
REMARK 923 INTER-LIGAND FREE ENERGY PREDICTED BY IDOCK:   -8.05 KCAL/MOL
REMARK 924 INTRA-LIGAND FREE ENERGY PREDICTED BY IDOCK:   -0.81 KCAL/MOL
REMARK 927      BINDING AFFINITY PREDICTED BY RF-SCORE:    0.00 PKD
ROOT
HETATM    1  C   UNL     1     -10.147   2.250  63.358  1.00  0.00    -0.134 C  
HETATM    2  C   UNL     1      -8.968   3.191  63.236  1.00  0.00    -0.092 C  
ENDROOT
BRANCH   2   3
HETATM    3  O   UNL     1      -8.331   3.391  64.504  1.00  0.00    -0.092 OA 
BRANCH   3   4
HETATM    4  C   UNL     1      -7.879   4.748  64.594  1.00  0.00    -0.088 C  
BRANCH   4   5
HETATM    5  C   UNL     1      -8.824   5.670  65.380  1.00  0.00    -0.106 C  
BRANCH   5   6
HETATM    6  N   UNL     1      -8.682   5.751  66.851  1.00  0.00    -0.110 N  
HETATM    7 CL   UNL     1     -10.798   5.820  69.683  1.00  0.00    -0.423 Cl 
HETATM    8  C   UNL     1      -9.447   4.801  67.580  1.00  0.00    -0.146 C  
HETATM    9  C   UNL     1      -9.417   4.850  69.118  1.00  0.00    -0.141 C  
HETATM   10 CL   UNL     1      -9.515   3.204  69.793  1.00  0.00    -0.226 Cl 
HETATM   11  O   UNL     1     -10.148   3.964  66.997  1.00  0.00    -0.049 OA 
BRANCH   6  12
HETATM   12  C   UNL     1      -8.203   6.982  67.516  1.00  0.00    -0.116 C  
BRANCH  12  13
HETATM   13  C   UNL     1      -9.073   8.215  67.479  1.00  0.00    -0.147 A  
HETATM   14  C   UNL     1      -9.656   8.727  68.647  1.00  0.00    -0.159 A  
HETATM   15  C   UNL     1     -10.571   9.782  68.578  1.00  0.00    -0.252 A  
HETATM   16  C   UNL     1     -10.894  10.369  67.350  1.00  0.00    -0.286 A  
HETATM   17  C   UNL     1      -9.356   8.847  66.256  1.00  0.00    -0.279 A  
HETATM   18  C   UNL     1     -10.274   9.903  66.190  1.00  0.00    -0.277 A  
BRANCH  16  19
HETATM   19  O   UNL     1     -11.901  11.310  67.402  1.00  0.00    -0.590 OA 
BRANCH  19  20
HETATM   20  C   UNL     1     -11.774  12.512  66.746  1.00  0.00    -0.384 A  
HETATM   21  C   UNL     1     -10.925  13.459  67.330  1.00  0.00    -0.287 A  
HETATM   22  C   UNL     1     -10.695  14.685  66.698  1.00  0.00    -0.305 A  
HETATM   23  C   UNL     1     -11.322  14.957  65.474  1.00  0.00    -0.339 A  
HETATM   24  C   UNL     1     -12.143  13.994  64.868  1.00  0.00    -0.435 A  
HETATM   25  N   UNL     1     -11.113  16.251  64.817  1.00  0.00    -0.382 N  
HETATM   26  C   UNL     1     -12.349  12.767  65.498  1.00  0.00    -0.495 A  
HETATM   27  O   UNL     1     -10.329  17.048  65.347  1.00  0.00    -0.617 OA 
HETATM   28  O   UNL     1     -11.746  16.477  63.772  1.00  0.00    -1.086 OA 
ENDBRANCH  19  20
ENDBRANCH  16  19
ENDBRANCH  12  13
ENDBRANCH   6  12
ENDBRANCH   5   6
ENDBRANCH   4   5
ENDBRANCH   3   4
ENDBRANCH   2   3
TORSDOF 8
ENDMDL
MODEL       64
REMARK 921   NORMALIZED FREE ENERGY PREDICTED BY IDOCK:   -5.39 KCAL/MOL
REMARK 922        TOTAL FREE ENERGY PREDICTED BY IDOCK:   -8.84 KCAL/MOL
REMARK 923 INTER-LIGAND FREE ENERGY PREDICTED BY IDOCK:   -7.50 KCAL/MOL
REMARK 924 INTRA-LIGAND FREE ENERGY PREDICTED BY IDOCK:   -1.34 KCAL/MOL
REMARK 927      BINDING AFFINITY PREDICTED BY RF-SCORE:    0.00 PKD
ROOT
HETATM    1  C   UNL     1     -10.924  15.954  65.044  1.00  0.00    -0.426 C  
HETATM    2  C   UNL     1      -9.770  15.884  66.020  1.00  0.00    -0.343 C  
ENDROOT
BRANCH   2   3
HETATM    3  O   UNL     1      -9.563  17.145  66.669  1.00  0.00    -0.247 OA 
BRANCH   3   4
HETATM    4  C   UNL     1     -10.565  17.324  67.678  1.00  0.00    -0.350 C  
BRANCH   4   5
HETATM    5  C   UNL     1     -10.546  16.248  68.775  1.00  0.00    -0.298 C  
BRANCH   5   6
HETATM    6  N   UNL     1     -11.814  15.574  69.136  1.00  0.00    -0.360 N  
HETATM    7 CL   UNL     1     -12.910  13.120  71.432  1.00  0.00    -0.441 Cl 
HETATM    8  C   UNL     1     -12.093  15.528  70.528  1.00  0.00    -0.386 C  
HETATM    9  C   UNL     1     -13.355  14.789  71.006  1.00  0.00    -0.374 C  
HETATM   10 CL   UNL     1     -14.057  15.611  72.423  1.00  0.00    -0.625 Cl 
HETATM   11  O   UNL     1     -11.326  16.047  71.349  1.00  0.00    -0.385 OA 
BRANCH   6  12
HETATM   12  C   UNL     1     -12.472  14.620  68.217  1.00  0.00     0.270 C  
BRANCH  12  13
HETATM   13  C   UNL     1     -11.751  13.343  67.856  1.00  0.00    -0.396 A  
HETATM   14  C   UNL     1     -10.900  12.707  68.772  1.00  0.00    -0.267 A  
HETATM   15  C   UNL     1     -10.132  11.607  68.377  1.00  0.00    -0.207 A  
HETATM   16  C   UNL     1     -10.224  11.100  67.076  1.00  0.00    -0.215 A  
HETATM   17  C   UNL     1     -11.883  12.794  66.570  1.00  0.00    -0.471 A  
HETATM   18  C   UNL     1     -11.111  11.692  66.177  1.00  0.00    -0.335 A  
BRANCH  16  19
HETATM   19  O   UNL     1      -9.324  10.099  66.777  1.00  0.00    -0.155 OA 
BRANCH  19  20
HETATM   20  C   UNL     1      -9.234   8.976  67.566  1.00  0.00    -0.135 A  
HETATM   21  C   UNL     1     -10.350   8.130  67.584  1.00  0.00    -0.313 A  
HETATM   22  C   UNL     1     -10.319   6.939  68.315  1.00  0.00    -0.220 A  
HETATM   23  C   UNL     1      -9.161   6.597  69.027  1.00  0.00    -0.133 A  
HETATM   24  C   UNL     1      -8.029   7.423  68.979  1.00  0.00    -0.122 A  
HETATM   25  N   UNL     1      -9.128   5.365  69.821  1.00  0.00    -0.125 N  
HETATM   26  C   UNL     1      -8.063   8.600  68.231  1.00  0.00    -0.118 A  
HETATM   27  O   UNL     1     -10.121   4.627  69.785  1.00  0.00    -0.234 OA 
HETATM   28  O   UNL     1      -8.109   5.139  70.495  1.00  0.00    -0.090 OA 
ENDBRANCH  19  20
ENDBRANCH  16  19
ENDBRANCH  12  13
ENDBRANCH   6  12
ENDBRANCH   5   6
ENDBRANCH   4   5
ENDBRANCH   3   4
ENDBRANCH   2   3
TORSDOF 8
ENDMDL
MODEL       65
REMARK 921   NORMALIZED FREE ENERGY PREDICTED BY IDOCK:   -5.37 KCAL/MOL
REMARK 922        TOTAL FREE ENERGY PREDICTED BY IDOCK:   -8.81 KCAL/MOL
REMARK 923 INTER-LIGAND FREE ENERGY PREDICTED BY IDOCK:   -7.99 KCAL/MOL
REMARK 924 INTRA-LIGAND FREE ENERGY PREDICTED BY IDOCK:   -0.82 KCAL/MOL
REMARK 927      BINDING AFFINITY PREDICTED BY RF-SCORE:    0.00 PKD
ROOT
HETATM    1  C   UNL     1     -10.791  19.825  67.325  1.00  0.00    -0.469 C  
HETATM    2  C   UNL     1     -10.576  19.352  65.904  1.00  0.00    -0.459 C  
ENDROOT
BRANCH   2   3
HETATM    3  O   UNL     1      -9.741  18.189  65.865  1.00  0.00    -0.521 OA 
BRANCH   3   4
HETATM    4  C   UNL     1      -9.150  17.992  67.156  1.00  0.00    -0.256 C  
BRANCH   4   5
HETATM    5  C   UNL     1      -9.240  16.547  67.671  1.00  0.00    -0.200 C  
BRANCH   5   6
HETATM    6  N   UNL     1     -10.575  15.945  67.881  1.00  0.00    -0.291 N  
HETATM    7 CL   UNL     1     -11.973  13.246  69.686  1.00  0.00    -0.379 Cl 
HETATM    8  C   UNL     1     -10.909  15.685  69.237  1.00  0.00    -0.250 C  
HETATM    9  C   UNL     1     -12.250  14.999  69.551  1.00  0.00    -0.232 C  
HETATM   10 CL   UNL     1     -12.926  15.626  71.076  1.00  0.00    -0.540 Cl 
HETATM   11  O   UNL     1     -10.129  15.978  70.153  1.00  0.00    -0.158 OA 
BRANCH   6  12
HETATM   12  C   UNL     1     -11.282  15.232  66.795  1.00  0.00    -0.241 C  
BRANCH  12  13
HETATM   13  C   UNL     1     -10.843  13.833  66.437  1.00  0.00    -0.287 A  
HETATM   14  C   UNL     1     -11.704  12.952  65.765  1.00  0.00    -0.437 A  
HETATM   15  C   UNL     1     -11.337  11.617  65.567  1.00  0.00    -0.224 A  
HETATM   16  C   UNL     1     -10.093  11.146  66.000  1.00  0.00    -0.244 A  
HETATM   17  C   UNL     1      -9.573  13.370  66.816  1.00  0.00    -0.262 A  
HETATM   18  C   UNL     1      -9.208  12.031  66.617  1.00  0.00    -0.211 A  
BRANCH  16  19
HETATM   19  O   UNL     1      -9.904   9.787  65.860  1.00  0.00    -0.248 OA 
BRANCH  19  20
HETATM   20  C   UNL     1     -10.070   8.940  66.930  1.00  0.00    -0.273 A  
HETATM   21  C   UNL     1     -10.557   9.510  68.112  1.00  0.00    -0.265 A  
HETATM   22  C   UNL     1     -10.809   8.708  69.229  1.00  0.00    -0.082 A  
HETATM   23  C   UNL     1     -10.571   7.328  69.155  1.00  0.00    -0.208 A  
HETATM   24  C   UNL     1     -10.120   6.750  67.960  1.00  0.00    -0.183 A  
HETATM   25  N   UNL     1     -10.802   6.482  70.330  1.00  0.00    -0.255 N  
HETATM   26  C   UNL     1      -9.891   7.556  66.845  1.00  0.00    -0.295 A  
HETATM   27  O   UNL     1     -11.264   7.017  71.346  1.00  0.00    -0.241 OA 
HETATM   28  O   UNL     1     -10.507   5.278  70.242  1.00  0.00    -0.279 OA 
ENDBRANCH  19  20
ENDBRANCH  16  19
ENDBRANCH  12  13
ENDBRANCH   6  12
ENDBRANCH   5   6
ENDBRANCH   4   5
ENDBRANCH   3   4
ENDBRANCH   2   3
TORSDOF 8
ENDMDL
MODEL       66
REMARK 921   NORMALIZED FREE ENERGY PREDICTED BY IDOCK:   -5.36 KCAL/MOL
REMARK 922        TOTAL FREE ENERGY PREDICTED BY IDOCK:   -8.79 KCAL/MOL
REMARK 923 INTER-LIGAND FREE ENERGY PREDICTED BY IDOCK:   -7.95 KCAL/MOL
REMARK 924 INTRA-LIGAND FREE ENERGY PREDICTED BY IDOCK:   -0.84 KCAL/MOL
REMARK 927      BINDING AFFINITY PREDICTED BY RF-SCORE:    0.00 PKD
ROOT
HETATM    1  C   UNL     1     -13.554  13.137  72.348  1.00  0.00    -0.667 C  
HETATM    2  C   UNL     1     -13.008  12.154  71.335  1.00  0.00    -0.257 C  
ENDROOT
BRANCH   2   3
HETATM    3  O   UNL     1     -13.176  10.803  71.781  1.00  0.00    -0.445 OA 
BRANCH   3   4
HETATM    4  C   UNL     1     -12.607   9.914  70.811  1.00  0.00    -0.241 C  
BRANCH   4   5
HETATM    5  C   UNL     1     -11.106  10.130  70.569  1.00  0.00    -0.327 C  
BRANCH   5   6
HETATM    6  N   UNL     1     -10.356   9.121  69.788  1.00  0.00    -0.206 N  
HETATM    7 CL   UNL     1      -7.085   8.703  68.513  1.00  0.00    -0.072 Cl 
HETATM    8  C   UNL     1      -9.086   8.773  70.322  1.00  0.00    -0.170 C  
HETATM    9  C   UNL     1      -8.203   7.781  69.545  1.00  0.00    -0.128 C  
HETATM   10 CL   UNL     1      -7.281   6.754  70.673  1.00  0.00    -0.068 Cl 
HETATM   11  O   UNL     1      -8.680   9.274  71.379  1.00  0.00    -0.317 OA 
BRANCH   6  12
HETATM   12  C   UNL     1     -10.653   8.869  68.361  1.00  0.00    -0.143 C  
BRANCH  12  13
HETATM   13  C   UNL     1     -10.655  10.034  67.402  1.00  0.00    -0.330 A  
HETATM   14  C   UNL     1      -9.681  10.149  66.398  1.00  0.00    -0.259 A  
HETATM   15  C   UNL     1      -9.610  11.302  65.610  1.00  0.00    -0.260 A  
HETATM   16  C   UNL     1     -10.528  12.343  65.781  1.00  0.00    -0.259 A  
HETATM   17  C   UNL     1     -11.609  11.056  67.529  1.00  0.00    -0.166 A  
HETATM   18  C   UNL     1     -11.535  12.211  66.738  1.00  0.00    -0.418 A  
BRANCH  16  19
HETATM   19  O   UNL     1     -10.272  13.472  65.032  1.00  0.00    -0.345 OA 
BRANCH  19  20
HETATM   20  C   UNL     1     -10.158  14.704  65.634  1.00  0.00    -0.363 A  
HETATM   21  C   UNL     1     -10.794  15.775  64.997  1.00  0.00    -0.461 A  
HETATM   22  C   UNL     1     -10.776  17.049  65.572  1.00  0.00    -0.146 A  
HETATM   23  C   UNL     1     -10.115  17.244  66.793  1.00  0.00    -0.302 A  
HETATM   24  C   UNL     1      -9.509  16.164  67.452  1.00  0.00    -0.227 A  
HETATM   25  N   UNL     1     -10.062  18.582  67.390  1.00  0.00    -0.335 N  
HETATM   26  C   UNL     1      -9.552  14.894  66.879  1.00  0.00    -0.256 A  
HETATM   27  O   UNL     1     -10.666  19.496  66.815  1.00  0.00    -0.464 OA 
HETATM   28  O   UNL     1      -9.404  18.723  68.434  1.00  0.00    -0.316 OA 
ENDBRANCH  19  20
ENDBRANCH  16  19
ENDBRANCH  12  13
ENDBRANCH   6  12
ENDBRANCH   5   6
ENDBRANCH   4   5
ENDBRANCH   3   4
ENDBRANCH   2   3
TORSDOF 8
ENDMDL
MODEL       67
REMARK 921   NORMALIZED FREE ENERGY PREDICTED BY IDOCK:   -5.33 KCAL/MOL
REMARK 922        TOTAL FREE ENERGY PREDICTED BY IDOCK:   -8.76 KCAL/MOL
REMARK 923 INTER-LIGAND FREE ENERGY PREDICTED BY IDOCK:   -7.81 KCAL/MOL
REMARK 924 INTRA-LIGAND FREE ENERGY PREDICTED BY IDOCK:   -0.95 KCAL/MOL
REMARK 927      BINDING AFFINITY PREDICTED BY RF-SCORE:    0.00 PKD
ROOT
HETATM    1  C   UNL     1     -13.537  13.627  72.296  1.00  0.00    -0.669 C  
HETATM    2  C   UNL     1     -14.094  15.030  72.181  1.00  0.00    -0.529 C  
ENDROOT
BRANCH   2   3
HETATM    3  O   UNL     1     -13.756  15.620  70.920  1.00  0.00    -0.549 OA 
BRANCH   3   4
HETATM    4  C   UNL     1     -12.349  15.471  70.693  1.00  0.00    -0.416 C  
BRANCH   4   5
HETATM    5  C   UNL     1     -11.902  15.843  69.271  1.00  0.00    -0.318 C  
BRANCH   5   6
HETATM    6  N   UNL     1     -10.455  15.907  68.971  1.00  0.00    -0.220 N  
HETATM    7 CL   UNL     1      -8.388  16.360  66.139  1.00  0.00    -0.355 Cl 
HETATM    8  C   UNL     1     -10.059  17.003  68.158  1.00  0.00    -0.308 C  
HETATM    9  C   UNL     1      -8.584  17.118  67.737  1.00  0.00    -0.216 C  
HETATM   10 CL   UNL     1      -8.091  18.829  67.662  1.00  0.00    -0.265 Cl 
HETATM   11  O   UNL     1     -10.885  17.839  67.769  1.00  0.00    -0.371 OA 
BRANCH   6  12
HETATM   12  C   UNL     1      -9.589  14.712  69.076  1.00  0.00    -0.145 C  
BRANCH  12  13
HETATM   13  C   UNL     1      -9.701  13.638  68.021  1.00  0.00    -0.226 A  
HETATM   14  C   UNL     1     -10.951  13.233  67.529  1.00  0.00    -0.281 A  
HETATM   15  C   UNL     1     -11.049  12.142  66.659  1.00  0.00    -0.353 A  
HETATM   16  C   UNL     1      -9.903  11.460  66.236  1.00  0.00    -0.218 A  
HETATM   17  C   UNL     1      -8.551  12.987  67.547  1.00  0.00    -0.192 A  
HETATM   18  C   UNL     1      -8.652  11.893  66.676  1.00  0.00    -0.163 A  
BRANCH  16  19
HETATM   19  O   UNL     1     -10.145  10.329  65.485  1.00  0.00    -0.286 OA 
BRANCH  19  20
HETATM   20  C   UNL     1      -9.717   9.094  65.915  1.00  0.00    -0.266 A  
HETATM   21  C   UNL     1     -10.518   8.448  66.864  1.00  0.00    -0.359 A  
HETATM   22  C   UNL     1     -10.186   7.166  67.310  1.00  0.00    -0.315 A  
HETATM   23  C   UNL     1      -9.045   6.532  66.799  1.00  0.00    -0.144 A  
HETATM   24  C   UNL     1      -8.262   7.162  65.820  1.00  0.00    -0.132 A  
HETATM   25  N   UNL     1      -8.670   5.200  67.282  1.00  0.00    -0.104 N  
HETATM   26  C   UNL     1      -8.614   8.433  65.367  1.00  0.00    -0.193 A  
HETATM   27  O   UNL     1      -9.421   4.647  68.096  1.00  0.00    -0.132 OA 
HETATM   28  O   UNL     1      -7.611   4.708  66.857  1.00  0.00    -0.085 OA 
ENDBRANCH  19  20
ENDBRANCH  16  19
ENDBRANCH  12  13
ENDBRANCH   6  12
ENDBRANCH   5   6
ENDBRANCH   4   5
ENDBRANCH   3   4
ENDBRANCH   2   3
TORSDOF 8
ENDMDL
MODEL       68
REMARK 921   NORMALIZED FREE ENERGY PREDICTED BY IDOCK:   -5.33 KCAL/MOL
REMARK 922        TOTAL FREE ENERGY PREDICTED BY IDOCK:   -8.76 KCAL/MOL
REMARK 923 INTER-LIGAND FREE ENERGY PREDICTED BY IDOCK:   -7.65 KCAL/MOL
REMARK 924 INTRA-LIGAND FREE ENERGY PREDICTED BY IDOCK:   -1.11 KCAL/MOL
REMARK 927      BINDING AFFINITY PREDICTED BY RF-SCORE:    0.00 PKD
ROOT
HETATM    1  C   UNL     1      -9.677   3.952  64.128  1.00  0.00    -0.171 C  
HETATM    2  C   UNL     1      -8.916   3.512  65.360  1.00  0.00    -0.139 C  
ENDROOT
BRANCH   2   3
HETATM    3  O   UNL     1      -9.542   3.995  66.555  1.00  0.00    -0.189 OA 
BRANCH   3   4
HETATM    4  C   UNL     1     -10.496   5.007  66.210  1.00  0.00    -0.303 C  
BRANCH   4   5
HETATM    5  C   UNL     1     -10.811   5.985  67.352  1.00  0.00    -0.303 C  
BRANCH   5   6
HETATM    6  N   UNL     1      -9.699   6.489  68.188  1.00  0.00    -0.125 N  
HETATM    7 CL   UNL     1      -9.296   8.109  71.305  1.00  0.00    -0.181 Cl 
HETATM    8  C   UNL     1      -9.755   6.106  69.555  1.00  0.00    -0.146 C  
HETATM    9  C   UNL     1      -8.679   6.637  70.518  1.00  0.00    -0.144 C  
HETATM   10 CL   UNL     1      -8.286   5.409  71.749  1.00  0.00    -0.118 Cl 
HETATM   11  O   UNL     1     -10.666   5.381  69.977  1.00  0.00    -0.308 OA 
BRANCH   6  12
HETATM   12  C   UNL     1      -8.894   7.661  67.780  1.00  0.00    -0.125 C  
BRANCH  12  13
HETATM   13  C   UNL     1      -9.600   8.966  67.499  1.00  0.00    -0.183 A  
HETATM   14  C   UNL     1     -10.508   9.512  68.418  1.00  0.00    -0.261 A  
HETATM   15  C   UNL     1     -11.258  10.643  68.084  1.00  0.00    -0.366 A  
HETATM   16  C   UNL     1     -11.091  11.273  66.846  1.00  0.00    -0.275 A  
HETATM   17  C   UNL     1      -9.393   9.635  66.282  1.00  0.00    -0.238 A  
HETATM   18  C   UNL     1     -10.147  10.769  65.950  1.00  0.00    -0.314 A  
BRANCH  16  19
HETATM   19  O   UNL     1     -11.977  12.297  66.590  1.00  0.00    -0.598 OA 
BRANCH  19  20
HETATM   20  C   UNL     1     -11.599  13.610  66.747  1.00  0.00    -0.364 A  
HETATM   21  C   UNL     1     -11.080  14.253  65.617  1.00  0.00    -0.316 A  
HETATM   22  C   UNL     1     -10.725  15.604  65.676  1.00  0.00    -0.376 A  
HETATM   23  C   UNL     1     -10.895  16.309  66.876  1.00  0.00    -0.151 A  
HETATM   24  C   UNL     1     -11.451  15.677  67.997  1.00  0.00    -0.294 A  
HETATM   25  N   UNL     1     -10.498  17.718  66.958  1.00  0.00    -0.343 N  
HETATM   26  C   UNL     1     -11.820  14.335  67.921  1.00  0.00    -0.393 A  
HETATM   27  O   UNL     1     -10.075  18.261  65.929  1.00  0.00    -0.542 OA 
HETATM   28  O   UNL     1     -10.597  18.283  68.060  1.00  0.00    -0.383 OA 
ENDBRANCH  19  20
ENDBRANCH  16  19
ENDBRANCH  12  13
ENDBRANCH   6  12
ENDBRANCH   5   6
ENDBRANCH   4   5
ENDBRANCH   3   4
ENDBRANCH   2   3
TORSDOF 8
ENDMDL
MODEL       69
REMARK 921   NORMALIZED FREE ENERGY PREDICTED BY IDOCK:   -5.32 KCAL/MOL
REMARK 922        TOTAL FREE ENERGY PREDICTED BY IDOCK:   -8.74 KCAL/MOL
REMARK 923 INTER-LIGAND FREE ENERGY PREDICTED BY IDOCK:   -7.77 KCAL/MOL
REMARK 924 INTRA-LIGAND FREE ENERGY PREDICTED BY IDOCK:   -0.97 KCAL/MOL
REMARK 927      BINDING AFFINITY PREDICTED BY RF-SCORE:    0.00 PKD
ROOT
HETATM    1  C   UNL     1      -6.044   5.763  71.204  1.00  0.00    -0.034 C  
HETATM    2  C   UNL     1      -6.028   6.795  70.096  1.00  0.00    -0.023 C  
ENDROOT
BRANCH   2   3
HETATM    3  O   UNL     1      -7.353   7.239  69.782  1.00  0.00    -0.080 OA 
BRANCH   3   4
HETATM    4  C   UNL     1      -7.321   8.641  69.488  1.00  0.00    -0.068 C  
BRANCH   4   5
HETATM    5  C   UNL     1      -8.364   9.465  70.259  1.00  0.00    -0.195 C  
BRANCH   5   6
HETATM    6  N   UNL     1      -9.796   9.120  70.114  1.00  0.00    -0.185 N  
HETATM    7 CL   UNL     1     -11.997   6.577  71.204  1.00  0.00    -0.402 Cl 
HETATM    8  C   UNL     1     -10.459   8.791  71.327  1.00  0.00    -0.256 C  
HETATM    9  C   UNL     1     -11.933   8.354  71.269  1.00  0.00    -0.288 C  
HETATM   10 CL   UNL     1     -12.811   8.941  72.705  1.00  0.00    -0.403 Cl 
HETATM   11  O   UNL     1      -9.861   8.828  72.410  1.00  0.00    -0.284 OA 
BRANCH   6  12
HETATM   12  C   UNL     1     -10.357   8.677  68.819  1.00  0.00    -0.208 C  
BRANCH  12  13
HETATM   13  C   UNL     1     -10.573   9.700  67.731  1.00  0.00    -0.320 A  
HETATM   14  C   UNL     1      -9.941   9.578  66.485  1.00  0.00    -0.329 A  
HETATM   15  C   UNL     1     -10.037  10.604  65.539  1.00  0.00    -0.343 A  
HETATM   16  C   UNL     1     -10.793  11.751  65.803  1.00  0.00    -0.291 A  
HETATM   17  C   UNL     1     -11.378  10.827  67.966  1.00  0.00    -0.378 A  
HETATM   18  C   UNL     1     -11.471  11.854  67.017  1.00  0.00    -0.384 A  
BRANCH  16  19
HETATM   19  O   UNL     1     -10.703  12.739  64.845  1.00  0.00    -0.283 OA 
BRANCH  19  20
HETATM   20  C   UNL     1     -10.408  14.036  65.198  1.00  0.00    -0.400 A  
HETATM   21  C   UNL     1     -11.216  15.036  64.644  1.00  0.00    -0.342 A  
HETATM   22  C   UNL     1     -11.021  16.375  64.996  1.00  0.00    -0.265 A  
HETATM   23  C   UNL     1     -10.010  16.706  65.909  1.00  0.00    -0.295 A  
HETATM   24  C   UNL     1      -9.225  15.702  66.494  1.00  0.00    -0.325 A  
HETATM   25  N   UNL     1      -9.776  18.110  66.262  1.00  0.00    -0.303 N  
HETATM   26  C   UNL     1      -9.442  14.368  66.151  1.00  0.00    -0.271 A  
HETATM   27  O   UNL     1     -10.532  18.962  65.778  1.00  0.00    -0.554 OA 
HETATM   28  O   UNL     1      -8.822  18.365  67.017  1.00  0.00    -0.259 OA 
ENDBRANCH  19  20
ENDBRANCH  16  19
ENDBRANCH  12  13
ENDBRANCH   6  12
ENDBRANCH   5   6
ENDBRANCH   4   5
ENDBRANCH   3   4
ENDBRANCH   2   3
TORSDOF 8
ENDMDL
MODEL       70
REMARK 921   NORMALIZED FREE ENERGY PREDICTED BY IDOCK:   -5.31 KCAL/MOL
REMARK 922        TOTAL FREE ENERGY PREDICTED BY IDOCK:   -8.73 KCAL/MOL
REMARK 923 INTER-LIGAND FREE ENERGY PREDICTED BY IDOCK:   -7.55 KCAL/MOL
REMARK 924 INTRA-LIGAND FREE ENERGY PREDICTED BY IDOCK:   -1.18 KCAL/MOL
REMARK 927      BINDING AFFINITY PREDICTED BY RF-SCORE:    0.00 PKD
ROOT
HETATM    1  C   UNL     1      -6.137  10.459  65.478  1.00  0.00    -0.123 C  
HETATM    2  C   UNL     1      -7.313  10.492  66.430  1.00  0.00    -0.129 C  
ENDROOT
BRANCH   2   3
HETATM    3  O   UNL     1      -7.800   9.171  66.697  1.00  0.00    -0.099 OA 
BRANCH   3   4
HETATM    4  C   UNL     1      -7.473   8.814  68.046  1.00  0.00    -0.093 C  
BRANCH   4   5
HETATM    5  C   UNL     1      -8.239   9.618  69.108  1.00  0.00    -0.120 C  
BRANCH   5   6
HETATM    6  N   UNL     1      -9.652   9.274  69.383  1.00  0.00    -0.163 N  
HETATM    7 CL   UNL     1     -11.556   6.369  70.042  1.00  0.00    -0.498 Cl 
HETATM    8  C   UNL     1      -9.855   8.414  70.495  1.00  0.00    -0.184 C  
HETATM    9  C   UNL     1     -11.284   7.947  70.819  1.00  0.00    -0.266 C  
HETATM   10 CL   UNL     1     -11.506   7.802  72.582  1.00  0.00    -0.425 Cl 
HETATM   11  O   UNL     1      -8.901   8.023  71.180  1.00  0.00    -0.132 OA 
BRANCH   6  12
HETATM   12  C   UNL     1     -10.693   9.392  68.339  1.00  0.00    -0.168 C  
BRANCH  12  13
HETATM   13  C   UNL     1     -11.091  10.767  67.860  1.00  0.00    -0.369 A  
HETATM   14  C   UNL     1     -10.925  11.144  66.519  1.00  0.00    -0.270 A  
HETATM   15  C   UNL     1     -11.165  12.463  66.120  1.00  0.00    -0.364 A  
HETATM   16  C   UNL     1     -11.608  13.419  67.040  1.00  0.00    -0.356 A  
HETATM   17  C   UNL     1     -11.593  11.716  68.766  1.00  0.00    -0.374 A  
HETATM   18  C   UNL     1     -11.830  13.038  68.364  1.00  0.00    -0.370 A  
BRANCH  16  19
HETATM   19  O   UNL     1     -11.683  14.706  66.551  1.00  0.00    -0.369 OA 
BRANCH  19  20
HETATM   20  C   UNL     1     -10.684  15.616  66.805  1.00  0.00    -0.300 A  
HETATM   21  C   UNL     1     -10.805  16.369  67.979  1.00  0.00    -0.342 A  
HETATM   22  C   UNL     1      -9.803  17.274  68.341  1.00  0.00    -0.309 A  
HETATM   23  C   UNL     1      -8.675  17.419  67.521  1.00  0.00    -0.219 A  
HETATM   24  C   UNL     1      -8.534  16.637  66.365  1.00  0.00    -0.348 A  
HETATM   25  N   UNL     1      -7.633  18.387  67.875  1.00  0.00    -0.241 N  
HETATM   26  C   UNL     1      -9.530  15.723  66.023  1.00  0.00    -0.392 A  
HETATM   27  O   UNL     1      -7.759  19.010  68.937  1.00  0.00    -0.335 OA 
HETATM   28  O   UNL     1      -6.689  18.536  67.081  1.00  0.00    -0.193 OA 
ENDBRANCH  19  20
ENDBRANCH  16  19
ENDBRANCH  12  13
ENDBRANCH   6  12
ENDBRANCH   5   6
ENDBRANCH   4   5
ENDBRANCH   3   4
ENDBRANCH   2   3
TORSDOF 8
ENDMDL
MODEL       71
REMARK 921   NORMALIZED FREE ENERGY PREDICTED BY IDOCK:   -5.31 KCAL/MOL
REMARK 922        TOTAL FREE ENERGY PREDICTED BY IDOCK:   -8.73 KCAL/MOL
REMARK 923 INTER-LIGAND FREE ENERGY PREDICTED BY IDOCK:   -7.30 KCAL/MOL
REMARK 924 INTRA-LIGAND FREE ENERGY PREDICTED BY IDOCK:   -1.43 KCAL/MOL
REMARK 927      BINDING AFFINITY PREDICTED BY RF-SCORE:    0.00 PKD
ROOT
HETATM    1  C   UNL     1      -9.143   8.570  65.921  1.00  0.00    -0.237 C  
HETATM    2  C   UNL     1     -10.279   7.899  66.663  1.00  0.00    -0.233 C  
ENDROOT
BRANCH   2   3
HETATM    3  O   UNL     1      -9.796   6.852  67.513  1.00  0.00    -0.128 OA 
BRANCH   3   4
HETATM    4  C   UNL     1     -10.858   6.413  68.369  1.00  0.00    -0.311 C  
BRANCH   4   5
HETATM    5  C   UNL     1     -10.381   5.823  69.705  1.00  0.00    -0.260 C  
BRANCH   5   6
HETATM    6  N   UNL     1      -9.812   6.732  70.724  1.00  0.00    -0.183 N  
HETATM    7 CL   UNL     1      -9.630   6.921  74.250  1.00  0.00    -0.292 Cl 
HETATM    8  C   UNL     1      -9.061   6.091  71.746  1.00  0.00    -0.145 C  
HETATM    9  C   UNL     1      -8.485   6.946  72.889  1.00  0.00    -0.115 C  
HETATM   10 CL   UNL     1      -6.906   6.304  73.411  1.00  0.00    -0.075 Cl 
HETATM   11  O   UNL     1      -8.890   4.865  71.738  1.00  0.00    -0.125 OA 
BRANCH   6  12
HETATM   12  C   UNL     1     -10.366   8.085  70.951  1.00  0.00    -0.200 C  
BRANCH  12  13
HETATM   13  C   UNL     1      -9.773   9.250  70.196  1.00  0.00    -0.252 A  
HETATM   14  C   UNL     1     -10.574  10.316  69.762  1.00  0.00    -0.312 A  
HETATM   15  C   UNL     1     -10.039  11.316  68.943  1.00  0.00    -0.185 A  
HETATM   16  C   UNL     1      -8.690  11.291  68.573  1.00  0.00    -0.156 A  
HETATM   17  C   UNL     1      -8.407   9.262  69.870  1.00  0.00    -0.161 A  
HETATM   18  C   UNL     1      -7.874  10.264  69.048  1.00  0.00    -0.114 A  
BRANCH  16  19
HETATM   19  O   UNL     1      -8.319  12.259  67.663  1.00  0.00    -0.146 OA 
BRANCH  19  20
HETATM   20  C   UNL     1      -9.243  12.808  66.805  1.00  0.00    -0.225 A  
HETATM   21  C   UNL     1      -9.337  14.205  66.795  1.00  0.00    -0.295 A  
HETATM   22  C   UNL     1     -10.209  14.846  65.911  1.00  0.00    -0.333 A  
HETATM   23  C   UNL     1     -10.987  14.078  65.033  1.00  0.00    -0.375 A  
HETATM   24  C   UNL     1     -10.866  12.681  65.014  1.00  0.00    -0.321 A  
HETATM   25  N   UNL     1     -11.928  14.738  64.122  1.00  0.00    -0.344 N  
HETATM   26  C   UNL     1      -9.978  12.053  65.887  1.00  0.00    -0.260 A  
HETATM   27  O   UNL     1     -11.958  15.975  64.119  1.00  0.00    -0.671 OA 
HETATM   28  O   UNL     1     -12.650  14.016  63.414  1.00  0.00    -0.845 OA 
ENDBRANCH  19  20
ENDBRANCH  16  19
ENDBRANCH  12  13
ENDBRANCH   6  12
ENDBRANCH   5   6
ENDBRANCH   4   5
ENDBRANCH   3   4
ENDBRANCH   2   3
TORSDOF 8
ENDMDL
MODEL       72
REMARK 921   NORMALIZED FREE ENERGY PREDICTED BY IDOCK:   -5.30 KCAL/MOL
REMARK 922        TOTAL FREE ENERGY PREDICTED BY IDOCK:   -8.71 KCAL/MOL
REMARK 923 INTER-LIGAND FREE ENERGY PREDICTED BY IDOCK:   -8.17 KCAL/MOL
REMARK 924 INTRA-LIGAND FREE ENERGY PREDICTED BY IDOCK:   -0.54 KCAL/MOL
REMARK 927      BINDING AFFINITY PREDICTED BY RF-SCORE:    0.00 PKD
ROOT
HETATM    1  C   UNL     1     -13.093  13.092  71.661  1.00  0.00    -0.440 C  
HETATM    2  C   UNL     1     -12.751  11.653  71.337  1.00  0.00    -0.339 C  
ENDROOT
BRANCH   2   3
HETATM    3  O   UNL     1     -13.550  10.745  72.104  1.00  0.00    -0.276 OA 
BRANCH   3   4
HETATM    4  C   UNL     1     -13.118   9.404  71.844  1.00  0.00    -0.424 C  
BRANCH   4   5
HETATM    5  C   UNL     1     -11.596   9.210  71.930  1.00  0.00    -0.360 C  
BRANCH   5   6
HETATM    6  N   UNL     1     -11.013   7.925  71.484  1.00  0.00    -0.228 N  
HETATM    7 CL   UNL     1      -7.797   6.537  71.008  1.00  0.00    -0.108 Cl 
HETATM    8  C   UNL     1      -9.988   7.409  72.320  1.00  0.00    -0.169 C  
HETATM    9  C   UNL     1      -9.275   6.111  71.903  1.00  0.00    -0.147 C  
HETATM   10 CL   UNL     1      -8.857   5.142  73.339  1.00  0.00    -0.114 Cl 
HETATM   11  O   UNL     1      -9.651   8.001  73.354  1.00  0.00    -0.278 OA 
BRANCH   6  12
HETATM   12  C   UNL     1     -11.119   7.475  70.079  1.00  0.00    -0.204 C  
BRANCH  12  13
HETATM   13  C   UNL     1     -10.753   8.438  68.976  1.00  0.00    -0.101 A  
HETATM   14  C   UNL     1     -10.688   8.019  67.638  1.00  0.00    -0.203 A  
HETATM   15  C   UNL     1     -10.211   8.884  66.649  1.00  0.00    -0.338 A  
HETATM   16  C   UNL     1      -9.825  10.191  66.966  1.00  0.00    -0.191 A  
HETATM   17  C   UNL     1     -10.420   9.769  69.278  1.00  0.00    -0.236 A  
HETATM   18  C   UNL     1      -9.941  10.633  68.284  1.00  0.00    -0.173 A  
BRANCH  16  19
HETATM   19  O   UNL     1      -9.255  10.897  65.928  1.00  0.00    -0.178 OA 
BRANCH  19  20
HETATM   20  C   UNL     1      -9.718  12.148  65.591  1.00  0.00    -0.207 A  
HETATM   21  C   UNL     1     -10.765  12.201  64.663  1.00  0.00    -0.346 A  
HETATM   22  C   UNL     1     -11.332  13.429  64.310  1.00  0.00    -0.420 A  
HETATM   23  C   UNL     1     -10.843  14.607  64.894  1.00  0.00    -0.419 A  
HETATM   24  C   UNL     1      -9.820  14.552  65.852  1.00  0.00    -0.347 A  
HETATM   25  N   UNL     1     -11.409  15.903  64.508  1.00  0.00    -0.399 N  
HETATM   26  C   UNL     1      -9.276  13.320  66.212  1.00  0.00    -0.067 A  
HETATM   27  O   UNL     1     -12.356  15.906  63.711  1.00  0.00    -0.791 OA 
HETATM   28  O   UNL     1     -10.897  16.925  64.994  1.00  0.00    -0.666 OA 
ENDBRANCH  19  20
ENDBRANCH  16  19
ENDBRANCH  12  13
ENDBRANCH   6  12
ENDBRANCH   5   6
ENDBRANCH   4   5
ENDBRANCH   3   4
ENDBRANCH   2   3
TORSDOF 8
ENDMDL
MODEL       73
REMARK 921   NORMALIZED FREE ENERGY PREDICTED BY IDOCK:   -5.29 KCAL/MOL
REMARK 922        TOTAL FREE ENERGY PREDICTED BY IDOCK:   -8.70 KCAL/MOL
REMARK 923 INTER-LIGAND FREE ENERGY PREDICTED BY IDOCK:   -7.83 KCAL/MOL
REMARK 924 INTRA-LIGAND FREE ENERGY PREDICTED BY IDOCK:   -0.88 KCAL/MOL
REMARK 927      BINDING AFFINITY PREDICTED BY RF-SCORE:    0.00 PKD
ROOT
HETATM    1  C   UNL     1     -10.699   7.404  72.989  1.00  0.00    -0.413 C  
HETATM    2  C   UNL     1     -11.957   7.888  72.298  1.00  0.00    -0.337 C  
ENDROOT
BRANCH   2   3
HETATM    3  O   UNL     1     -11.643   8.680  71.146  1.00  0.00    -0.267 OA 
BRANCH   3   4
HETATM    4  C   UNL     1     -10.370   9.309  71.341  1.00  0.00    -0.321 C  
BRANCH   4   5
HETATM    5  C   UNL     1      -9.781   9.936  70.068  1.00  0.00    -0.227 C  
BRANCH   5   6
HETATM    6  N   UNL     1     -10.351   9.556  68.756  1.00  0.00    -0.202 N  
HETATM    7 CL   UNL     1      -9.253   9.293  65.405  1.00  0.00    -0.282 Cl 
HETATM    8  C   UNL     1      -9.568   8.639  68.005  1.00  0.00    -0.149 C  
HETATM    9  C   UNL     1     -10.044   8.236  66.599  1.00  0.00    -0.281 C  
HETATM   10 CL   UNL     1      -9.635   6.534  66.268  1.00  0.00    -0.144 Cl 
HETATM   11  O   UNL     1      -8.506   8.189  68.456  1.00  0.00    -0.125 OA 
BRANCH   6  12
HETATM   12  C   UNL     1     -11.357  10.401  68.076  1.00  0.00    -0.204 C  
BRANCH  12  13
HETATM   13  C   UNL     1     -10.883  11.557  67.229  1.00  0.00    -0.301 A  
HETATM   14  C   UNL     1      -9.715  12.263  67.554  1.00  0.00    -0.190 A  
HETATM   15  C   UNL     1      -9.366  13.417  66.845  1.00  0.00    -0.253 A  
HETATM   16  C   UNL     1     -10.153  13.868  65.780  1.00  0.00    -0.320 A  
HETATM   17  C   UNL     1     -11.636  11.981  66.122  1.00  0.00    -0.371 A  
HETATM   18  C   UNL     1     -11.285  13.139  65.414  1.00  0.00    -0.315 A  
BRANCH  16  19
HETATM   19  O   UNL     1      -9.772  15.082  65.249  1.00  0.00    -0.283 OA 
BRANCH  19  20
HETATM   20  C   UNL     1      -9.462  16.142  66.069  1.00  0.00    -0.339 A  
HETATM   21  C   UNL     1     -10.529  16.749  66.741  1.00  0.00    -0.258 A  
HETATM   22  C   UNL     1     -10.293  17.795  67.638  1.00  0.00    -0.375 A  
HETATM   23  C   UNL     1      -8.978  18.230  67.859  1.00  0.00    -0.276 A  
HETATM   24  C   UNL     1      -7.904  17.597  67.216  1.00  0.00    -0.222 A  
HETATM   25  N   UNL     1      -8.722  19.346  68.774  1.00  0.00    -0.366 N  
HETATM   26  C   UNL     1      -8.150  16.541  66.339  1.00  0.00    -0.362 A  
HETATM   27  O   UNL     1      -9.687  19.835  69.375  1.00  0.00    -0.314 OA 
HETATM   28  O   UNL     1      -7.550  19.746  68.883  1.00  0.00    -0.329 OA 
ENDBRANCH  19  20
ENDBRANCH  16  19
ENDBRANCH  12  13
ENDBRANCH   6  12
ENDBRANCH   5   6
ENDBRANCH   4   5
ENDBRANCH   3   4
ENDBRANCH   2   3
TORSDOF 8
ENDMDL
MODEL       74
REMARK 921   NORMALIZED FREE ENERGY PREDICTED BY IDOCK:   -5.29 KCAL/MOL
REMARK 922        TOTAL FREE ENERGY PREDICTED BY IDOCK:   -8.70 KCAL/MOL
REMARK 923 INTER-LIGAND FREE ENERGY PREDICTED BY IDOCK:   -7.84 KCAL/MOL
REMARK 924 INTRA-LIGAND FREE ENERGY PREDICTED BY IDOCK:   -0.86 KCAL/MOL
REMARK 927      BINDING AFFINITY PREDICTED BY RF-SCORE:    0.00 PKD
ROOT
HETATM    1  C   UNL     1      -8.727  10.766  62.577  1.00  0.00    -0.313 C  
HETATM    2  C   UNL     1      -9.458  10.215  63.783  1.00  0.00    -0.275 C  
ENDROOT
BRANCH   2   3
HETATM    3  O   UNL     1     -10.717  10.872  63.971  1.00  0.00    -0.353 OA 
BRANCH   3   4
HETATM    4  C   UNL     1     -10.569  12.266  63.674  1.00  0.00    -0.462 C  
BRANCH   4   5
HETATM    5  C   UNL     1     -11.337  13.194  64.628  1.00  0.00    -0.333 C  
BRANCH   5   6
HETATM    6  N   UNL     1     -10.632  13.751  65.803  1.00  0.00    -0.286 N  
HETATM    7 CL   UNL     1      -8.118  16.152  66.450  1.00  0.00    -0.332 Cl 
HETATM    8  C   UNL     1     -10.557  15.169  65.841  1.00  0.00    -0.337 C  
HETATM    9  C   UNL     1      -9.785  15.840  66.990  1.00  0.00    -0.228 C  
HETATM   10 CL   UNL     1     -10.569  17.372  67.455  1.00  0.00    -0.337 Cl 
HETATM   11  O   UNL     1     -11.078  15.858  64.954  1.00  0.00    -0.428 OA 
BRANCH   6  12
HETATM   12  C   UNL     1      -9.680  12.938  66.591  1.00  0.00    -0.254 C  
BRANCH  12  13
HETATM   13  C   UNL     1     -10.202  12.127  67.752  1.00  0.00    -0.207 A  
HETATM   14  C   UNL     1      -9.377  11.218  68.431  1.00  0.00    -0.181 A  
HETATM   15  C   UNL     1      -9.911  10.373  69.409  1.00  0.00    -0.240 A  
HETATM   16  C   UNL     1     -11.265  10.442  69.753  1.00  0.00    -0.293 A  
HETATM   17  C   UNL     1     -11.547  12.233  68.143  1.00  0.00    -0.396 A  
HETATM   18  C   UNL     1     -12.079  11.384  69.123  1.00  0.00    -0.331 A  
BRANCH  16  19
HETATM   19  O   UNL     1     -11.692   9.472  70.636  1.00  0.00    -0.270 OA 
BRANCH  19  20
HETATM   20  C   UNL     1     -11.208   8.187  70.556  1.00  0.00    -0.247 A  
HETATM   21  C   UNL     1     -10.884   7.562  71.766  1.00  0.00    -0.261 A  
HETATM   22  C   UNL     1     -10.442   6.236  71.778  1.00  0.00    -0.249 A  
HETATM   23  C   UNL     1     -10.326   5.538  70.567  1.00  0.00    -0.272 A  
HETATM   24  C   UNL     1     -10.686   6.150  69.358  1.00  0.00    -0.385 A  
HETATM   25  N   UNL     1      -9.833   4.158  70.565  1.00  0.00    -0.206 N  
HETATM   26  C   UNL     1     -11.146   7.467  69.360  1.00  0.00    -0.052 A  
HETATM   27  O   UNL     1      -9.589   3.628  71.656  1.00  0.00    -0.135 OA 
HETATM   28  O   UNL     1      -9.676   3.602  69.464  1.00  0.00    -0.177 OA 
ENDBRANCH  19  20
ENDBRANCH  16  19
ENDBRANCH  12  13
ENDBRANCH   6  12
ENDBRANCH   5   6
ENDBRANCH   4   5
ENDBRANCH   3   4
ENDBRANCH   2   3
TORSDOF 8
ENDMDL
MODEL       75
REMARK 921   NORMALIZED FREE ENERGY PREDICTED BY IDOCK:   -5.29 KCAL/MOL
REMARK 922        TOTAL FREE ENERGY PREDICTED BY IDOCK:   -8.69 KCAL/MOL
REMARK 923 INTER-LIGAND FREE ENERGY PREDICTED BY IDOCK:   -7.69 KCAL/MOL
REMARK 924 INTRA-LIGAND FREE ENERGY PREDICTED BY IDOCK:   -1.00 KCAL/MOL
REMARK 927      BINDING AFFINITY PREDICTED BY RF-SCORE:    0.00 PKD
ROOT
HETATM    1  C   UNL     1      -9.898   3.605  72.759  1.00  0.00    -0.204 C  
HETATM    2  C   UNL     1     -10.763   4.753  73.234  1.00  0.00    -0.248 C  
ENDROOT
BRANCH   2   3
HETATM    3  O   UNL     1     -10.390   5.981  72.598  1.00  0.00    -0.187 OA 
BRANCH   3   4
HETATM    4  C   UNL     1     -11.557   6.592  72.034  1.00  0.00    -0.301 C  
BRANCH   4   5
HETATM    5  C   UNL     1     -11.643   6.484  70.504  1.00  0.00    -0.393 C  
BRANCH   5   6
HETATM    6  N   UNL     1     -10.499   6.952  69.690  1.00  0.00    -0.209 N  
HETATM    7 CL   UNL     1      -7.086   6.134  69.261  1.00  0.00    -0.064 Cl 
HETATM    8  C   UNL     1      -9.767   5.924  69.037  1.00  0.00    -0.136 C  
HETATM    9  C   UNL     1      -8.520   6.306  68.221  1.00  0.00    -0.114 C  
HETATM   10 CL   UNL     1      -8.365   5.252  66.792  1.00  0.00    -0.108 Cl 
HETATM   11  O   UNL     1     -10.106   4.738  69.139  1.00  0.00    -0.192 OA 
BRANCH   6  12
HETATM   12  C   UNL     1      -9.874   8.273  69.921  1.00  0.00    -0.186 C  
BRANCH  12  13
HETATM   13  C   UNL     1     -10.357   9.456  69.118  1.00  0.00    -0.221 A  
HETATM   14  C   UNL     1     -11.411  10.262  69.575  1.00  0.00    -0.299 A  
HETATM   15  C   UNL     1     -11.940  11.266  68.758  1.00  0.00    -0.350 A  
HETATM   16  C   UNL     1     -11.406  11.509  67.488  1.00  0.00    -0.299 A  
HETATM   17  C   UNL     1      -9.787   9.744  67.867  1.00  0.00    -0.176 A  
HETATM   18  C   UNL     1     -10.320  10.750  67.049  1.00  0.00    -0.275 A  
BRANCH  16  19
HETATM   19  O   UNL     1     -12.096  12.436  66.735  1.00  0.00    -0.578 OA 
BRANCH  19  20
HETATM   20  C   UNL     1     -11.679  13.745  66.675  1.00  0.00    -0.394 A  
HETATM   21  C   UNL     1     -11.752  14.481  67.864  1.00  0.00    -0.381 A  
HETATM   22  C   UNL     1     -11.293  15.801  67.903  1.00  0.00    -0.277 A  
HETATM   23  C   UNL     1     -10.759  16.381  66.744  1.00  0.00    -0.180 A  
HETATM   24  C   UNL     1     -10.650  15.632  65.562  1.00  0.00    -0.422 A  
HETATM   25  N   UNL     1     -10.304  17.774  66.766  1.00  0.00    -0.348 N  
HETATM   26  C   UNL     1     -11.092  14.310  65.540  1.00  0.00    -0.323 A  
HETATM   27  O   UNL     1     -10.353  18.381  67.843  1.00  0.00    -0.369 OA 
HETATM   28  O   UNL     1      -9.908  18.269  65.697  1.00  0.00    -0.462 OA 
ENDBRANCH  19  20
ENDBRANCH  16  19
ENDBRANCH  12  13
ENDBRANCH   6  12
ENDBRANCH   5   6
ENDBRANCH   4   5
ENDBRANCH   3   4
ENDBRANCH   2   3
TORSDOF 8
ENDMDL
MODEL       76
REMARK 921   NORMALIZED FREE ENERGY PREDICTED BY IDOCK:   -5.28 KCAL/MOL
REMARK 922        TOTAL FREE ENERGY PREDICTED BY IDOCK:   -8.69 KCAL/MOL
REMARK 923 INTER-LIGAND FREE ENERGY PREDICTED BY IDOCK:   -7.59 KCAL/MOL
REMARK 924 INTRA-LIGAND FREE ENERGY PREDICTED BY IDOCK:   -1.10 KCAL/MOL
REMARK 927      BINDING AFFINITY PREDICTED BY RF-SCORE:    0.00 PKD
ROOT
HETATM    1  C   UNL     1     -10.240  20.568  68.639  1.00  0.00     0.005 C  
HETATM    2  C   UNL     1      -9.777  19.242  69.204  1.00  0.00    -0.321 C  
ENDROOT
BRANCH   2   3
HETATM    3  O   UNL     1     -10.366  18.143  68.498  1.00  0.00    -0.375 OA 
BRANCH   3   4
HETATM    4  C   UNL     1     -10.837  18.602  67.225  1.00  0.00    -0.310 C  
BRANCH   4   5
HETATM    5  C   UNL     1      -9.916  18.239  66.050  1.00  0.00    -0.215 C  
BRANCH   5   6
HETATM    6  N   UNL     1      -8.511  17.871  66.332  1.00  0.00    -0.253 N  
HETATM    7 CL   UNL     1      -5.339  18.324  64.836  1.00  0.00    -0.154 Cl 
HETATM    8  C   UNL     1      -7.577  18.936  66.214  1.00  0.00    -0.271 C  
HETATM    9  C   UNL     1      -6.083  18.637  66.422  1.00  0.00    -0.160 C  
HETATM   10 CL   UNL     1      -5.276  20.019  67.208  1.00  0.00    -0.155 Cl 
HETATM   11  O   UNL     1      -7.950  20.080  65.923  1.00  0.00    -0.336 OA 
BRANCH   6  12
HETATM   12  C   UNL     1      -8.047  16.469  66.254  1.00  0.00    -0.306 C  
BRANCH  12  13
HETATM   13  C   UNL     1      -8.953  15.374  66.763  1.00  0.00    -0.288 A  
HETATM   14  C   UNL     1      -9.824  14.693  65.899  1.00  0.00    -0.358 A  
HETATM   15  C   UNL     1     -10.755  13.782  66.408  1.00  0.00    -0.281 A  
HETATM   16  C   UNL     1     -10.811  13.506  67.778  1.00  0.00    -0.253 A  
HETATM   17  C   UNL     1      -8.974  15.049  68.129  1.00  0.00    -0.173 A  
HETATM   18  C   UNL     1      -9.910  14.137  68.636  1.00  0.00    -0.206 A  
BRANCH  16  19
HETATM   19  O   UNL     1     -11.854  12.691  68.165  1.00  0.00    -0.329 OA 
BRANCH  19  20
HETATM   20  C   UNL     1     -11.626  11.580  68.944  1.00  0.00    -0.320 A  
HETATM   21  C   UNL     1     -12.203  11.579  70.219  1.00  0.00    -0.415 A  
HETATM   22  C   UNL     1     -12.069  10.465  71.052  1.00  0.00    -0.488 A  
HETATM   23  C   UNL     1     -11.353   9.348  70.599  1.00  0.00    -0.292 A  
HETATM   24  C   UNL     1     -10.807   9.332  69.307  1.00  0.00    -0.170 A  
HETATM   25  N   UNL     1     -11.179   8.186  71.476  1.00  0.00    -0.251 N  
HETATM   26  C   UNL     1     -10.964  10.441  68.477  1.00  0.00    -0.302 A  
HETATM   27  O   UNL     1     -11.732   8.209  72.583  1.00  0.00    -0.399 OA 
HETATM   28  O   UNL     1     -10.475   7.249  71.061  1.00  0.00    -0.214 OA 
ENDBRANCH  19  20
ENDBRANCH  16  19
ENDBRANCH  12  13
ENDBRANCH   6  12
ENDBRANCH   5   6
ENDBRANCH   4   5
ENDBRANCH   3   4
ENDBRANCH   2   3
TORSDOF 8
ENDMDL
MODEL       77
REMARK 921   NORMALIZED FREE ENERGY PREDICTED BY IDOCK:   -5.26 KCAL/MOL
REMARK 922        TOTAL FREE ENERGY PREDICTED BY IDOCK:   -8.66 KCAL/MOL
REMARK 923 INTER-LIGAND FREE ENERGY PREDICTED BY IDOCK:   -8.27 KCAL/MOL
REMARK 924 INTRA-LIGAND FREE ENERGY PREDICTED BY IDOCK:   -0.38 KCAL/MOL
REMARK 927      BINDING AFFINITY PREDICTED BY RF-SCORE:    0.00 PKD
ROOT
HETATM    1  C   UNL     1     -12.662  14.923  73.356  1.00  0.00    -0.636 C  
HETATM    2  C   UNL     1     -13.711  15.712  72.603  1.00  0.00    -0.579 C  
ENDROOT
BRANCH   2   3
HETATM    3  O   UNL     1     -13.496  15.643  71.188  1.00  0.00    -0.552 OA 
BRANCH   3   4
HETATM    4  C   UNL     1     -12.093  15.765  70.920  1.00  0.00    -0.416 C  
BRANCH   4   5
HETATM    5  C   UNL     1     -11.754  15.942  69.432  1.00  0.00    -0.343 C  
BRANCH   5   6
HETATM    6  N   UNL     1     -10.341  16.141  69.041  1.00  0.00    -0.241 N  
HETATM    7 CL   UNL     1      -8.510  16.751  66.079  1.00  0.00    -0.287 Cl 
HETATM    8  C   UNL     1     -10.105  17.258  68.195  1.00  0.00    -0.325 C  
HETATM    9  C   UNL     1      -8.677  17.509  67.680  1.00  0.00    -0.223 C  
HETATM   10 CL   UNL     1      -8.357  19.258  67.561  1.00  0.00    -0.314 Cl 
HETATM   11  O   UNL     1     -11.031  18.006  67.854  1.00  0.00    -0.297 OA 
BRANCH   6  12
HETATM   12  C   UNL     1      -9.360  15.036  69.098  1.00  0.00    -0.189 C  
BRANCH  12  13
HETATM   13  C   UNL     1      -9.638  13.774  68.318  1.00  0.00    -0.219 A  
HETATM   14  C   UNL     1     -10.951  13.372  68.034  1.00  0.00    -0.265 A  
HETATM   15  C   UNL     1     -11.198  12.132  67.436  1.00  0.00    -0.362 A  
HETATM   16  C   UNL     1     -10.141  11.288  67.078  1.00  0.00    -0.206 A  
HETATM   17  C   UNL     1      -8.580  12.949  67.903  1.00  0.00    -0.185 A  
HETATM   18  C   UNL     1      -8.830  11.707  67.305  1.00  0.00    -0.164 A  
BRANCH  16  19
HETATM   19  O   UNL     1     -10.520  10.045  66.616  1.00  0.00    -0.223 OA 
BRANCH  19  20
HETATM   20  C   UNL     1     -10.465   8.943  67.436  1.00  0.00    -0.277 A  
HETATM   21  C   UNL     1     -10.519   9.183  68.814  1.00  0.00    -0.236 A  
HETATM   22  C   UNL     1     -10.528   8.114  69.716  1.00  0.00    -0.227 A  
HETATM   23  C   UNL     1     -10.482   6.801  69.227  1.00  0.00    -0.215 A  
HETATM   24  C   UNL     1     -10.466   6.558  67.846  1.00  0.00    -0.273 A  
HETATM   25  N   UNL     1     -10.458   5.674  70.164  1.00  0.00    -0.271 N  
HETATM   26  C   UNL     1     -10.479   7.631  66.956  1.00  0.00    -0.419 A  
HETATM   27  O   UNL     1     -10.542   5.924  71.373  1.00  0.00    -0.233 OA 
HETATM   28  O   UNL     1     -10.343   4.531  69.690  1.00  0.00    -0.099 OA 
ENDBRANCH  19  20
ENDBRANCH  16  19
ENDBRANCH  12  13
ENDBRANCH   6  12
ENDBRANCH   5   6
ENDBRANCH   4   5
ENDBRANCH   3   4
ENDBRANCH   2   3
TORSDOF 8
ENDMDL
MODEL       78
REMARK 921   NORMALIZED FREE ENERGY PREDICTED BY IDOCK:   -5.26 KCAL/MOL
REMARK 922        TOTAL FREE ENERGY PREDICTED BY IDOCK:   -8.65 KCAL/MOL
REMARK 923 INTER-LIGAND FREE ENERGY PREDICTED BY IDOCK:   -7.38 KCAL/MOL
REMARK 924 INTRA-LIGAND FREE ENERGY PREDICTED BY IDOCK:   -1.27 KCAL/MOL
REMARK 927      BINDING AFFINITY PREDICTED BY RF-SCORE:    0.00 PKD
ROOT
HETATM    1  C   UNL     1     -12.531  15.020  71.310  1.00  0.00    -0.402 C  
HETATM    2  C   UNL     1     -12.631  13.549  70.966  1.00  0.00    -0.359 C  
ENDROOT
BRANCH   2   3
HETATM    3  O   UNL     1     -13.553  12.876  71.832  1.00  0.00    -0.416 OA 
BRANCH   3   4
HETATM    4  C   UNL     1     -13.306  11.465  71.775  1.00  0.00    -0.264 C  
BRANCH   4   5
HETATM    5  C   UNL     1     -11.929  11.094  71.204  1.00  0.00    -0.067 C  
BRANCH   5   6
HETATM    6  N   UNL     1     -11.810   9.889  70.353  1.00  0.00    -0.257 N  
HETATM    7 CL   UNL     1      -9.341   7.491  69.544  1.00  0.00    -0.153 Cl 
HETATM    8  C   UNL     1     -11.234   8.759  70.991  1.00  0.00    -0.273 C  
HETATM    9  C   UNL     1     -11.008   7.479  70.168  1.00  0.00    -0.254 C  
HETATM   10 CL   UNL     1     -11.266   6.035  71.180  1.00  0.00    -0.349 Cl 
HETATM   11  O   UNL     1     -10.894   8.803  72.181  1.00  0.00    -0.354 OA 
BRANCH   6  12
HETATM   12  C   UNL     1     -11.818   9.981  68.876  1.00  0.00     0.354 C  
BRANCH  12  13
HETATM   13  C   UNL     1     -10.946  11.015  68.207  1.00  0.00    -0.287 A  
HETATM   14  C   UNL     1      -9.593  11.156  68.552  1.00  0.00    -0.193 A  
HETATM   15  C   UNL     1      -8.835  12.208  68.028  1.00  0.00    -0.181 A  
HETATM   16  C   UNL     1      -9.399  13.115  67.124  1.00  0.00    -0.235 A  
HETATM   17  C   UNL     1     -11.489  11.893  67.255  1.00  0.00    -0.385 A  
HETATM   18  C   UNL     1     -10.728  12.947  66.732  1.00  0.00    -0.276 A  
BRANCH  16  19
HETATM   19  O   UNL     1      -8.588  14.176  66.782  1.00  0.00    -0.181 OA 
BRANCH  19  20
HETATM   20  C   UNL     1      -8.956  15.468  67.079  1.00  0.00    -0.226 A  
HETATM   21  C   UNL     1      -9.614  16.180  66.069  1.00  0.00    -0.381 A  
HETATM   22  C   UNL     1     -10.074  17.478  66.308  1.00  0.00    -0.341 A  
HETATM   23  C   UNL     1      -9.871  18.060  67.568  1.00  0.00    -0.309 A  
HETATM   24  C   UNL     1      -9.246  17.335  68.592  1.00  0.00    -0.266 A  
HETATM   25  N   UNL     1     -10.321  19.433  67.819  1.00  0.00    -0.410 N  
HETATM   26  C   UNL     1      -8.809  16.033  68.349  1.00  0.00    -0.188 A  
HETATM   27  O   UNL     1     -10.929  20.017  66.914  1.00  0.00    -0.295 OA 
HETATM   28  O   UNL     1     -10.054  19.934  68.925  1.00  0.00    -0.435 OA 
ENDBRANCH  19  20
ENDBRANCH  16  19
ENDBRANCH  12  13
ENDBRANCH   6  12
ENDBRANCH   5   6
ENDBRANCH   4   5
ENDBRANCH   3   4
ENDBRANCH   2   3
TORSDOF 8
ENDMDL
MODEL       79
REMARK 921   NORMALIZED FREE ENERGY PREDICTED BY IDOCK:   -5.17 KCAL/MOL
REMARK 922        TOTAL FREE ENERGY PREDICTED BY IDOCK:   -8.52 KCAL/MOL
REMARK 923 INTER-LIGAND FREE ENERGY PREDICTED BY IDOCK:   -7.59 KCAL/MOL
REMARK 924 INTRA-LIGAND FREE ENERGY PREDICTED BY IDOCK:   -0.93 KCAL/MOL
REMARK 927      BINDING AFFINITY PREDICTED BY RF-SCORE:    0.00 PKD
ROOT
HETATM    1  C   UNL     1      -7.782   9.574  68.465  1.00  0.00    -0.081 C  
HETATM    2  C   UNL     1      -8.121  11.025  68.731  1.00  0.00    -0.145 C  
ENDROOT
BRANCH   2   3
HETATM    3  O   UNL     1      -8.106  11.790  67.520  1.00  0.00    -0.136 OA 
BRANCH   3   4
HETATM    4  C   UNL     1      -8.311  13.173  67.835  1.00  0.00    -0.170 C  
BRANCH   4   5
HETATM    5  C   UNL     1      -9.160  13.930  66.803  1.00  0.00    -0.223 C  
BRANCH   5   6
HETATM    6  N   UNL     1     -10.248  14.811  67.281  1.00  0.00    -0.240 N  
HETATM    7 CL   UNL     1     -11.162  16.445  70.281  1.00  0.00    -0.343 Cl 
HETATM    8  C   UNL     1      -9.818  15.965  67.991  1.00  0.00    -0.218 C  
HETATM    9  C   UNL     1     -10.878  16.907  68.586  1.00  0.00    -0.314 C  
HETATM   10 CL   UNL     1     -10.324  18.599  68.503  1.00  0.00    -0.369 Cl 
HETATM   11  O   UNL     1      -8.613  16.200  68.154  1.00  0.00    -0.172 OA 
BRANCH   6  12
HETATM   12  C   UNL     1     -11.630  14.312  67.450  1.00  0.00    -0.369 C  
BRANCH  12  13
HETATM   13  C   UNL     1     -11.897  13.241  68.480  1.00  0.00    -0.384 A  
HETATM   14  C   UNL     1     -12.236  13.572  69.800  1.00  0.00    -0.330 A  
HETATM   15  C   UNL     1     -12.340  12.575  70.775  1.00  0.00    -0.376 A  
HETATM   16  C   UNL     1     -12.145  11.229  70.445  1.00  0.00    -0.384 A  
HETATM   17  C   UNL     1     -11.761  11.884  68.143  1.00  0.00    -0.388 A  
HETATM   18  C   UNL     1     -11.865  10.887  69.122  1.00  0.00    -0.389 A  
BRANCH  16  19
HETATM   19  O   UNL     1     -12.150  10.362  71.517  1.00  0.00    -0.353 OA 
BRANCH  19  20
HETATM   20  C   UNL     1     -11.474   9.165  71.456  1.00  0.00    -0.367 A  
HETATM   21  C   UNL     1     -12.255   8.004  71.423  1.00  0.00    -0.335 A  
HETATM   22  C   UNL     1     -11.649   6.750  71.303  1.00  0.00    -0.366 A  
HETATM   23  C   UNL     1     -10.252   6.666  71.215  1.00  0.00    -0.200 A  
HETATM   24  C   UNL     1      -9.470   7.831  71.210  1.00  0.00    -0.173 A  
HETATM   25  N   UNL     1      -9.603   5.355  71.120  1.00  0.00    -0.159 N  
HETATM   26  C   UNL     1     -10.087   9.077  71.309  1.00  0.00    -0.384 A  
HETATM   27  O   UNL     1     -10.328   4.354  71.059  1.00  0.00    -0.109 OA 
HETATM   28  O   UNL     1      -8.361   5.324  71.119  1.00  0.00    -0.117 OA 
ENDBRANCH  19  20
ENDBRANCH  16  19
ENDBRANCH  12  13
ENDBRANCH   6  12
ENDBRANCH   5   6
ENDBRANCH   4   5
ENDBRANCH   3   4
ENDBRANCH   2   3
TORSDOF 8
ENDMDL
MODEL       80
REMARK 921   NORMALIZED FREE ENERGY PREDICTED BY IDOCK:   -5.14 KCAL/MOL
REMARK 922        TOTAL FREE ENERGY PREDICTED BY IDOCK:   -8.48 KCAL/MOL
REMARK 923 INTER-LIGAND FREE ENERGY PREDICTED BY IDOCK:   -7.30 KCAL/MOL
REMARK 924 INTRA-LIGAND FREE ENERGY PREDICTED BY IDOCK:   -1.18 KCAL/MOL
REMARK 927      BINDING AFFINITY PREDICTED BY RF-SCORE:    0.00 PKD
ROOT
HETATM    1  C   UNL     1      -6.102  12.790  67.995  1.00  0.00    -0.100 C  
HETATM    2  C   UNL     1      -5.669  14.157  68.479  1.00  0.00    -0.095 C  
ENDROOT
BRANCH   2   3
HETATM    3  O   UNL     1      -5.401  15.035  67.378  1.00  0.00    -0.339 OA 
BRANCH   3   4
HETATM    4  C   UNL     1      -5.920  16.337  67.678  1.00  0.00    -0.146 C  
BRANCH   4   5
HETATM    5  C   UNL     1      -6.880  16.888  66.613  1.00  0.00    -0.236 C  
BRANCH   5   6
HETATM    6  N   UNL     1      -8.268  17.218  67.004  1.00  0.00    -0.199 N  
HETATM    7 CL   UNL     1     -10.031  20.000  68.290  1.00  0.00    -0.520 Cl 
HETATM    8  C   UNL     1      -8.761  18.445  66.486  1.00  0.00    -0.278 C  
HETATM    9  C   UNL     1     -10.171  18.907  66.892  1.00  0.00    -0.386 C  
HETATM   10 CL   UNL     1     -10.963  19.753  65.538  1.00  0.00    -0.345 Cl 
HETATM   11  O   UNL     1      -8.065  19.148  65.742  1.00  0.00    -0.452 OA 
BRANCH   6  12
HETATM   12  C   UNL     1      -8.902  16.609  68.194  1.00  0.00    -0.206 C  
BRANCH  12  13
HETATM   13  C   UNL     1      -9.799  15.409  68.008  1.00  0.00    -0.216 A  
HETATM   14  C   UNL     1     -10.459  14.821  69.097  1.00  0.00    -0.243 A  
HETATM   15  C   UNL     1     -11.171  13.628  68.931  1.00  0.00    -0.309 A  
HETATM   16  C   UNL     1     -11.269  13.022  67.675  1.00  0.00    -0.280 A  
HETATM   17  C   UNL     1      -9.950  14.828  66.738  1.00  0.00    -0.256 A  
HETATM   18  C   UNL     1     -10.663  13.632  66.576  1.00  0.00    -0.284 A  
BRANCH  16  19
HETATM   19  O   UNL     1     -11.888  11.790  67.670  1.00  0.00    -0.558 OA 
BRANCH  19  20
HETATM   20  C   UNL     1     -11.159  10.636  67.842  1.00  0.00    -0.308 A  
HETATM   21  C   UNL     1     -11.113  10.110  69.138  1.00  0.00    -0.257 A  
HETATM   22  C   UNL     1     -10.443   8.909  69.388  1.00  0.00    -0.228 A  
HETATM   23  C   UNL     1      -9.818   8.236  68.329  1.00  0.00    -0.172 A  
HETATM   24  C   UNL     1      -9.895   8.741  67.023  1.00  0.00    -0.279 A  
HETATM   25  N   UNL     1      -9.085   6.992  68.584  1.00  0.00    -0.133 N  
HETATM   26  C   UNL     1     -10.584   9.930  66.782  1.00  0.00    -0.214 A  
HETATM   27  O   UNL     1      -9.096   6.540  69.736  1.00  0.00    -0.141 OA 
HETATM   28  O   UNL     1      -8.484   6.469  67.630  1.00  0.00    -0.117 OA 
ENDBRANCH  19  20
ENDBRANCH  16  19
ENDBRANCH  12  13
ENDBRANCH   6  12
ENDBRANCH   5   6
ENDBRANCH   4   5
ENDBRANCH   3   4
ENDBRANCH   2   3
TORSDOF 8
ENDMDL
MODEL       81
REMARK 921   NORMALIZED FREE ENERGY PREDICTED BY IDOCK:   -5.14 KCAL/MOL
REMARK 922        TOTAL FREE ENERGY PREDICTED BY IDOCK:   -8.48 KCAL/MOL
REMARK 923 INTER-LIGAND FREE ENERGY PREDICTED BY IDOCK:   -7.53 KCAL/MOL
REMARK 924 INTRA-LIGAND FREE ENERGY PREDICTED BY IDOCK:   -0.95 KCAL/MOL
REMARK 927      BINDING AFFINITY PREDICTED BY RF-SCORE:    0.00 PKD
ROOT
HETATM    1  C   UNL     1     -10.181  19.207  68.120  1.00  0.00    -0.489 C  
HETATM    2  C   UNL     1     -10.156  17.746  68.517  1.00  0.00    -0.377 C  
ENDROOT
BRANCH   2   3
HETATM    3  O   UNL     1     -10.558  16.906  67.428  1.00  0.00    -0.329 OA 
BRANCH   3   4
HETATM    4  C   UNL     1     -11.250  15.763  67.947  1.00  0.00    -0.313 C  
BRANCH   4   5
HETATM    5  C   UNL     1     -11.595  14.707  66.887  1.00  0.00    -0.362 C  
BRANCH   5   6
HETATM    6  N   UNL     1     -10.561  13.722  66.497  1.00  0.00    -0.277 N  
HETATM    7 CL   UNL     1     -10.410  10.306  65.597  1.00  0.00    -0.281 Cl 
HETATM    8  C   UNL     1     -10.871  12.953  65.343  1.00  0.00    -0.283 C  
HETATM    9  C   UNL     1      -9.887  11.857  64.898  1.00  0.00    -0.199 C  
HETATM   10 CL   UNL     1      -9.850  11.740  63.120  1.00  0.00    -0.420 Cl 
HETATM   11  O   UNL     1     -11.923  13.139  64.717  1.00  0.00    -0.351 OA 
BRANCH   6  12
HETATM   12  C   UNL     1      -9.555  13.233  67.464  1.00  0.00    -0.218 C  
BRANCH  12  13
HETATM   13  C   UNL     1      -9.902  12.056  68.343  1.00  0.00    -0.204 A  
HETATM   14  C   UNL     1      -8.918  11.150  68.766  1.00  0.00    -0.136 A  
HETATM   15  C   UNL     1      -9.275   9.989  69.459  1.00  0.00    -0.238 A  
HETATM   16  C   UNL     1     -10.612   9.728  69.775  1.00  0.00    -0.257 A  
HETATM   17  C   UNL     1     -11.236  11.818  68.715  1.00  0.00    -0.308 A  
HETATM   18  C   UNL     1     -11.591  10.653  69.409  1.00  0.00    -0.352 A  
BRANCH  16  19
HETATM   19  O   UNL     1     -10.845   8.494  70.346  1.00  0.00    -0.228 OA 
BRANCH  19  20
HETATM   20  C   UNL     1     -10.521   7.338  69.676  1.00  0.00    -0.231 A  
HETATM   21  C   UNL     1     -10.173   6.233  70.462  1.00  0.00    -0.240 A  
HETATM   22  C   UNL     1      -9.887   5.003  69.862  1.00  0.00    -0.296 A  
HETATM   23  C   UNL     1      -9.951   4.886  68.467  1.00  0.00    -0.115 A  
HETATM   24  C   UNL     1     -10.336   5.981  67.680  1.00  0.00    -0.258 A  
HETATM   25  N   UNL     1      -9.623   3.610  67.825  1.00  0.00    -0.174 N  
HETATM   26  C   UNL     1     -10.640   7.197  68.290  1.00  0.00    -0.230 A  
HETATM   27  O   UNL     1      -9.354   2.647  68.555  1.00  0.00    -0.177 OA 
HETATM   28  O   UNL     1      -9.621   3.571  66.583  1.00  0.00    -0.187 OA 
ENDBRANCH  19  20
ENDBRANCH  16  19
ENDBRANCH  12  13
ENDBRANCH   6  12
ENDBRANCH   5   6
ENDBRANCH   4   5
ENDBRANCH   3   4
ENDBRANCH   2   3
TORSDOF 8
ENDMDL
MODEL       82
REMARK 921   NORMALIZED FREE ENERGY PREDICTED BY IDOCK:   -5.13 KCAL/MOL
REMARK 922        TOTAL FREE ENERGY PREDICTED BY IDOCK:   -8.47 KCAL/MOL
REMARK 923 INTER-LIGAND FREE ENERGY PREDICTED BY IDOCK:   -7.79 KCAL/MOL
REMARK 924 INTRA-LIGAND FREE ENERGY PREDICTED BY IDOCK:   -0.67 KCAL/MOL
REMARK 927      BINDING AFFINITY PREDICTED BY RF-SCORE:    0.00 PKD
ROOT
HETATM    1  C   UNL     1     -10.563  18.917  66.088  1.00  0.00    -0.476 C  
HETATM    2  C   UNL     1     -10.240  17.510  66.545  1.00  0.00    -0.342 C  
ENDROOT
BRANCH   2   3
HETATM    3  O   UNL     1     -10.332  17.394  67.970  1.00  0.00    -0.326 OA 
BRANCH   3   4
HETATM    4  C   UNL     1     -10.678  16.046  68.310  1.00  0.00    -0.298 C  
BRANCH   4   5
HETATM    5  C   UNL     1     -11.126  15.194  67.112  1.00  0.00    -0.335 C  
BRANCH   5   6
HETATM    6  N   UNL     1     -10.345  13.987  66.762  1.00  0.00    -0.269 N  
HETATM    7 CL   UNL     1     -10.985  10.641  65.816  1.00  0.00    -0.010 Cl 
HETATM    8  C   UNL     1     -10.768  13.321  65.581  1.00  0.00    -0.282 C  
HETATM    9  C   UNL     1     -10.060  12.018  65.172  1.00  0.00    -0.266 C  
HETATM   10 CL   UNL     1      -9.953  11.900  63.396  1.00  0.00    -0.443 Cl 
HETATM   11  O   UNL     1     -11.706  13.761  64.903  1.00  0.00    -0.335 OA 
BRANCH   6  12
HETATM   12  C   UNL     1      -9.545  13.263  67.774  1.00  0.00    -0.214 C  
BRANCH  12  13
HETATM   13  C   UNL     1     -10.250  12.331  68.729  1.00  0.00    -0.119 A  
HETATM   14  C   UNL     1      -9.738  11.056  69.010  1.00  0.00    -0.151 A  
HETATM   15  C   UNL     1     -10.473  10.152  69.783  1.00  0.00    -0.301 A  
HETATM   16  C   UNL     1     -11.713  10.515  70.321  1.00  0.00    -0.332 A  
HETATM   17  C   UNL     1     -11.467  12.709  69.320  1.00  0.00    -0.354 A  
HETATM   18  C   UNL     1     -12.203  11.801  70.093  1.00  0.00    -0.342 A  
BRANCH  16  19
HETATM   19  O   UNL     1     -12.393   9.496  70.954  1.00  0.00    -0.288 OA 
BRANCH  19  20
HETATM   20  C   UNL     1     -11.749   8.331  71.303  1.00  0.00    -0.283 A  
HETATM   21  C   UNL     1     -11.132   8.307  72.559  1.00  0.00    -0.439 A  
HETATM   22  C   UNL     1     -10.506   7.143  73.014  1.00  0.00    -0.331 A  
HETATM   23  C   UNL     1     -10.502   6.000  72.202  1.00  0.00    -0.206 A  
HETATM   24  C   UNL     1     -11.152   6.011  70.960  1.00  0.00    -0.348 A  
HETATM   25  N   UNL     1      -9.821   4.784  72.656  1.00  0.00    -0.145 N  
HETATM   26  C   UNL     1     -11.791   7.171  70.524  1.00  0.00    -0.286 A  
HETATM   27  O   UNL     1      -9.317   4.790  73.786  1.00  0.00    -0.124 OA 
HETATM   28  O   UNL     1      -9.779   3.819  71.874  1.00  0.00    -0.148 OA 
ENDBRANCH  19  20
ENDBRANCH  16  19
ENDBRANCH  12  13
ENDBRANCH   6  12
ENDBRANCH   5   6
ENDBRANCH   4   5
ENDBRANCH   3   4
ENDBRANCH   2   3
TORSDOF 8
ENDMDL
MODEL       83
REMARK 921   NORMALIZED FREE ENERGY PREDICTED BY IDOCK:   -5.12 KCAL/MOL
REMARK 922        TOTAL FREE ENERGY PREDICTED BY IDOCK:   -8.44 KCAL/MOL
REMARK 923 INTER-LIGAND FREE ENERGY PREDICTED BY IDOCK:   -7.45 KCAL/MOL
REMARK 924 INTRA-LIGAND FREE ENERGY PREDICTED BY IDOCK:   -0.99 KCAL/MOL
REMARK 927      BINDING AFFINITY PREDICTED BY RF-SCORE:    0.00 PKD
ROOT
HETATM    1  C   UNL     1      -8.766   5.054  64.181  1.00  0.00    -0.097 C  
HETATM    2  C   UNL     1      -9.756   3.962  64.528  1.00  0.00    -0.183 C  
ENDROOT
BRANCH   2   3
HETATM    3  O   UNL     1     -10.363   4.200  65.804  1.00  0.00    -0.183 OA 
BRANCH   3   4
HETATM    4  C   UNL     1      -9.505   5.044  66.582  1.00  0.00    -0.146 C  
BRANCH   4   5
HETATM    5  C   UNL     1     -10.134   5.533  67.896  1.00  0.00    -0.176 C  
BRANCH   5   6
HETATM    6  N   UNL     1      -9.252   6.090  68.946  1.00  0.00    -0.124 N  
HETATM    7 CL   UNL     1      -9.482   6.955  72.367  1.00  0.00    -0.150 Cl 
HETATM    8  C   UNL     1      -9.271   5.387  70.181  1.00  0.00    -0.140 C  
HETATM    9  C   UNL     1      -8.438   5.929  71.355  1.00  0.00    -0.128 C  
HETATM   10 CL   UNL     1      -7.784   4.585  72.325  1.00  0.00    -0.089 Cl 
HETATM   11  O   UNL     1      -9.964   4.370  70.324  1.00  0.00    -0.217 OA 
BRANCH   6  12
HETATM   12  C   UNL     1      -8.787   7.493  68.901  1.00  0.00    -0.135 C  
BRANCH  12  13
HETATM   13  C   UNL     1      -9.811   8.596  68.789  1.00  0.00    -0.180 A  
HETATM   14  C   UNL     1     -10.131   9.166  67.548  1.00  0.00    -0.284 A  
HETATM   15  C   UNL     1     -10.974  10.280  67.477  1.00  0.00    -0.344 A  
HETATM   16  C   UNL     1     -11.542  10.822  68.635  1.00  0.00    -0.272 A  
HETATM   17  C   UNL     1     -10.431   9.108  69.941  1.00  0.00    -0.239 A  
HETATM   18  C   UNL     1     -11.274  10.225  69.867  1.00  0.00    -0.360 A  
BRANCH  16  19
HETATM   19  O   UNL     1     -12.248  11.991  68.443  1.00  0.00    -0.373 OA 
BRANCH  19  20
HETATM   20  C   UNL     1     -11.714  13.023  67.709  1.00  0.00    -0.359 A  
HETATM   21  C   UNL     1     -12.386  13.368  66.530  1.00  0.00    -0.354 A  
HETATM   22  C   UNL     1     -11.943  14.444  65.755  1.00  0.00    -0.362 A  
HETATM   23  C   UNL     1     -10.820  15.174  66.169  1.00  0.00    -0.330 A  
HETATM   24  C   UNL     1     -10.168  14.854  67.369  1.00  0.00    -0.234 A  
HETATM   25  N   UNL     1     -10.328  16.285  65.348  1.00  0.00    -0.339 N  
HETATM   26  C   UNL     1     -10.632  13.792  68.145  1.00  0.00    -0.260 A  
HETATM   27  O   UNL     1     -10.968  16.581  64.332  1.00  0.00    -0.872 OA 
HETATM   28  O   UNL     1      -9.287  16.856  65.714  1.00  0.00    -0.521 OA 
ENDBRANCH  19  20
ENDBRANCH  16  19
ENDBRANCH  12  13
ENDBRANCH   6  12
ENDBRANCH   5   6
ENDBRANCH   4   5
ENDBRANCH   3   4
ENDBRANCH   2   3
TORSDOF 8
ENDMDL
MODEL       84
REMARK 921   NORMALIZED FREE ENERGY PREDICTED BY IDOCK:   -5.11 KCAL/MOL
REMARK 922        TOTAL FREE ENERGY PREDICTED BY IDOCK:   -8.43 KCAL/MOL
REMARK 923 INTER-LIGAND FREE ENERGY PREDICTED BY IDOCK:   -7.45 KCAL/MOL
REMARK 924 INTRA-LIGAND FREE ENERGY PREDICTED BY IDOCK:   -0.98 KCAL/MOL
REMARK 927      BINDING AFFINITY PREDICTED BY RF-SCORE:    0.00 PKD
ROOT
HETATM    1  C   UNL     1     -10.716   5.491  70.549  1.00  0.00    -0.310 C  
HETATM    2  C   UNL     1     -10.429   5.527  69.063  1.00  0.00    -0.226 C  
ENDROOT
BRANCH   2   3
HETATM    3  O   UNL     1     -11.247   6.500  68.401  1.00  0.00    -0.283 OA 
BRANCH   3   4
HETATM    4  C   UNL     1     -10.795   6.653  67.050  1.00  0.00    -0.397 C  
BRANCH   4   5
HETATM    5  C   UNL     1      -9.949   7.914  66.813  1.00  0.00    -0.263 C  
BRANCH   5   6
HETATM    6  N   UNL     1      -9.861   8.926  67.888  1.00  0.00    -0.161 N  
HETATM    7 CL   UNL     1      -9.467   8.983  71.401  1.00  0.00    -0.345 Cl 
HETATM    8  C   UNL     1      -8.788   8.739  68.801  1.00  0.00    -0.134 C  
HETATM    9  C   UNL     1      -8.653   9.703  69.992  1.00  0.00    -0.215 C  
HETATM   10 CL   UNL     1      -6.934   9.992  70.366  1.00  0.00    -0.148 Cl 
HETATM   11  O   UNL     1      -7.988   7.805  68.661  1.00  0.00    -0.117 OA 
BRANCH   6  12
HETATM   12  C   UNL     1     -11.029   9.746  68.277  1.00  0.00    -0.164 C  
BRANCH  12  13
HETATM   13  C   UNL     1     -11.070  11.197  67.864  1.00  0.00    -0.331 A  
HETATM   14  C   UNL     1     -11.058  12.224  68.820  1.00  0.00    -0.295 A  
HETATM   15  C   UNL     1     -11.239  13.555  68.430  1.00  0.00    -0.309 A  
HETATM   16  C   UNL     1     -11.397  13.890  67.081  1.00  0.00    -0.327 A  
HETATM   17  C   UNL     1     -11.170  11.546  66.507  1.00  0.00    -0.324 A  
HETATM   18  C   UNL     1     -11.352  12.880  66.120  1.00  0.00    -0.356 A  
BRANCH  16  19
HETATM   19  O   UNL     1     -11.694  15.216  66.843  1.00  0.00    -0.244 OA 
BRANCH  19  20
HETATM   20  C   UNL     1     -10.719  16.182  66.934  1.00  0.00    -0.247 A  
HETATM   21  C   UNL     1     -10.838  17.096  67.987  1.00  0.00    -0.317 A  
HETATM   22  C   UNL     1      -9.859  18.074  68.186  1.00  0.00    -0.341 A  
HETATM   23  C   UNL     1      -8.756  18.130  67.322  1.00  0.00    -0.244 A  
HETATM   24  C   UNL     1      -8.615  17.191  66.290  1.00  0.00    -0.276 A  
HETATM   25  N   UNL     1      -7.739  19.170  67.502  1.00  0.00    -0.236 N  
HETATM   26  C   UNL     1      -9.588  16.207  66.113  1.00  0.00    -0.359 A  
HETATM   27  O   UNL     1      -7.861  19.938  68.465  1.00  0.00    -0.292 OA 
HETATM   28  O   UNL     1      -6.818  19.228  66.669  1.00  0.00    -0.191 OA 
ENDBRANCH  19  20
ENDBRANCH  16  19
ENDBRANCH  12  13
ENDBRANCH   6  12
ENDBRANCH   5   6
ENDBRANCH   4   5
ENDBRANCH   3   4
ENDBRANCH   2   3
TORSDOF 8
ENDMDL
MODEL       85
REMARK 921   NORMALIZED FREE ENERGY PREDICTED BY IDOCK:   -5.10 KCAL/MOL
REMARK 922        TOTAL FREE ENERGY PREDICTED BY IDOCK:   -8.42 KCAL/MOL
REMARK 923 INTER-LIGAND FREE ENERGY PREDICTED BY IDOCK:   -7.60 KCAL/MOL
REMARK 924 INTRA-LIGAND FREE ENERGY PREDICTED BY IDOCK:   -0.82 KCAL/MOL
REMARK 927      BINDING AFFINITY PREDICTED BY RF-SCORE:    0.00 PKD
ROOT
HETATM    1  C   UNL     1     -11.152  12.056  63.389  1.00  0.00    -0.476 C  
HETATM    2  C   UNL     1     -10.661  11.266  64.584  1.00  0.00    -0.327 C  
ENDROOT
BRANCH   2   3
HETATM    3  O   UNL     1      -9.420  11.788  65.075  1.00  0.00    -0.182 OA 
BRANCH   3   4
HETATM    4  C   UNL     1      -9.048  11.075  66.261  1.00  0.00    -0.182 C  
BRANCH   4   5
HETATM    5  C   UNL     1      -9.137  11.911  67.547  1.00  0.00    -0.178 C  
BRANCH   5   6
HETATM    6  N   UNL     1     -10.412  12.588  67.871  1.00  0.00    -0.212 N  
HETATM    7 CL   UNL     1     -11.836  14.310  70.611  1.00  0.00    -0.364 Cl 
HETATM    8  C   UNL     1     -10.276  13.877  68.452  1.00  0.00    -0.243 C  
HETATM    9  C   UNL     1     -11.544  14.632  68.885  1.00  0.00    -0.310 C  
HETATM   10 CL   UNL     1     -11.347  16.383  68.619  1.00  0.00    -0.339 Cl 
HETATM   11  O   UNL     1      -9.159  14.379  68.633  1.00  0.00    -0.194 OA 
BRANCH   6  12
HETATM   12  C   UNL     1     -11.670  11.828  68.044  1.00  0.00    -0.293 C  
BRANCH  12  13
HETATM   13  C   UNL     1     -11.790  10.874  69.208  1.00  0.00    -0.395 A  
HETATM   14  C   UNL     1     -12.726  11.091  70.230  1.00  0.00    -0.256 A  
HETATM   15  C   UNL     1     -12.730  10.281  71.370  1.00  0.00    -0.547 A  
HETATM   16  C   UNL     1     -11.827   9.220  71.496  1.00  0.00    -0.374 A  
HETATM   17  C   UNL     1     -10.926   9.772  69.313  1.00  0.00    -0.222 A  
HETATM   18  C   UNL     1     -10.931   8.962  70.458  1.00  0.00    -0.280 A  
BRANCH  16  19
HETATM   19  O   UNL     1     -11.849   8.581  72.717  1.00  0.00    -0.326 OA 
BRANCH  19  20
HETATM   20  C   UNL     1     -11.057   7.480  72.949  1.00  0.00    -0.375 A  
HETATM   21  C   UNL     1     -11.520   6.258  72.449  1.00  0.00    -0.335 A  
HETATM   22  C   UNL     1     -10.748   5.101  72.591  1.00  0.00    -0.291 A  
HETATM   23  C   UNL     1      -9.506   5.177  73.237  1.00  0.00    -0.141 A  
HETATM   24  C   UNL     1      -9.023   6.407  73.705  1.00  0.00    -0.134 A  
HETATM   25  N   UNL     1      -8.702   3.964  73.419  1.00  0.00    -0.094 N  
HETATM   26  C   UNL     1      -9.793   7.559  73.540  1.00  0.00    -0.372 A  
HETATM   27  O   UNL     1      -9.128   2.909  72.934  1.00  0.00    -0.085 OA 
HETATM   28  O   UNL     1      -7.643   4.064  74.062  1.00  0.00    -0.076 OA 
ENDBRANCH  19  20
ENDBRANCH  16  19
ENDBRANCH  12  13
ENDBRANCH   6  12
ENDBRANCH   5   6
ENDBRANCH   4   5
ENDBRANCH   3   4
ENDBRANCH   2   3
TORSDOF 8
ENDMDL
MODEL       86
REMARK 921   NORMALIZED FREE ENERGY PREDICTED BY IDOCK:   -5.08 KCAL/MOL
REMARK 922        TOTAL FREE ENERGY PREDICTED BY IDOCK:   -8.39 KCAL/MOL
REMARK 923 INTER-LIGAND FREE ENERGY PREDICTED BY IDOCK:   -7.34 KCAL/MOL
REMARK 924 INTRA-LIGAND FREE ENERGY PREDICTED BY IDOCK:   -1.05 KCAL/MOL
REMARK 927      BINDING AFFINITY PREDICTED BY RF-SCORE:    0.00 PKD
ROOT
HETATM    1  C   UNL     1      -8.802   8.043  66.788  1.00  0.00    -0.157 C  
HETATM    2  C   UNL     1      -9.618   7.093  67.638  1.00  0.00    -0.130 C  
ENDROOT
BRANCH   2   3
HETATM    3  O   UNL     1      -9.070   5.770  67.610  1.00  0.00    -0.109 OA 
BRANCH   3   4
HETATM    4  C   UNL     1      -8.401   5.512  68.851  1.00  0.00    -0.102 C  
BRANCH   4   5
HETATM    5  C   UNL     1      -9.255   4.747  69.873  1.00  0.00    -0.124 C  
BRANCH   5   6
HETATM    6  N   UNL     1      -8.914   4.853  71.309  1.00  0.00    -0.131 N  
HETATM    7 CL   UNL     1     -10.501   4.306  74.421  1.00  0.00    -0.293 Cl 
HETATM    8  C   UNL     1      -9.265   3.722  72.094  1.00  0.00    -0.119 C  
HETATM    9  C   UNL     1      -9.012   3.766  73.611  1.00  0.00    -0.088 C  
HETATM   10 CL   UNL     1      -8.546   2.153  74.210  1.00  0.00    -0.058 Cl 
HETATM   11  O   UNL     1      -9.790   2.727  71.578  1.00  0.00    -0.161 OA 
BRANCH   6  12
HETATM   12  C   UNL     1      -8.695   6.165  71.958  1.00  0.00    -0.135 C  
BRANCH  12  13
HETATM   13  C   UNL     1      -9.735   7.245  71.783  1.00  0.00    -0.167 A  
HETATM   14  C   UNL     1     -11.047   7.072  72.248  1.00  0.00    -0.287 A  
HETATM   15  C   UNL     1     -12.033   8.019  71.954  1.00  0.00    -0.359 A  
HETATM   16  C   UNL     1     -11.722   9.172  71.225  1.00  0.00    -0.326 A  
HETATM   17  C   UNL     1      -9.416   8.432  71.103  1.00  0.00    -0.227 A  
HETATM   18  C   UNL     1     -10.407   9.379  70.809  1.00  0.00    -0.366 A  
BRANCH  16  19
HETATM   19  O   UNL     1     -12.804   9.960  70.894  1.00  0.00    -0.325 OA 
BRANCH  19  20
HETATM   20  C   UNL     1     -12.776  11.319  71.104  1.00  0.00    -0.390 A  
HETATM   21  C   UNL     1     -12.076  12.085  70.165  1.00  0.00    -0.377 A  
HETATM   22  C   UNL     1     -12.047  13.478  70.273  1.00  0.00    -0.425 A  
HETATM   23  C   UNL     1     -12.725  14.101  71.330  1.00  0.00    -0.364 A  
HETATM   24  C   UNL     1     -13.459  13.338  72.250  1.00  0.00    -0.679 A  
HETATM   25  N   UNL     1     -12.676  15.560  71.471  1.00  0.00    -0.403 N  
HETATM   26  C   UNL     1     -13.498  11.950  72.121  1.00  0.00    -0.300 A  
HETATM   27  O   UNL     1     -12.076  16.205  70.602  1.00  0.00    -0.293 OA 
HETATM   28  O   UNL     1     -13.229  16.063  72.464  1.00  0.00    -0.450 OA 
ENDBRANCH  19  20
ENDBRANCH  16  19
ENDBRANCH  12  13
ENDBRANCH   6  12
ENDBRANCH   5   6
ENDBRANCH   4   5
ENDBRANCH   3   4
ENDBRANCH   2   3
TORSDOF 8
ENDMDL
MODEL       87
REMARK 921   NORMALIZED FREE ENERGY PREDICTED BY IDOCK:   -5.07 KCAL/MOL
REMARK 922        TOTAL FREE ENERGY PREDICTED BY IDOCK:   -8.37 KCAL/MOL
REMARK 923 INTER-LIGAND FREE ENERGY PREDICTED BY IDOCK:   -7.24 KCAL/MOL
REMARK 924 INTRA-LIGAND FREE ENERGY PREDICTED BY IDOCK:   -1.13 KCAL/MOL
REMARK 927      BINDING AFFINITY PREDICTED BY RF-SCORE:    0.00 PKD
ROOT
HETATM    1  C   UNL     1     -13.348   9.631  71.098  1.00  0.00    -0.344 C  
HETATM    2  C   UNL     1     -11.978   9.560  71.738  1.00  0.00    -0.371 C  
ENDROOT
BRANCH   2   3
HETATM    3  O   UNL     1     -11.862   8.412  72.588  1.00  0.00    -0.393 OA 
BRANCH   3   4
HETATM    4  C   UNL     1     -11.753   7.235  71.777  1.00  0.00    -0.286 C  
BRANCH   4   5
HETATM    5  C   UNL     1     -10.367   7.039  71.144  1.00  0.00    -0.206 C  
BRANCH   5   6
HETATM    6  N   UNL     1      -9.987   5.693  70.661  1.00  0.00    -0.189 N  
HETATM    7 CL   UNL     1      -7.032   3.793  70.268  1.00  0.00    -0.034 Cl 
HETATM    8  C   UNL     1      -9.112   4.973  71.518  1.00  0.00    -0.140 C  
HETATM    9  C   UNL     1      -8.608   3.591  71.069  1.00  0.00    -0.072 C  
HETATM   10 CL   UNL     1      -8.441   2.505  72.473  1.00  0.00    -0.062 Cl 
HETATM   11  O   UNL     1      -8.737   5.454  72.595  1.00  0.00    -0.123 OA 
BRANCH   6  12
HETATM   12  C   UNL     1     -10.090   5.326  69.231  1.00  0.00    -0.230 C  
BRANCH  12  13
HETATM   13  C   UNL     1      -9.674   6.336  68.189  1.00  0.00    -0.123 A  
HETATM   14  C   UNL     1      -8.321   6.634  67.968  1.00  0.00    -0.117 A  
HETATM   15  C   UNL     1      -7.957   7.670  67.102  1.00  0.00    -0.117 A  
HETATM   16  C   UNL     1      -8.931   8.403  66.415  1.00  0.00    -0.171 A  
HETATM   17  C   UNL     1     -10.643   7.035  67.452  1.00  0.00    -0.372 A  
HETATM   18  C   UNL     1     -10.276   8.075  66.587  1.00  0.00    -0.315 A  
BRANCH  16  19
HETATM   19  O   UNL     1      -8.450   9.477  65.695  1.00  0.00    -0.125 OA 
BRANCH  19  20
HETATM   20  C   UNL     1      -9.291  10.488  65.295  1.00  0.00    -0.213 A  
HETATM   21  C   UNL     1      -9.448  11.562  66.179  1.00  0.00    -0.239 A  
HETATM   22  C   UNL     1     -10.239  12.658  65.824  1.00  0.00    -0.288 A  
HETATM   23  C   UNL     1     -10.874  12.673  64.574  1.00  0.00    -0.336 A  
HETATM   24  C   UNL     1     -10.687  11.617  63.671  1.00  0.00    -0.500 A  
HETATM   25  N   UNL     1     -11.731  13.803  64.203  1.00  0.00    -0.387 N  
HETATM   26  C   UNL     1      -9.879  10.537  64.028  1.00  0.00    -0.387 A  
HETATM   27  O   UNL     1     -11.818  14.748  64.997  1.00  0.00    -0.369 OA 
HETATM   28  O   UNL     1     -12.332  13.741  63.117  1.00  0.00    -0.726 OA 
ENDBRANCH  19  20
ENDBRANCH  16  19
ENDBRANCH  12  13
ENDBRANCH   6  12
ENDBRANCH   5   6
ENDBRANCH   4   5
ENDBRANCH   3   4
ENDBRANCH   2   3
TORSDOF 8
ENDMDL
MODEL       88
REMARK 921   NORMALIZED FREE ENERGY PREDICTED BY IDOCK:   -5.07 KCAL/MOL
REMARK 922        TOTAL FREE ENERGY PREDICTED BY IDOCK:   -8.37 KCAL/MOL
REMARK 923 INTER-LIGAND FREE ENERGY PREDICTED BY IDOCK:   -7.78 KCAL/MOL
REMARK 924 INTRA-LIGAND FREE ENERGY PREDICTED BY IDOCK:   -0.59 KCAL/MOL
REMARK 927      BINDING AFFINITY PREDICTED BY RF-SCORE:    0.00 PKD
ROOT
HETATM    1  C   UNL     1     -10.924   6.665  72.865  1.00  0.00    -0.286 C  
HETATM    2  C   UNL     1     -10.396   7.985  72.347  1.00  0.00    -0.289 C  
ENDROOT
BRANCH   2   3
HETATM    3  O   UNL     1     -11.425   8.982  72.325  1.00  0.00    -0.323 OA 
BRANCH   3   4
HETATM    4  C   UNL     1     -11.293   9.767  71.132  1.00  0.00    -0.389 C  
BRANCH   4   5
HETATM    5  C   UNL     1     -10.960   8.945  69.877  1.00  0.00    -0.182 C  
BRANCH   5   6
HETATM    6  N   UNL     1     -10.378   9.637  68.706  1.00  0.00    -0.206 N  
HETATM    7 CL   UNL     1      -8.386  12.489  68.076  1.00  0.00    -0.162 Cl 
HETATM    8  C   UNL     1      -9.003   9.973  68.831  1.00  0.00    -0.152 C  
HETATM    9  C   UNL     1      -8.325  10.753  67.692  1.00  0.00    -0.119 C  
HETATM   10 CL   UNL     1      -6.631  10.232  67.504  1.00  0.00    -0.066 Cl 
HETATM   11  O   UNL     1      -8.363   9.670  69.846  1.00  0.00    -0.147 OA 
BRANCH   6  12
HETATM   12  C   UNL     1     -11.227  10.347  67.725  1.00  0.00    -0.237 C  
BRANCH  12  13
HETATM   13  C   UNL     1     -11.524  11.811  67.946  1.00  0.00    -0.387 A  
HETATM   14  C   UNL     1     -11.553  12.715  66.873  1.00  0.00    -0.438 A  
HETATM   15  C   UNL     1     -11.688  14.087  67.108  1.00  0.00    -0.421 A  
HETATM   16  C   UNL     1     -11.834  14.579  68.409  1.00  0.00    -0.316 A  
HETATM   17  C   UNL     1     -11.730  12.305  69.244  1.00  0.00    -0.388 A  
HETATM   18  C   UNL     1     -11.864  13.681  69.476  1.00  0.00    -0.394 A  
BRANCH  16  19
HETATM   19  O   UNL     1     -11.830  15.954  68.515  1.00  0.00    -0.366 OA 
BRANCH  19  20
HETATM   20  C   UNL     1     -10.655  16.663  68.425  1.00  0.00    -0.343 A  
HETATM   21  C   UNL     1     -10.750  17.981  67.964  1.00  0.00    -0.301 A  
HETATM   22  C   UNL     1      -9.611  18.788  67.898  1.00  0.00    -0.345 A  
HETATM   23  C   UNL     1      -8.373  18.267  68.299  1.00  0.00    -0.302 A  
HETATM   24  C   UNL     1      -8.282  16.960  68.798  1.00  0.00    -0.244 A  
HETATM   25  N   UNL     1      -7.167  19.095  68.205  1.00  0.00    -0.258 N  
HETATM   26  C   UNL     1      -9.428  16.170  68.878  1.00  0.00    -0.244 A  
HETATM   27  O   UNL     1      -7.297  20.266  67.824  1.00  0.00    -0.284 OA 
HETATM   28  O   UNL     1      -6.081  18.569  68.501  1.00  0.00    -0.190 OA 
ENDBRANCH  19  20
ENDBRANCH  16  19
ENDBRANCH  12  13
ENDBRANCH   6  12
ENDBRANCH   5   6
ENDBRANCH   4   5
ENDBRANCH   3   4
ENDBRANCH   2   3
TORSDOF 8
ENDMDL
MODEL       89
REMARK 921   NORMALIZED FREE ENERGY PREDICTED BY IDOCK:   -4.99 KCAL/MOL
REMARK 922        TOTAL FREE ENERGY PREDICTED BY IDOCK:   -8.25 KCAL/MOL
REMARK 923 INTER-LIGAND FREE ENERGY PREDICTED BY IDOCK:   -7.25 KCAL/MOL
REMARK 924 INTRA-LIGAND FREE ENERGY PREDICTED BY IDOCK:   -1.01 KCAL/MOL
REMARK 927      BINDING AFFINITY PREDICTED BY RF-SCORE:    0.00 PKD
ROOT
HETATM    1  C   UNL     1      -9.633   3.941  64.467  1.00  0.00    -0.173 C  
HETATM    2  C   UNL     1      -8.270   4.575  64.288  1.00  0.00    -0.109 C  
ENDROOT
BRANCH   2   3
HETATM    3  O   UNL     1      -8.301   5.971  64.608  1.00  0.00    -0.131 OA 
BRANCH   3   4
HETATM    4  C   UNL     1      -7.804   6.159  65.939  1.00  0.00    -0.107 C  
BRANCH   4   5
HETATM    5  C   UNL     1      -8.836   6.744  66.915  1.00  0.00    -0.119 C  
BRANCH   5   6
HETATM    6  N   UNL     1      -8.677   6.483  68.363  1.00  0.00    -0.122 N  
HETATM    7 CL   UNL     1     -10.756   5.800  71.140  1.00  0.00    -0.323 Cl 
HETATM    8  C   UNL     1      -9.395   5.359  68.852  1.00  0.00    -0.127 C  
HETATM    9  C   UNL     1      -9.346   5.046  70.357  1.00  0.00    -0.158 C  
HETATM   10 CL   UNL     1      -9.370   3.285  70.628  1.00  0.00    -0.216 Cl 
HETATM   11  O   UNL     1     -10.071   4.654  68.091  1.00  0.00    -0.101 OA 
BRANCH   6  12
HETATM   12  C   UNL     1      -8.237   7.543  69.296  1.00  0.00    -0.130 C  
BRANCH  12  13
HETATM   13  C   UNL     1      -9.028   8.827  69.364  1.00  0.00    -0.145 A  
HETATM   14  C   UNL     1     -10.312   8.859  69.927  1.00  0.00    -0.215 A  
HETATM   15  C   UNL     1     -11.087  10.021  69.855  1.00  0.00    -0.336 A  
HETATM   16  C   UNL     1     -10.584  11.180  69.256  1.00  0.00    -0.175 A  
HETATM   17  C   UNL     1      -8.506  10.011  68.817  1.00  0.00    -0.126 A  
HETATM   18  C   UNL     1      -9.286  11.173  68.745  1.00  0.00    -0.151 A  
BRANCH  16  19
HETATM   19  O   UNL     1     -11.490  12.213  69.136  1.00  0.00    -0.255 OA 
BRANCH  19  20
HETATM   20  C   UNL     1     -11.664  12.860  67.935  1.00  0.00    -0.357 A  
HETATM   21  C   UNL     1     -11.865  12.052  66.810  1.00  0.00    -0.244 A  
HETATM   22  C   UNL     1     -12.107  12.632  65.561  1.00  0.00    -0.515 A  
HETATM   23  C   UNL     1     -12.149  14.028  65.445  1.00  0.00    -0.401 A  
HETATM   24  C   UNL     1     -11.986  14.839  66.578  1.00  0.00    -0.193 A  
HETATM   25  N   UNL     1     -12.371  14.647  64.135  1.00  0.00    -0.407 N  
HETATM   26  C   UNL     1     -11.765  14.250  67.823  1.00  0.00    -0.408 A  
HETATM   27  O   UNL     1     -12.578  13.900  63.170  1.00  0.00    -0.775 OA 
HETATM   28  O   UNL     1     -12.326  15.887  64.067  1.00  0.00    -0.724 OA 
ENDBRANCH  19  20
ENDBRANCH  16  19
ENDBRANCH  12  13
ENDBRANCH   6  12
ENDBRANCH   5   6
ENDBRANCH   4   5
ENDBRANCH   3   4
ENDBRANCH   2   3
TORSDOF 8
ENDMDL
MODEL       90
REMARK 921   NORMALIZED FREE ENERGY PREDICTED BY IDOCK:   -4.98 KCAL/MOL
REMARK 922        TOTAL FREE ENERGY PREDICTED BY IDOCK:   -8.24 KCAL/MOL
REMARK 923 INTER-LIGAND FREE ENERGY PREDICTED BY IDOCK:   -7.10 KCAL/MOL
REMARK 924 INTRA-LIGAND FREE ENERGY PREDICTED BY IDOCK:   -1.14 KCAL/MOL
REMARK 927      BINDING AFFINITY PREDICTED BY RF-SCORE:    0.00 PKD
ROOT
HETATM    1  C   UNL     1      -7.826  17.863  68.544  1.00  0.00    -0.301 C  
HETATM    2  C   UNL     1      -7.393  16.582  67.863  1.00  0.00    -0.136 C  
ENDROOT
BRANCH   2   3
HETATM    3  O   UNL     1      -8.444  16.046  67.050  1.00  0.00    -0.180 OA 
BRANCH   3   4
HETATM    4  C   UNL     1      -9.360  15.323  67.883  1.00  0.00    -0.189 C  
BRANCH   4   5
HETATM    5  C   UNL     1     -10.719  15.045  67.222  1.00  0.00    -0.298 C  
BRANCH   5   6
HETATM    6  N   UNL     1     -11.009  13.679  66.735  1.00  0.00    -0.290 N  
HETATM    7 CL   UNL     1     -12.758  12.175  64.054  1.00  0.00    -0.513 Cl 
HETATM    8  C   UNL     1     -10.778  13.475  65.348  1.00  0.00    -0.304 C  
HETATM    9  C   UNL     1     -11.114  12.106  64.734  1.00  0.00    -0.316 C  
HETATM   10 CL   UNL     1      -9.945  11.694  63.453  1.00  0.00    -0.411 Cl 
HETATM   11  O   UNL     1     -10.338  14.387  64.635  1.00  0.00    -0.397 OA 
BRANCH   6  12
HETATM   12  C   UNL     1     -11.908  12.767  67.476  1.00  0.00    -0.343 C  
BRANCH  12  13
HETATM   13  C   UNL     1     -11.307  11.806  68.474  1.00  0.00    -0.328 A  
HETATM   14  C   UNL     1      -9.988  11.348  68.336  1.00  0.00    -0.206 A  
HETATM   15  C   UNL     1      -9.493  10.353  69.185  1.00  0.00    -0.220 A  
HETATM   16  C   UNL     1     -10.288   9.823  70.206  1.00  0.00    -0.291 A  
HETATM   17  C   UNL     1     -12.080  11.313  69.537  1.00  0.00    -0.386 A  
HETATM   18  C   UNL     1     -11.582  10.314  70.385  1.00  0.00    -0.411 A  
BRANCH  16  19
HETATM   19  O   UNL     1      -9.729   8.762  70.887  1.00  0.00    -0.188 OA 
BRANCH  19  20
HETATM   20  C   UNL     1      -9.411   7.595  70.233  1.00  0.00    -0.161 A  
HETATM   21  C   UNL     1     -10.482   6.849  69.725  1.00  0.00    -0.240 A  
HETATM   22  C   UNL     1     -10.242   5.680  68.997  1.00  0.00    -0.291 A  
HETATM   23  C   UNL     1      -8.922   5.262  68.779  1.00  0.00    -0.110 A  
HETATM   24  C   UNL     1      -7.848   6.028  69.254  1.00  0.00    -0.103 A  
HETATM   25  N   UNL     1      -8.660   4.021  68.043  1.00  0.00    -0.094 N  
HETATM   26  C   UNL     1      -8.097   7.203  69.962  1.00  0.00    -0.127 A  
HETATM   27  O   UNL     1      -9.630   3.407  67.581  1.00  0.00    -0.205 OA 
HETATM   28  O   UNL     1      -7.479   3.650  67.937  1.00  0.00    -0.061 OA 
ENDBRANCH  19  20
ENDBRANCH  16  19
ENDBRANCH  12  13
ENDBRANCH   6  12
ENDBRANCH   5   6
ENDBRANCH   4   5
ENDBRANCH   3   4
ENDBRANCH   2   3
TORSDOF 8
ENDMDL
MODEL       91
REMARK 921   NORMALIZED FREE ENERGY PREDICTED BY IDOCK:   -4.92 KCAL/MOL
REMARK 922        TOTAL FREE ENERGY PREDICTED BY IDOCK:   -8.16 KCAL/MOL
REMARK 923 INTER-LIGAND FREE ENERGY PREDICTED BY IDOCK:   -7.05 KCAL/MOL
REMARK 924 INTRA-LIGAND FREE ENERGY PREDICTED BY IDOCK:   -1.11 KCAL/MOL
REMARK 927      BINDING AFFINITY PREDICTED BY RF-SCORE:    0.00 PKD
ROOT
HETATM    1  C   UNL     1     -12.302  13.945  70.724  1.00  0.00    -0.449 C  
HETATM    2  C   UNL     1     -11.583  14.988  71.553  1.00  0.00    -0.353 C  
ENDROOT
BRANCH   2   3
HETATM    3  O   UNL     1     -11.306  16.162  70.781  1.00  0.00    -0.385 OA 
BRANCH   3   4
HETATM    4  C   UNL     1     -11.697  15.934  69.421  1.00  0.00    -0.343 C  
BRANCH   4   5
HETATM    5  C   UNL     1     -10.984  16.841  68.406  1.00  0.00    -0.325 C  
BRANCH   5   6
HETATM    6  N   UNL     1      -9.618  16.483  67.965  1.00  0.00    -0.224 N  
HETATM    7 CL   UNL     1      -7.047  17.908  66.000  1.00  0.00    -0.337 Cl 
HETATM    8  C   UNL     1      -8.646  17.505  68.136  1.00  0.00    -0.258 C  
HETATM    9  C   UNL     1      -7.210  17.251  67.646  1.00  0.00    -0.162 C  
HETATM   10 CL   UNL     1      -6.034  18.035  68.732  1.00  0.00    -0.191 Cl 
HETATM   11  O   UNL     1      -8.947  18.592  68.647  1.00  0.00    -0.322 OA 
BRANCH   6  12
HETATM   12  C   UNL     1      -9.378  15.389  66.999  1.00  0.00    -0.224 C  
BRANCH  12  13
HETATM   13  C   UNL     1     -10.053  14.057  67.227  1.00  0.00    -0.249 A  
HETATM   14  C   UNL     1      -9.671  13.223  68.287  1.00  0.00    -0.225 A  
HETATM   15  C   UNL     1     -10.204  11.935  68.401  1.00  0.00    -0.205 A  
HETATM   16  C   UNL     1     -11.152  11.469  67.484  1.00  0.00    -0.272 A  
HETATM   17  C   UNL     1     -11.048  13.607  66.344  1.00  0.00    -0.307 A  
HETATM   18  C   UNL     1     -11.580  12.315  66.460  1.00  0.00    -0.440 A  
BRANCH  16  19
HETATM   19  O   UNL     1     -11.502  10.144  67.632  1.00  0.00    -0.271 OA 
BRANCH  19  20
HETATM   20  C   UNL     1     -10.547   9.155  67.589  1.00  0.00    -0.242 A  
HETATM   21  C   UNL     1     -10.410   8.365  68.736  1.00  0.00    -0.225 A  
HETATM   22  C   UNL     1      -9.502   7.302  68.755  1.00  0.00    -0.142 A  
HETATM   23  C   UNL     1      -8.732   7.033  67.614  1.00  0.00    -0.121 A  
HETATM   24  C   UNL     1      -8.896   7.799  66.451  1.00  0.00    -0.180 A  
HETATM   25  N   UNL     1      -7.755   5.940  67.633  1.00  0.00    -0.096 N  
HETATM   26  C   UNL     1      -9.818   8.845  66.437  1.00  0.00    -0.353 A  
HETATM   27  O   UNL     1      -7.687   5.243  68.653  1.00  0.00    -0.081 OA 
HETATM   28  O   UNL     1      -7.043   5.785  66.627  1.00  0.00    -0.066 OA 
ENDBRANCH  19  20
ENDBRANCH  16  19
ENDBRANCH  12  13
ENDBRANCH   6  12
ENDBRANCH   5   6
ENDBRANCH   4   5
ENDBRANCH   3   4
ENDBRANCH   2   3
TORSDOF 8
ENDMDL
MODEL       92
REMARK 921   NORMALIZED FREE ENERGY PREDICTED BY IDOCK:   -4.91 KCAL/MOL
REMARK 922        TOTAL FREE ENERGY PREDICTED BY IDOCK:   -8.14 KCAL/MOL
REMARK 923 INTER-LIGAND FREE ENERGY PREDICTED BY IDOCK:   -6.88 KCAL/MOL
REMARK 924 INTRA-LIGAND FREE ENERGY PREDICTED BY IDOCK:   -1.26 KCAL/MOL
REMARK 927      BINDING AFFINITY PREDICTED BY RF-SCORE:    0.00 PKD
ROOT
HETATM    1  C   UNL     1      -8.919  10.882  62.458  1.00  0.00    -0.360 C  
HETATM    2  C   UNL     1      -8.189   9.580  62.715  1.00  0.00    -0.155 C  
ENDROOT
BRANCH   2   3
HETATM    3  O   UNL     1      -6.947   9.807  63.391  1.00  0.00    -0.109 OA 
BRANCH   3   4
HETATM    4  C   UNL     1      -7.205  10.048  64.780  1.00  0.00    -0.136 C  
BRANCH   4   5
HETATM    5  C   UNL     1      -7.724   8.818  65.541  1.00  0.00    -0.092 C  
BRANCH   5   6
HETATM    6  N   UNL     1      -8.480   9.023  66.797  1.00  0.00    -0.118 N  
HETATM    7 CL   UNL     1      -9.112   7.246  69.787  1.00  0.00    -0.142 Cl 
HETATM    8  C   UNL     1      -7.759   8.730  67.985  1.00  0.00    -0.101 C  
HETATM    9  C   UNL     1      -8.481   8.848  69.338  1.00  0.00    -0.124 C  
HETATM   10 CL   UNL     1      -7.359   9.433  70.594  1.00  0.00    -0.131 Cl 
HETATM   11  O   UNL     1      -6.578   8.361  67.940  1.00  0.00    -0.059 OA 
BRANCH   6  12
HETATM   12  C   UNL     1      -9.959   9.043  66.815  1.00  0.00    -0.263 C  
BRANCH  12  13
HETATM   13  C   UNL     1     -10.669  10.375  66.782  1.00  0.00    -0.235 A  
HETATM   14  C   UNL     1     -10.732  11.134  65.604  1.00  0.00    -0.250 A  
HETATM   15  C   UNL     1     -11.267  12.426  65.624  1.00  0.00    -0.360 A  
HETATM   16  C   UNL     1     -11.783  12.969  66.806  1.00  0.00    -0.382 A  
HETATM   17  C   UNL     1     -11.241  10.902  67.951  1.00  0.00    -0.387 A  
HETATM   18  C   UNL     1     -11.776  12.197  67.968  1.00  0.00    -0.409 A  
BRANCH  16  19
HETATM   19  O   UNL     1     -12.163  14.292  66.720  1.00  0.00    -0.441 OA 
BRANCH  19  20
HETATM   20  C   UNL     1     -11.241  15.300  66.879  1.00  0.00    -0.256 A  
HETATM   21  C   UNL     1     -11.119  15.842  68.164  1.00  0.00    -0.338 A  
HETATM   22  C   UNL     1     -10.165  16.830  68.424  1.00  0.00    -0.296 A  
HETATM   23  C   UNL     1      -9.331  17.273  67.387  1.00  0.00    -0.236 A  
HETATM   24  C   UNL     1      -9.426  16.704  66.109  1.00  0.00    -0.319 A  
HETATM   25  N   UNL     1      -8.348  18.330  67.641  1.00  0.00    -0.245 N  
HETATM   26  C   UNL     1     -10.367  15.704  65.866  1.00  0.00    -0.368 A  
HETATM   27  O   UNL     1      -8.247  18.761  68.797  1.00  0.00    -0.337 OA 
HETATM   28  O   UNL     1      -7.682  18.743  66.677  1.00  0.00    -0.231 OA 
ENDBRANCH  19  20
ENDBRANCH  16  19
ENDBRANCH  12  13
ENDBRANCH   6  12
ENDBRANCH   5   6
ENDBRANCH   4   5
ENDBRANCH   3   4
ENDBRANCH   2   3
TORSDOF 8
ENDMDL
MODEL       93
REMARK 921   NORMALIZED FREE ENERGY PREDICTED BY IDOCK:   -4.90 KCAL/MOL
REMARK 922        TOTAL FREE ENERGY PREDICTED BY IDOCK:   -8.12 KCAL/MOL
REMARK 923 INTER-LIGAND FREE ENERGY PREDICTED BY IDOCK:   -7.44 KCAL/MOL
REMARK 924 INTRA-LIGAND FREE ENERGY PREDICTED BY IDOCK:   -0.68 KCAL/MOL
REMARK 927      BINDING AFFINITY PREDICTED BY RF-SCORE:    0.00 PKD
ROOT
HETATM    1  C   UNL     1     -13.879  13.648  72.409  1.00  0.00    -0.691 C  
HETATM    2  C   UNL     1     -13.732  14.614  71.253  1.00  0.00    -0.374 C  
ENDROOT
BRANCH   2   3
HETATM    3  O   UNL     1     -12.563  15.428  71.403  1.00  0.00    -0.339 OA 
BRANCH   3   4
HETATM    4  C   UNL     1     -12.104  15.835  70.108  1.00  0.00    -0.333 C  
BRANCH   4   5
HETATM    5  C   UNL     1     -10.578  15.782  69.940  1.00  0.00    -0.328 C  
BRANCH   5   6
HETATM    6  N   UNL     1     -10.000  15.980  68.593  1.00  0.00    -0.214 N  
HETATM    7 CL   UNL     1     -10.608  18.004  65.758  1.00  0.00    -0.299 Cl 
HETATM    8  C   UNL     1      -9.766  17.334  68.233  1.00  0.00    -0.294 C  
HETATM    9  C   UNL     1      -9.230  17.645  66.826  1.00  0.00    -0.271 C  
HETATM   10 CL   UNL     1      -8.122  19.040  66.877  1.00  0.00    -0.266 Cl 
HETATM   11  O   UNL     1     -10.012  18.254  69.024  1.00  0.00    -0.357 OA 
BRANCH   6  12
HETATM   12  C   UNL     1     -10.115  14.945  67.542  1.00  0.00    -0.228 C  
BRANCH  12  13
HETATM   13  C   UNL     1     -10.013  13.492  67.937  1.00  0.00    -0.245 A  
HETATM   14  C   UNL     1     -11.103  12.816  68.506  1.00  0.00    -0.300 A  
HETATM   15  C   UNL     1     -10.951  11.515  68.997  1.00  0.00    -0.285 A  
HETATM   16  C   UNL     1      -9.724  10.852  68.897  1.00  0.00    -0.187 A  
HETATM   17  C   UNL     1      -8.800  12.799  67.786  1.00  0.00    -0.187 A  
HETATM   18  C   UNL     1      -8.651  11.496  68.280  1.00  0.00    -0.161 A  
BRANCH  16  19
HETATM   19  O   UNL     1      -9.671   9.628  69.530  1.00  0.00    -0.179 OA 
BRANCH  19  20
HETATM   20  C   UNL     1      -9.720   8.459  68.807  1.00  0.00    -0.164 A  
HETATM   21  C   UNL     1      -9.019   7.367  69.331  1.00  0.00    -0.139 A  
HETATM   22  C   UNL     1      -9.064   6.126  68.689  1.00  0.00    -0.125 A  
HETATM   23  C   UNL     1      -9.819   5.985  67.516  1.00  0.00    -0.125 A  
HETATM   24  C   UNL     1     -10.553   7.068  67.010  1.00  0.00    -0.412 A  
HETATM   25  N   UNL     1      -9.850   4.697  66.817  1.00  0.00    -0.200 N  
HETATM   26  C   UNL     1     -10.517   8.296  67.670  1.00  0.00    -0.303 A  
HETATM   27  O   UNL     1      -9.245   3.746  67.329  1.00  0.00    -0.153 OA 
HETATM   28  O   UNL     1     -10.471   4.637  65.742  1.00  0.00    -0.285 OA 
ENDBRANCH  19  20
ENDBRANCH  16  19
ENDBRANCH  12  13
ENDBRANCH   6  12
ENDBRANCH   5   6
ENDBRANCH   4   5
ENDBRANCH   3   4
ENDBRANCH   2   3
TORSDOF 8
ENDMDL
MODEL       94
REMARK 921   NORMALIZED FREE ENERGY PREDICTED BY IDOCK:   -4.86 KCAL/MOL
REMARK 922        TOTAL FREE ENERGY PREDICTED BY IDOCK:   -8.06 KCAL/MOL
REMARK 923 INTER-LIGAND FREE ENERGY PREDICTED BY IDOCK:   -7.03 KCAL/MOL
REMARK 924 INTRA-LIGAND FREE ENERGY PREDICTED BY IDOCK:   -1.03 KCAL/MOL
REMARK 927      BINDING AFFINITY PREDICTED BY RF-SCORE:    0.00 PKD
ROOT
HETATM    1  C   UNL     1     -13.388   9.657  72.002  1.00  0.00    -0.547 C  
HETATM    2  C   UNL     1     -12.342  10.392  71.192  1.00  0.00    -0.400 C  
ENDROOT
BRANCH   2   3
HETATM    3  O   UNL     1     -11.065   9.749  71.290  1.00  0.00    -0.355 OA 
BRANCH   3   4
HETATM    4  C   UNL     1     -11.174   8.409  70.795  1.00  0.00    -0.263 C  
BRANCH   4   5
HETATM    5  C   UNL     1      -9.982   7.961  69.935  1.00  0.00    -0.192 C  
BRANCH   5   6
HETATM    6  N   UNL     1     -10.093   8.043  68.462  1.00  0.00    -0.194 N  
HETATM    7 CL   UNL     1      -7.985   8.762  65.716  1.00  0.00    -0.102 Cl 
HETATM    8  C   UNL     1      -9.077   7.357  67.745  1.00  0.00    -0.129 C  
HETATM    9  C   UNL     1      -9.069   7.440  66.209  1.00  0.00    -0.156 C  
HETATM   10 CL   UNL     1      -8.509   5.901  65.506  1.00  0.00    -0.151 Cl 
HETATM   11  O   UNL     1      -8.195   6.723  68.339  1.00  0.00    -0.118 OA 
BRANCH   6  12
HETATM   12  C   UNL     1     -10.866   9.119  67.803  1.00  0.00    -0.092 C  
BRANCH  12  13
HETATM   13  C   UNL     1     -10.236  10.483  67.657  1.00  0.00    -0.234 A  
HETATM   14  C   UNL     1     -10.624  11.354  66.629  1.00  0.00    -0.302 A  
HETATM   15  C   UNL     1      -9.934  12.553  66.420  1.00  0.00    -0.262 A  
HETATM   16  C   UNL     1      -8.873  12.922  67.253  1.00  0.00    -0.206 A  
HETATM   17  C   UNL     1      -9.209  10.886  68.526  1.00  0.00    -0.181 A  
HETATM   18  C   UNL     1      -8.519  12.087  68.314  1.00  0.00    -0.167 A  
BRANCH  16  19
HETATM   19  O   UNL     1      -8.197  14.060  66.866  1.00  0.00    -0.110 OA 
BRANCH  19  20
HETATM   20  C   UNL     1      -8.768  15.302  67.016  1.00  0.00    -0.234 A  
HETATM   21  C   UNL     1      -8.465  15.994  68.195  1.00  0.00    -0.169 A  
HETATM   22  C   UNL     1      -8.957  17.286  68.400  1.00  0.00    -0.269 A  
HETATM   23  C   UNL     1      -9.756  17.883  67.415  1.00  0.00    -0.288 A  
HETATM   24  C   UNL     1     -10.029  17.208  66.216  1.00  0.00    -0.316 A  
HETATM   25  N   UNL     1     -10.303  19.226  67.632  1.00  0.00    -0.403 N  
HETATM   26  C   UNL     1      -9.516  15.927  66.014  1.00  0.00    -0.389 A  
HETATM   27  O   UNL     1      -9.985  19.818  68.671  1.00  0.00    -0.427 OA 
HETATM   28  O   UNL     1     -11.066  19.687  66.766  1.00  0.00    -0.377 OA 
ENDBRANCH  19  20
ENDBRANCH  16  19
ENDBRANCH  12  13
ENDBRANCH   6  12
ENDBRANCH   5   6
ENDBRANCH   4   5
ENDBRANCH   3   4
ENDBRANCH   2   3
TORSDOF 8
ENDMDL
MODEL       95
REMARK 921   NORMALIZED FREE ENERGY PREDICTED BY IDOCK:   -4.85 KCAL/MOL
REMARK 922        TOTAL FREE ENERGY PREDICTED BY IDOCK:   -8.06 KCAL/MOL
REMARK 923 INTER-LIGAND FREE ENERGY PREDICTED BY IDOCK:   -7.14 KCAL/MOL
REMARK 924 INTRA-LIGAND FREE ENERGY PREDICTED BY IDOCK:   -0.91 KCAL/MOL
REMARK 927      BINDING AFFINITY PREDICTED BY RF-SCORE:    0.00 PKD
ROOT
HETATM    1  C   UNL     1     -12.274  14.817  64.256  1.00  0.00    -0.402 C  
HETATM    2  C   UNL     1     -11.894  13.361  64.419  1.00  0.00    -0.408 C  
ENDROOT
BRANCH   2   3
HETATM    3  O   UNL     1     -10.494  13.218  64.686  1.00  0.00    -0.371 OA 
BRANCH   3   4
HETATM    4  C   UNL     1     -10.309  12.229  65.707  1.00  0.00    -0.258 C  
BRANCH   4   5
HETATM    5  C   UNL     1     -11.458  12.160  66.725  1.00  0.00    -0.356 C  
BRANCH   5   6
HETATM    6  N   UNL     1     -11.208  12.602  68.115  1.00  0.00    -0.250 N  
HETATM    7 CL   UNL     1     -10.069  15.512  69.768  1.00  0.00    -0.287 Cl 
HETATM    8  C   UNL     1     -11.755  13.870  68.448  1.00  0.00    -0.356 C  
HETATM    9  C   UNL     1     -11.491  14.446  69.850  1.00  0.00    -0.260 C  
HETATM   10 CL   UNL     1     -12.907  15.365  70.421  1.00  0.00    -0.406 Cl 
HETATM   11  O   UNL     1     -12.411  14.518  67.622  1.00  0.00    -0.218 OA 
BRANCH   6  12
HETATM   12  C   UNL     1     -10.101  12.039  68.919  1.00  0.00    -0.015 C  
BRANCH  12  13
HETATM   13  C   UNL     1     -10.161  10.586  69.324  1.00  0.00    -0.244 A  
HETATM   14  C   UNL     1      -9.151   9.687  68.950  1.00  0.00    -0.144 A  
HETATM   15  C   UNL     1      -9.290   8.320  69.209  1.00  0.00    -0.155 A  
HETATM   16  C   UNL     1     -10.417   7.829  69.877  1.00  0.00    -0.232 A  
HETATM   17  C   UNL     1     -11.262  10.096  70.045  1.00  0.00    -0.361 A  
HETATM   18  C   UNL     1     -11.399   8.725  70.302  1.00  0.00    -0.162 A  
BRANCH  16  19
HETATM   19  O   UNL     1     -10.493   6.455  69.957  1.00  0.00    -0.191 OA 
BRANCH  19  20
HETATM   20  C   UNL     1     -10.324   5.675  68.837  1.00  0.00    -0.225 A  
HETATM   21  C   UNL     1     -10.917   6.136  67.656  1.00  0.00    -0.400 A  
HETATM   22  C   UNL     1     -10.745   5.432  66.460  1.00  0.00    -0.309 A  
HETATM   23  C   UNL     1      -9.972   4.262  66.454  1.00  0.00    -0.203 A  
HETATM   24  C   UNL     1      -9.346   3.820  67.628  1.00  0.00    -0.240 A  
HETATM   25  N   UNL     1      -9.810   3.500  65.212  1.00  0.00    -0.111 N  
HETATM   26  C   UNL     1      -9.508   4.541  68.811  1.00  0.00    -0.221 A  
HETATM   27  O   UNL     1     -10.321   3.957  64.182  1.00  0.00    -0.222 OA 
HETATM   28  O   UNL     1      -9.179   2.431  65.269  1.00  0.00    -0.139 OA 
ENDBRANCH  19  20
ENDBRANCH  16  19
ENDBRANCH  12  13
ENDBRANCH   6  12
ENDBRANCH   5   6
ENDBRANCH   4   5
ENDBRANCH   3   4
ENDBRANCH   2   3
TORSDOF 8
ENDMDL
MODEL       96
REMARK 921   NORMALIZED FREE ENERGY PREDICTED BY IDOCK:   -4.84 KCAL/MOL
REMARK 922        TOTAL FREE ENERGY PREDICTED BY IDOCK:   -8.04 KCAL/MOL
REMARK 923 INTER-LIGAND FREE ENERGY PREDICTED BY IDOCK:   -6.73 KCAL/MOL
REMARK 924 INTRA-LIGAND FREE ENERGY PREDICTED BY IDOCK:   -1.31 KCAL/MOL
REMARK 927      BINDING AFFINITY PREDICTED BY RF-SCORE:    0.00 PKD
ROOT
HETATM    1  C   UNL     1      -7.710  13.241  67.738  1.00  0.00    -0.159 C  
HETATM    2  C   UNL     1      -6.948  14.518  68.023  1.00  0.00    -0.141 C  
ENDROOT
BRANCH   2   3
HETATM    3  O   UNL     1      -7.807  15.521  68.577  1.00  0.00    -0.126 OA 
BRANCH   3   4
HETATM    4  C   UNL     1      -9.043  14.915  68.973  1.00  0.00    -0.175 C  
BRANCH   4   5
HETATM    5  C   UNL     1     -10.265  15.837  68.834  1.00  0.00    -0.219 C  
BRANCH   5   6
HETATM    6  N   UNL     1     -11.601  15.310  69.191  1.00  0.00    -0.312 N  
HETATM    7 CL   UNL     1     -12.972  12.991  71.480  1.00  0.00    -0.441 Cl 
HETATM    8  C   UNL     1     -11.886  15.292  70.583  1.00  0.00    -0.335 C  
HETATM    9  C   UNL     1     -13.224  14.700  71.057  1.00  0.00    -0.374 C  
HETATM   10 CL   UNL     1     -13.831  15.594  72.475  1.00  0.00    -0.646 Cl 
HETATM   11  O   UNL     1     -11.066  15.719  71.406  1.00  0.00    -0.315 OA 
BRANCH   6  12
HETATM   12  C   UNL     1     -12.361  14.438  68.269  1.00  0.00     0.020 C  
BRANCH  12  13
HETATM   13  C   UNL     1     -11.652  13.275  67.618  1.00  0.00    -0.386 A  
HETATM   14  C   UNL     1     -11.210  13.347  66.288  1.00  0.00    -0.322 A  
HETATM   15  C   UNL     1     -10.684  12.216  65.655  1.00  0.00    -0.312 A  
HETATM   16  C   UNL     1     -10.555  11.006  66.345  1.00  0.00    -0.251 A  
HETATM   17  C   UNL     1     -11.466  12.074  68.322  1.00  0.00    -0.361 A  
HETATM   18  C   UNL     1     -10.940  10.942  67.685  1.00  0.00    -0.350 A  
BRANCH  16  19
HETATM   19  O   UNL     1     -10.144   9.939  65.574  1.00  0.00    -0.303 OA 
BRANCH  19  20
HETATM   20  C   UNL     1      -9.537   8.848  66.151  1.00  0.00    -0.265 A  
HETATM   21  C   UNL     1      -8.161   8.946  66.386  1.00  0.00    -0.110 A  
HETATM   22  C   UNL     1      -7.479   7.904  67.022  1.00  0.00    -0.092 A  
HETATM   23  C   UNL     1      -8.185   6.761  67.422  1.00  0.00    -0.122 A  
HETATM   24  C   UNL     1      -9.571   6.677  67.221  1.00  0.00    -0.157 A  
HETATM   25  N   UNL     1      -7.475   5.650  68.061  1.00  0.00    -0.073 N  
HETATM   26  C   UNL     1     -10.244   7.731  66.605  1.00  0.00    -0.288 A  
HETATM   27  O   UNL     1      -6.265   5.788  68.283  1.00  0.00    -0.029 OA 
HETATM   28  O   UNL     1      -8.126   4.627  68.332  1.00  0.00    -0.083 OA 
ENDBRANCH  19  20
ENDBRANCH  16  19
ENDBRANCH  12  13
ENDBRANCH   6  12
ENDBRANCH   5   6
ENDBRANCH   4   5
ENDBRANCH   3   4
ENDBRANCH   2   3
TORSDOF 8
ENDMDL
MODEL       97
REMARK 921   NORMALIZED FREE ENERGY PREDICTED BY IDOCK:   -4.84 KCAL/MOL
REMARK 922        TOTAL FREE ENERGY PREDICTED BY IDOCK:   -8.03 KCAL/MOL
REMARK 923 INTER-LIGAND FREE ENERGY PREDICTED BY IDOCK:   -6.98 KCAL/MOL
REMARK 924 INTRA-LIGAND FREE ENERGY PREDICTED BY IDOCK:   -1.05 KCAL/MOL
REMARK 927      BINDING AFFINITY PREDICTED BY RF-SCORE:    0.00 PKD
ROOT
HETATM    1  C   UNL     1      -5.590  11.798  70.318  1.00  0.00    -0.143 C  
HETATM    2  C   UNL     1      -6.424  12.903  69.707  1.00  0.00    -0.003 C  
ENDROOT
BRANCH   2   3
HETATM    3  O   UNL     1      -7.267  12.399  68.663  1.00  0.00    -0.098 OA 
BRANCH   3   4
HETATM    4  C   UNL     1      -8.188  13.424  68.267  1.00  0.00    -0.160 C  
BRANCH   4   5
HETATM    5  C   UNL     1      -8.772  13.229  66.859  1.00  0.00    -0.142 C  
BRANCH   5   6
HETATM    6  N   UNL     1     -10.227  13.002  66.715  1.00  0.00    -0.243 N  
HETATM    7 CL   UNL     1     -12.938  14.446  64.964  1.00  0.00    -0.149 Cl 
HETATM    8  C   UNL     1     -10.703  12.991  65.377  1.00  0.00    -0.291 C  
HETATM    9  C   UNL     1     -12.212  12.829  65.128  1.00  0.00    -0.477 C  
HETATM   10 CL   UNL     1     -12.500  11.881  63.647  1.00  0.00    -0.614 Cl 
HETATM   11  O   UNL     1      -9.926  13.136  64.423  1.00  0.00    -0.258 OA 
BRANCH   6  12
HETATM   12  C   UNL     1     -11.164  13.257  67.832  1.00  0.00    -0.272 C  
BRANCH  12  13
HETATM   13  C   UNL     1     -11.472  12.135  68.793  1.00  0.00    -0.359 A  
HETATM   14  C   UNL     1     -12.124  12.381  70.010  1.00  0.00    -0.335 A  
HETATM   15  C   UNL     1     -12.276  11.358  70.952  1.00  0.00    -0.447 A  
HETATM   16  C   UNL     1     -11.814  10.065  70.683  1.00  0.00    -0.325 A  
HETATM   17  C   UNL     1     -11.064  10.822  68.506  1.00  0.00    -0.317 A  
HETATM   18  C   UNL     1     -11.216   9.799  69.451  1.00  0.00    -0.154 A  
BRANCH  16  19
HETATM   19  O   UNL     1     -11.909   9.183  71.739  1.00  0.00    -0.340 OA 
BRANCH  19  20
HETATM   20  C   UNL     1     -11.041   8.122  71.849  1.00  0.00    -0.285 A  
HETATM   21  C   UNL     1      -9.771   8.400  72.367  1.00  0.00    -0.376 A  
HETATM   22  C   UNL     1      -8.849   7.368  72.566  1.00  0.00    -0.159 A  
HETATM   23  C   UNL     1      -9.208   6.052  72.243  1.00  0.00    -0.144 A  
HETATM   24  C   UNL     1     -10.493   5.766  71.759  1.00  0.00    -0.281 A  
HETATM   25  N   UNL     1      -8.239   4.966  72.417  1.00  0.00    -0.117 N  
HETATM   26  C   UNL     1     -11.412   6.800  71.584  1.00  0.00    -0.322 A  
HETATM   27  O   UNL     1      -7.139   5.247  72.910  1.00  0.00    -0.083 OA 
HETATM   28  O   UNL     1      -8.574   3.828  72.049  1.00  0.00    -0.089 OA 
ENDBRANCH  19  20
ENDBRANCH  16  19
ENDBRANCH  12  13
ENDBRANCH   6  12
ENDBRANCH   5   6
ENDBRANCH   4   5
ENDBRANCH   3   4
ENDBRANCH   2   3
TORSDOF 8
ENDMDL
MODEL       98
REMARK 921   NORMALIZED FREE ENERGY PREDICTED BY IDOCK:   -4.83 KCAL/MOL
REMARK 922        TOTAL FREE ENERGY PREDICTED BY IDOCK:   -8.02 KCAL/MOL
REMARK 923 INTER-LIGAND FREE ENERGY PREDICTED BY IDOCK:   -6.81 KCAL/MOL
REMARK 924 INTRA-LIGAND FREE ENERGY PREDICTED BY IDOCK:   -1.22 KCAL/MOL
REMARK 927      BINDING AFFINITY PREDICTED BY RF-SCORE:    0.00 PKD
ROOT
HETATM    1  C   UNL     1      -5.660  14.009  71.303  1.00  0.00    -0.223 C  
HETATM    2  C   UNL     1      -6.283  14.997  70.340  1.00  0.00    -0.097 C  
ENDROOT
BRANCH   2   3
HETATM    3  O   UNL     1      -5.902  14.714  68.988  1.00  0.00    -0.087 OA 
BRANCH   3   4
HETATM    4  C   UNL     1      -5.404  15.912  68.379  1.00  0.00    -0.103 C  
BRANCH   4   5
HETATM    5  C   UNL     1      -6.154  17.185  68.799  1.00  0.00    -0.158 C  
BRANCH   5   6
HETATM    6  N   UNL     1      -7.156  17.761  67.876  1.00  0.00    -0.200 N  
HETATM    7 CL   UNL     1      -8.504  20.944  67.134  1.00  0.00    -0.222 Cl 
HETATM    8  C   UNL     1      -6.726  18.915  67.167  1.00  0.00    -0.201 C  
HETATM    9  C   UNL     1      -7.721  19.624  66.233  1.00  0.00    -0.315 C  
HETATM   10 CL   UNL     1      -6.876  20.280  64.808  1.00  0.00    -0.261 Cl 
HETATM   11  O   UNL     1      -5.581  19.362  67.314  1.00  0.00    -0.171 OA 
BRANCH   6  12
HETATM   12  C   UNL     1      -8.601  17.485  68.032  1.00  0.00    -0.250 C  
BRANCH  12  13
HETATM   13  C   UNL     1      -9.064  16.050  68.106  1.00  0.00    -0.187 A  
HETATM   14  C   UNL     1      -8.833  15.158  67.048  1.00  0.00    -0.258 A  
HETATM   15  C   UNL     1      -9.390  13.875  67.070  1.00  0.00    -0.255 A  
HETATM   16  C   UNL     1     -10.154  13.446  68.161  1.00  0.00    -0.244 A  
HETATM   17  C   UNL     1      -9.781  15.593  69.224  1.00  0.00    -0.271 A  
HETATM   18  C   UNL     1     -10.339  14.307  69.243  1.00  0.00    -0.072 A  
BRANCH  16  19
HETATM   19  O   UNL     1     -10.750  12.212  68.004  1.00  0.00    -0.200 OA 
BRANCH  19  20
HETATM   20  C   UNL     1     -10.970  11.394  69.087  1.00  0.00    -0.236 A  
HETATM   21  C   UNL     1     -12.216  11.506  69.715  1.00  0.00    -0.310 A  
HETATM   22  C   UNL     1     -12.542  10.670  70.787  1.00  0.00    -0.479 A  
HETATM   23  C   UNL     1     -11.611   9.719  71.227  1.00  0.00    -0.390 A  
HETATM   24  C   UNL     1     -10.377   9.579  70.575  1.00  0.00    -0.350 A  
HETATM   25  N   UNL     1     -11.930   8.858  72.370  1.00  0.00    -0.309 N  
HETATM   26  C   UNL     1     -10.070  10.404  69.493  1.00  0.00    -0.246 A  
HETATM   27  O   UNL     1     -13.054   8.963  72.877  1.00  0.00    -0.339 OA 
HETATM   28  O   UNL     1     -11.048   8.081  72.773  1.00  0.00    -0.373 OA 
ENDBRANCH  19  20
ENDBRANCH  16  19
ENDBRANCH  12  13
ENDBRANCH   6  12
ENDBRANCH   5   6
ENDBRANCH   4   5
ENDBRANCH   3   4
ENDBRANCH   2   3
TORSDOF 8
ENDMDL
MODEL       99
REMARK 921   NORMALIZED FREE ENERGY PREDICTED BY IDOCK:   -4.81 KCAL/MOL
REMARK 922        TOTAL FREE ENERGY PREDICTED BY IDOCK:   -7.99 KCAL/MOL
REMARK 923 INTER-LIGAND FREE ENERGY PREDICTED BY IDOCK:   -6.91 KCAL/MOL
REMARK 924 INTRA-LIGAND FREE ENERGY PREDICTED BY IDOCK:   -1.08 KCAL/MOL
REMARK 927      BINDING AFFINITY PREDICTED BY RF-SCORE:    0.00 PKD
ROOT
HETATM    1  C   UNL     1     -12.145  12.929  63.739  1.00  0.00    -0.583 C  
HETATM    2  C   UNL     1     -11.386  11.631  63.562  1.00  0.00    -0.354 C  
ENDROOT
BRANCH   2   3
HETATM    3  O   UNL     1      -9.974  11.834  63.693  1.00  0.00    -0.333 OA 
BRANCH   3   4
HETATM    4  C   UNL     1      -9.343  10.578  63.976  1.00  0.00    -0.267 C  
BRANCH   4   5
HETATM    5  C   UNL     1      -9.850   9.898  65.257  1.00  0.00    -0.303 C  
BRANCH   5   6
HETATM    6  N   UNL     1      -8.916   9.054  66.034  1.00  0.00    -0.172 N  
HETATM    7 CL   UNL     1      -8.575   7.911  69.363  1.00  0.00    -0.136 Cl 
HETATM    8  C   UNL     1      -9.535   8.065  66.845  1.00  0.00    -0.191 C  
HETATM    9  C   UNL     1      -8.650   7.182  67.741  1.00  0.00    -0.126 C  
HETATM   10 CL   UNL     1      -9.320   5.534  67.846  1.00  0.00    -0.112 Cl 
HETATM   11  O   UNL     1     -10.765   7.928  66.855  1.00  0.00    -0.333 OA 
BRANCH   6  12
HETATM   12  C   UNL     1      -7.536   9.498  66.332  1.00  0.00    -0.097 C  
BRANCH  12  13
HETATM   13  C   UNL     1      -7.332  10.828  67.015  1.00  0.00    -0.110 A  
HETATM   14  C   UNL     1      -8.336  11.396  67.812  1.00  0.00    -0.127 A  
HETATM   15  C   UNL     1      -8.188  12.691  68.321  1.00  0.00    -0.164 A  
HETATM   16  C   UNL     1      -7.023  13.427  68.076  1.00  0.00    -0.127 A  
HETATM   17  C   UNL     1      -6.141  11.548  66.822  1.00  0.00    -0.147 A  
HETATM   18  C   UNL     1      -5.996  12.846  67.332  1.00  0.00    -0.082 A  
BRANCH  16  19
HETATM   19  O   UNL     1      -7.055  14.730  68.524  1.00  0.00    -0.100 OA 
BRANCH  19  20
HETATM   20  C   UNL     1      -7.938  15.637  67.987  1.00  0.00    -0.132 A  
HETATM   21  C   UNL     1      -8.483  16.579  68.867  1.00  0.00    -0.235 A  
HETATM   22  C   UNL     1      -9.345  17.572  68.391  1.00  0.00    -0.287 A  
HETATM   23  C   UNL     1      -9.656  17.617  67.025  1.00  0.00    -0.276 A  
HETATM   24  C   UNL     1      -9.081  16.699  66.135  1.00  0.00    -0.318 A  
HETATM   25  N   UNL     1     -10.583  18.635  66.520  1.00  0.00    -0.397 N  
HETATM   26  C   UNL     1      -8.207  15.725  66.618  1.00  0.00    -0.305 A  
HETATM   27  O   UNL     1     -11.017  19.471  67.323  1.00  0.00    -0.499 OA 
HETATM   28  O   UNL     1     -10.888  18.592  65.316  1.00  0.00    -0.591 OA 
ENDBRANCH  19  20
ENDBRANCH  16  19
ENDBRANCH  12  13
ENDBRANCH   6  12
ENDBRANCH   5   6
ENDBRANCH   4   5
ENDBRANCH   3   4
ENDBRANCH   2   3
TORSDOF 8
ENDMDL
MODEL      100
REMARK 921   NORMALIZED FREE ENERGY PREDICTED BY IDOCK:   -4.81 KCAL/MOL
REMARK 922        TOTAL FREE ENERGY PREDICTED BY IDOCK:   -7.99 KCAL/MOL
REMARK 923 INTER-LIGAND FREE ENERGY PREDICTED BY IDOCK:   -7.02 KCAL/MOL
REMARK 924 INTRA-LIGAND FREE ENERGY PREDICTED BY IDOCK:   -0.97 KCAL/MOL
REMARK 927      BINDING AFFINITY PREDICTED BY RF-SCORE:    0.00 PKD
ROOT
HETATM    1  C   UNL     1      -9.218   3.204  69.298  1.00  0.00    -0.218 C  
HETATM    2  C   UNL     1      -9.798   4.203  70.276  1.00  0.00    -0.169 C  
ENDROOT
BRANCH   2   3
HETATM    3  O   UNL     1      -9.625   5.546  69.808  1.00  0.00    -0.147 OA 
BRANCH   3   4
HETATM    4  C   UNL     1     -10.912   6.131  69.570  1.00  0.00    -0.393 C  
BRANCH   4   5
HETATM    5  C   UNL     1     -11.112   6.638  68.134  1.00  0.00    -0.198 C  
BRANCH   5   6
HETATM    6  N   UNL     1      -9.932   6.767  67.251  1.00  0.00    -0.145 N  
HETATM    7 CL   UNL     1      -7.083   4.854  66.397  1.00  0.00    -0.070 Cl 
HETATM    8  C   UNL     1      -9.667   5.635  66.435  1.00  0.00    -0.156 C  
HETATM    9  C   UNL     1      -8.421   5.648  65.532  1.00  0.00    -0.146 C  
HETATM   10 CL   UNL     1      -8.751   4.790  64.005  1.00  0.00    -0.144 Cl 
HETATM   11  O   UNL     1     -10.405   4.642  66.464  1.00  0.00    -0.252 OA 
BRANCH   6  12
HETATM   12  C   UNL     1      -8.857   7.743  67.535  1.00  0.00    -0.124 C  
BRANCH  12  13
HETATM   13  C   UNL     1      -9.164   9.217  67.423  1.00  0.00    -0.150 A  
HETATM   14  C   UNL     1      -8.709  10.127  68.388  1.00  0.00    -0.123 A  
HETATM   15  C   UNL     1      -9.119  11.464  68.349  1.00  0.00    -0.179 A  
HETATM   16  C   UNL     1      -9.959  11.925  67.329  1.00  0.00    -0.186 A  
HETATM   17  C   UNL     1      -9.958   9.698  66.370  1.00  0.00    -0.323 A  
HETATM   18  C   UNL     1     -10.369  11.037  66.333  1.00  0.00    -0.302 A  
BRANCH  16  19
HETATM   19  O   UNL     1     -10.391  13.226  67.475  1.00  0.00    -0.226 OA 
BRANCH  19  20
HETATM   20  C   UNL     1     -10.867  13.677  68.684  1.00  0.00    -0.263 A  
HETATM   21  C   UNL     1     -10.388  14.917  69.124  1.00  0.00    -0.246 A  
HETATM   22  C   UNL     1     -10.865  15.475  70.314  1.00  0.00    -0.358 A  
HETATM   23  C   UNL     1     -11.828  14.782  71.062  1.00  0.00    -0.329 A  
HETATM   24  C   UNL     1     -12.337  13.559  70.603  1.00  0.00    -0.432 A  
HETATM   25  N   UNL     1     -12.312  15.343  72.327  1.00  0.00    -0.349 N  
HETATM   26  C   UNL     1     -11.869  13.021  69.405  1.00  0.00    -0.380 A  
HETATM   27  O   UNL     1     -11.891  16.456  72.665  1.00  0.00    -0.533 OA 
HETATM   28  O   UNL     1     -13.109  14.661  72.993  1.00  0.00    -0.476 OA 
ENDBRANCH  19  20
ENDBRANCH  16  19
ENDBRANCH  12  13
ENDBRANCH   6  12
ENDBRANCH   5   6
ENDBRANCH   4   5
ENDBRANCH   3   4
ENDBRANCH   2   3
TORSDOF 8
ENDMDL
MODEL      101
REMARK 921   NORMALIZED FREE ENERGY PREDICTED BY IDOCK:   -4.78 KCAL/MOL
REMARK 922        TOTAL FREE ENERGY PREDICTED BY IDOCK:   -7.95 KCAL/MOL
REMARK 923 INTER-LIGAND FREE ENERGY PREDICTED BY IDOCK:   -7.29 KCAL/MOL
REMARK 924 INTRA-LIGAND FREE ENERGY PREDICTED BY IDOCK:   -0.66 KCAL/MOL
REMARK 927      BINDING AFFINITY PREDICTED BY RF-SCORE:    0.00 PKD
ROOT
HETATM    1  C   UNL     1     -14.411  15.220  72.136  1.00  0.00    -0.651 C  
HETATM    2  C   UNL     1     -13.286  14.304  72.569  1.00  0.00    -0.490 C  
ENDROOT
BRANCH   2   3
HETATM    3  O   UNL     1     -12.036  14.714  72.000  1.00  0.00    -0.334 OA 
BRANCH   3   4
HETATM    4  C   UNL     1     -12.289  15.526  70.847  1.00  0.00    -0.422 C  
BRANCH   4   5
HETATM    5  C   UNL     1     -11.211  15.416  69.757  1.00  0.00    -0.288 C  
BRANCH   5   6
HETATM    6  N   UNL     1     -11.351  14.372  68.717  1.00  0.00    -0.257 N  
HETATM    7 CL   UNL     1     -12.795  14.057  65.506  1.00  0.00    -0.534 Cl 
HETATM    8  C   UNL     1     -11.019  14.789  67.401  1.00  0.00    -0.313 C  
HETATM    9  C   UNL     1     -11.197  13.793  66.241  1.00  0.00    -0.306 C  
HETATM   10 CL   UNL     1      -9.920  14.027  65.020  1.00  0.00    -0.302 Cl 
HETATM   11  O   UNL     1     -10.618  15.939  67.179  1.00  0.00    -0.310 OA 
BRANCH   6  12
HETATM   12  C   UNL     1     -12.210  13.185  68.923  1.00  0.00    -0.060 C  
BRANCH  12  13
HETATM   13  C   UNL     1     -11.584  11.917  69.450  1.00  0.00    -0.388 A  
HETATM   14  C   UNL     1     -12.145  11.228  70.537  1.00  0.00    -0.481 A  
HETATM   15  C   UNL     1     -11.478  10.137  71.103  1.00  0.00    -0.387 A  
HETATM   16  C   UNL     1     -10.262   9.690  70.575  1.00  0.00    -0.287 A  
HETATM   17  C   UNL     1     -10.394  11.427  68.889  1.00  0.00    -0.203 A  
HETATM   18  C   UNL     1      -9.727  10.334  69.459  1.00  0.00    -0.235 A  
BRANCH  16  19
HETATM   19  O   UNL     1      -9.646   8.691  71.300  1.00  0.00    -0.182 OA 
BRANCH  19  20
HETATM   20  C   UNL     1      -8.999   7.658  70.663  1.00  0.00    -0.153 A  
HETATM   21  C   UNL     1      -9.349   7.425  69.328  1.00  0.00    -0.154 A  
HETATM   22  C   UNL     1      -8.697   6.432  68.591  1.00  0.00    -0.122 A  
HETATM   23  C   UNL     1      -7.689   5.672  69.201  1.00  0.00    -0.088 A  
HETATM   24  C   UNL     1      -7.310   5.929  70.527  1.00  0.00    -0.085 A  
HETATM   25  N   UNL     1      -7.020   4.607  68.448  1.00  0.00    -0.055 N  
HETATM   26  C   UNL     1      -7.953   6.936  71.246  1.00  0.00    -0.108 A  
HETATM   27  O   UNL     1      -7.333   4.454  67.260  1.00  0.00    -0.071 OA 
HETATM   28  O   UNL     1      -6.185   3.910  69.049  1.00  0.00    -0.027 OA 
ENDBRANCH  19  20
ENDBRANCH  16  19
ENDBRANCH  12  13
ENDBRANCH   6  12
ENDBRANCH   5   6
ENDBRANCH   4   5
ENDBRANCH   3   4
ENDBRANCH   2   3
TORSDOF 8
ENDMDL
MODEL      102
REMARK 921   NORMALIZED FREE ENERGY PREDICTED BY IDOCK:   -4.77 KCAL/MOL
REMARK 922        TOTAL FREE ENERGY PREDICTED BY IDOCK:   -7.93 KCAL/MOL
REMARK 923 INTER-LIGAND FREE ENERGY PREDICTED BY IDOCK:   -6.90 KCAL/MOL
REMARK 924 INTRA-LIGAND FREE ENERGY PREDICTED BY IDOCK:   -1.03 KCAL/MOL
REMARK 927      BINDING AFFINITY PREDICTED BY RF-SCORE:    0.00 PKD
ROOT
HETATM    1  C   UNL     1      -6.432  13.055  67.683  1.00  0.00    -0.162 C  
HETATM    2  C   UNL     1      -6.295  14.415  68.335  1.00  0.00    -0.101 C  
ENDROOT
BRANCH   2   3
HETATM    3  O   UNL     1      -5.723  15.367  67.430  1.00  0.00    -0.327 OA 
BRANCH   3   4
HETATM    4  C   UNL     1      -6.238  16.670  67.733  1.00  0.00    -0.141 C  
BRANCH   4   5
HETATM    5  C   UNL     1      -6.982  17.335  66.564  1.00  0.00    -0.263 C  
BRANCH   5   6
HETATM    6  N   UNL     1      -8.441  17.554  66.678  1.00  0.00    -0.247 N  
HETATM    7 CL   UNL     1     -10.625  19.899  68.171  1.00  0.00    -0.463 Cl 
HETATM    8  C   UNL     1      -8.873  18.876  66.391  1.00  0.00    -0.306 C  
HETATM    9  C   UNL     1     -10.365  19.218  66.547  1.00  0.00    -0.450 C  
HETATM   10 CL   UNL     1     -10.866  20.396  65.307  1.00  0.00     0.009 Cl 
HETATM   11  O   UNL     1      -8.066  19.750  66.047  1.00  0.00    -0.345 OA 
BRANCH   6  12
HETATM   12  C   UNL     1      -9.298  16.652  67.479  1.00  0.00    -0.219 C  
BRANCH  12  13
HETATM   13  C   UNL     1      -9.905  15.442  66.811  1.00  0.00    -0.255 A  
HETATM   14  C   UNL     1     -10.230  14.294  67.548  1.00  0.00    -0.240 A  
HETATM   15  C   UNL     1     -10.657  13.132  66.896  1.00  0.00    -0.265 A  
HETATM   16  C   UNL     1     -10.804  13.106  65.505  1.00  0.00    -0.283 A  
HETATM   17  C   UNL     1     -10.110  15.428  65.421  1.00  0.00    -0.394 A  
HETATM   18  C   UNL     1     -10.538  14.262  64.771  1.00  0.00    -0.434 A  
BRANCH  16  19
HETATM   19  O   UNL     1     -11.108  11.869  64.976  1.00  0.00    -0.304 OA 
BRANCH  19  20
HETATM   20  C   UNL     1     -10.352  10.764  65.291  1.00  0.00    -0.258 A  
HETATM   21  C   UNL     1      -9.400  10.365  64.346  1.00  0.00    -0.321 A  
HETATM   22  C   UNL     1      -8.550   9.287  64.613  1.00  0.00    -0.209 A  
HETATM   23  C   UNL     1      -8.660   8.611  65.836  1.00  0.00    -0.157 A  
HETATM   24  C   UNL     1      -9.587   9.033  66.800  1.00  0.00    -0.259 A  
HETATM   25  N   UNL     1      -7.796   7.460  66.115  1.00  0.00    -0.103 N  
HETATM   26  C   UNL     1     -10.415  10.122  66.531  1.00  0.00    -0.236 A  
HETATM   27  O   UNL     1      -6.944   7.158  65.269  1.00  0.00    -0.053 OA 
HETATM   28  O   UNL     1      -7.977   6.845  67.179  1.00  0.00    -0.110 OA 
ENDBRANCH  19  20
ENDBRANCH  16  19
ENDBRANCH  12  13
ENDBRANCH   6  12
ENDBRANCH   5   6
ENDBRANCH   4   5
ENDBRANCH   3   4
ENDBRANCH   2   3
TORSDOF 8
ENDMDL
MODEL      103
REMARK 921   NORMALIZED FREE ENERGY PREDICTED BY IDOCK:   -4.73 KCAL/MOL
REMARK 922        TOTAL FREE ENERGY PREDICTED BY IDOCK:   -7.87 KCAL/MOL
REMARK 923 INTER-LIGAND FREE ENERGY PREDICTED BY IDOCK:   -6.93 KCAL/MOL
REMARK 924 INTRA-LIGAND FREE ENERGY PREDICTED BY IDOCK:   -0.94 KCAL/MOL
REMARK 927      BINDING AFFINITY PREDICTED BY RF-SCORE:    0.00 PKD
ROOT
HETATM    1  C   UNL     1      -8.061   6.733  74.499  1.00  0.00    -0.149 C  
HETATM    2  C   UNL     1      -8.952   6.371  73.330  1.00  0.00    -0.124 C  
ENDROOT
BRANCH   2   3
HETATM    3  O   UNL     1      -9.390   7.541  72.630  1.00  0.00    -0.142 OA 
BRANCH   3   4
HETATM    4  C   UNL     1      -8.244   8.298  72.218  1.00  0.00    -0.155 C  
BRANCH   4   5
HETATM    5  C   UNL     1      -8.415   9.002  70.864  1.00  0.00    -0.208 C  
BRANCH   5   6
HETATM    6  N   UNL     1      -9.614   8.704  70.049  1.00  0.00    -0.167 N  
HETATM    7 CL   UNL     1     -10.407   8.236  66.636  1.00  0.00    -0.356 Cl 
HETATM    8  C   UNL     1      -9.446   7.667  69.092  1.00  0.00    -0.154 C  
HETATM    9  C   UNL     1     -10.616   7.330  68.153  1.00  0.00    -0.177 C  
HETATM   10 CL   UNL     1     -10.657   5.581  67.815  1.00  0.00    -0.253 Cl 
HETATM   11  O   UNL     1      -8.372   7.060  68.993  1.00  0.00    -0.124 OA 
BRANCH   6  12
HETATM   12  C   UNL     1     -10.705   9.690  69.889  1.00  0.00    -0.252 C  
BRANCH  12  13
HETATM   13  C   UNL     1     -10.560  10.772  68.846  1.00  0.00    -0.246 A  
HETATM   14  C   UNL     1      -9.295  11.239  68.456  1.00  0.00    -0.182 A  
HETATM   15  C   UNL     1      -9.181  12.336  67.598  1.00  0.00    -0.183 A  
HETATM   16  C   UNL     1     -10.320  12.965  67.084  1.00  0.00    -0.238 A  
HETATM   17  C   UNL     1     -11.698  11.369  68.281  1.00  0.00    -0.359 A  
HETATM   18  C   UNL     1     -11.580  12.470  67.421  1.00  0.00    -0.434 A  
BRANCH  16  19
HETATM   19  O   UNL     1     -10.074  14.109  66.354  1.00  0.00    -0.276 OA 
BRANCH  19  20
HETATM   20  C   UNL     1      -9.877  15.316  66.984  1.00  0.00    -0.229 A  
HETATM   21  C   UNL     1      -8.573  15.823  66.975  1.00  0.00    -0.247 A  
HETATM   22  C   UNL     1      -8.298  17.071  67.542  1.00  0.00    -0.199 A  
HETATM   23  C   UNL     1      -9.341  17.810  68.118  1.00  0.00    -0.281 A  
HETATM   24  C   UNL     1     -10.655  17.321  68.094  1.00  0.00    -0.386 A  
HETATM   25  N   UNL     1      -9.060  19.106  68.743  1.00  0.00    -0.368 N  
HETATM   26  C   UNL     1     -10.921  16.084  67.507  1.00  0.00    -0.261 A  
HETATM   27  O   UNL     1      -7.901  19.537  68.685  1.00  0.00    -0.344 OA 
HETATM   28  O   UNL     1     -10.000  19.692  69.306  1.00  0.00    -0.436 OA 
ENDBRANCH  19  20
ENDBRANCH  16  19
ENDBRANCH  12  13
ENDBRANCH   6  12
ENDBRANCH   5   6
ENDBRANCH   4   5
ENDBRANCH   3   4
ENDBRANCH   2   3
TORSDOF 8
ENDMDL
MODEL      104
REMARK 921   NORMALIZED FREE ENERGY PREDICTED BY IDOCK:   -4.68 KCAL/MOL
REMARK 922        TOTAL FREE ENERGY PREDICTED BY IDOCK:   -7.81 KCAL/MOL
REMARK 923 INTER-LIGAND FREE ENERGY PREDICTED BY IDOCK:   -6.67 KCAL/MOL
REMARK 924 INTRA-LIGAND FREE ENERGY PREDICTED BY IDOCK:   -1.13 KCAL/MOL
REMARK 927      BINDING AFFINITY PREDICTED BY RF-SCORE:    0.00 PKD
ROOT
HETATM    1  C   UNL     1      -9.517   5.618  66.723  1.00  0.00    -0.150 C  
HETATM    2  C   UNL     1      -9.588   4.229  67.321  1.00  0.00    -0.189 C  
ENDROOT
BRANCH   2   3
HETATM    3  O   UNL     1      -9.989   4.277  68.696  1.00  0.00    -0.093 OA 
BRANCH   3   4
HETATM    4  C   UNL     1      -9.333   3.224  69.413  1.00  0.00    -0.161 C  
BRANCH   4   5
HETATM    5  C   UNL     1      -8.437   3.714  70.562  1.00  0.00    -0.068 C  
BRANCH   5   6
HETATM    6  N   UNL     1      -8.077   5.147  70.625  1.00  0.00    -0.103 N  
HETATM    7 CL   UNL     1      -5.152   7.095  71.013  1.00  0.00    -0.023 Cl 
HETATM    8  C   UNL     1      -6.984   5.528  69.801  1.00  0.00    -0.062 C  
HETATM    9  C   UNL     1      -6.492   6.985  69.848  1.00  0.00    -0.039 C  
HETATM   10 CL   UNL     1      -5.941   7.507  68.236  1.00  0.00    -0.034 Cl 
HETATM   11  O   UNL     1      -6.416   4.702  69.075  1.00  0.00    -0.037 OA 
BRANCH   6  12
HETATM   12  C   UNL     1      -8.467   5.994  71.774  1.00  0.00    -0.127 C  
BRANCH  12  13
HETATM   13  C   UNL     1      -9.611   6.965  71.607  1.00  0.00    -0.161 A  
HETATM   14  C   UNL     1     -10.866   6.535  71.151  1.00  0.00    -0.296 A  
HETATM   15  C   UNL     1     -11.871   7.465  70.867  1.00  0.00    -0.320 A  
HETATM   16  C   UNL     1     -11.658   8.833  71.067  1.00  0.00    -0.288 A  
HETATM   17  C   UNL     1      -9.423   8.333  71.862  1.00  0.00    -0.287 A  
HETATM   18  C   UNL     1     -10.431   9.262  71.575  1.00  0.00    -0.385 A  
BRANCH  16  19
HETATM   19  O   UNL     1     -12.678   9.651  70.630  1.00  0.00    -0.173 OA 
BRANCH  19  20
HETATM   20  C   UNL     1     -12.667  10.998  70.907  1.00  0.00    -0.358 A  
HETATM   21  C   UNL     1     -11.983  11.819  70.003  1.00  0.00    -0.421 A  
HETATM   22  C   UNL     1     -11.973  13.206  70.179  1.00  0.00    -0.381 A  
HETATM   23  C   UNL     1     -12.655  13.767  71.269  1.00  0.00    -0.362 A  
HETATM   24  C   UNL     1     -13.373  12.950  72.153  1.00  0.00    -0.615 A  
HETATM   25  N   UNL     1     -12.625  15.217  71.481  1.00  0.00    -0.340 N  
HETATM   26  C   UNL     1     -13.393  11.569  71.956  1.00  0.00    -0.397 A  
HETATM   27  O   UNL     1     -12.038  15.913  70.642  1.00  0.00    -0.382 OA 
HETATM   28  O   UNL     1     -13.180  15.664  72.499  1.00  0.00    -0.423 OA 
ENDBRANCH  19  20
ENDBRANCH  16  19
ENDBRANCH  12  13
ENDBRANCH   6  12
ENDBRANCH   5   6
ENDBRANCH   4   5
ENDBRANCH   3   4
ENDBRANCH   2   3
TORSDOF 8
ENDMDL
MODEL      105
REMARK 921   NORMALIZED FREE ENERGY PREDICTED BY IDOCK:   -4.67 KCAL/MOL
REMARK 922        TOTAL FREE ENERGY PREDICTED BY IDOCK:   -7.79 KCAL/MOL
REMARK 923 INTER-LIGAND FREE ENERGY PREDICTED BY IDOCK:   -6.98 KCAL/MOL
REMARK 924 INTRA-LIGAND FREE ENERGY PREDICTED BY IDOCK:   -0.81 KCAL/MOL
REMARK 927      BINDING AFFINITY PREDICTED BY RF-SCORE:    0.00 PKD
ROOT
HETATM    1  C   UNL     1     -14.406   8.153  71.697  1.00  0.00    -0.570 C  
HETATM    2  C   UNL     1     -12.995   8.457  72.155  1.00  0.00    -0.337 C  
ENDROOT
BRANCH   2   3
HETATM    3  O   UNL     1     -12.106   7.377  71.845  1.00  0.00    -0.290 OA 
BRANCH   3   4
HETATM    4  C   UNL     1     -10.841   7.912  71.437  1.00  0.00    -0.226 C  
BRANCH   4   5
HETATM    5  C   UNL     1      -9.778   6.844  71.138  1.00  0.00    -0.173 C  
BRANCH   5   6
HETATM    6  N   UNL     1      -9.183   6.789  69.784  1.00  0.00    -0.147 N  
HETATM    7 CL   UNL     1      -7.939   4.326  67.573  1.00  0.00    -0.092 Cl 
HETATM    8  C   UNL     1      -9.745   5.810  68.921  1.00  0.00    -0.136 C  
HETATM    9  C   UNL     1      -9.148   5.631  67.515  1.00  0.00    -0.106 C  
HETATM   10 CL   UNL     1     -10.427   5.222  66.344  1.00  0.00    -0.331 Cl 
HETATM   11  O   UNL     1     -10.682   5.093  69.297  1.00  0.00    -0.141 OA 
BRANCH   6  12
HETATM   12  C   UNL     1      -7.834   7.330  69.509  1.00  0.00    -0.118 C  
BRANCH  12  13
HETATM   13  C   UNL     1      -7.707   8.745  68.998  1.00  0.00    -0.091 A  
HETATM   14  C   UNL     1      -8.477   9.784  69.542  1.00  0.00    -0.176 A  
HETATM   15  C   UNL     1      -8.454  11.058  68.966  1.00  0.00    -0.082 A  
HETATM   16  C   UNL     1      -7.637  11.329  67.862  1.00  0.00    -0.100 A  
HETATM   17  C   UNL     1      -6.846   9.038  67.928  1.00  0.00    -0.070 A  
HETATM   18  C   UNL     1      -6.826  10.315  67.352  1.00  0.00    -0.077 A  
BRANCH  16  19
HETATM   19  O   UNL     1      -7.801  12.583  67.312  1.00  0.00    -0.165 OA 
BRANCH  19  20
HETATM   20  C   UNL     1      -8.863  12.853  66.481  1.00  0.00    -0.016 A  
HETATM   21  C   UNL     1      -9.473  11.754  65.865  1.00  0.00    -0.239 A  
HETATM   22  C   UNL     1     -10.596  11.936  65.051  1.00  0.00    -0.335 A  
HETATM   23  C   UNL     1     -11.105  13.228  64.859  1.00  0.00    -0.328 A  
HETATM   24  C   UNL     1     -10.519  14.325  65.507  1.00  0.00    -0.361 A  
HETATM   25  N   UNL     1     -12.263  13.434  63.984  1.00  0.00    -0.421 N  
HETATM   26  C   UNL     1      -9.412  14.129  66.332  1.00  0.00    -0.289 A  
HETATM   27  O   UNL     1     -12.795  12.435  63.484  1.00  0.00    -0.749 OA 
HETATM   28  O   UNL     1     -12.635  14.602  63.783  1.00  0.00    -0.820 OA 
ENDBRANCH  19  20
ENDBRANCH  16  19
ENDBRANCH  12  13
ENDBRANCH   6  12
ENDBRANCH   5   6
ENDBRANCH   4   5
ENDBRANCH   3   4
ENDBRANCH   2   3
TORSDOF 8
ENDMDL
MODEL      106
REMARK 921   NORMALIZED FREE ENERGY PREDICTED BY IDOCK:   -4.67 KCAL/MOL
REMARK 922        TOTAL FREE ENERGY PREDICTED BY IDOCK:   -7.78 KCAL/MOL
REMARK 923 INTER-LIGAND FREE ENERGY PREDICTED BY IDOCK:   -6.86 KCAL/MOL
REMARK 924 INTRA-LIGAND FREE ENERGY PREDICTED BY IDOCK:   -0.93 KCAL/MOL
REMARK 927      BINDING AFFINITY PREDICTED BY RF-SCORE:    0.00 PKD
ROOT
HETATM    1  C   UNL     1     -12.393  16.064  73.150  1.00  0.00    -0.637 C  
HETATM    2  C   UNL     1     -13.153  14.759  73.045  1.00  0.00    -0.513 C  
ENDROOT
BRANCH   2   3
HETATM    3  O   UNL     1     -13.589  14.521  71.701  1.00  0.00    -0.347 OA 
BRANCH   3   4
HETATM    4  C   UNL     1     -12.706  13.578  71.081  1.00  0.00    -0.344 C  
BRANCH   4   5
HETATM    5  C   UNL     1     -11.758  14.199  70.043  1.00  0.00    -0.291 C  
BRANCH   5   6
HETATM    6  N   UNL     1     -11.609  13.538  68.727  1.00  0.00    -0.300 N  
HETATM    7 CL   UNL     1     -12.904  13.903  65.457  1.00  0.00    -0.537 Cl 
HETATM    8  C   UNL     1     -11.395  14.420  67.634  1.00  0.00    -0.329 C  
HETATM    9  C   UNL     1     -11.296  13.832  66.216  1.00  0.00    -0.321 C  
HETATM   10 CL   UNL     1     -10.123  14.755  65.241  1.00  0.00    -0.402 Cl 
HETATM   11  O   UNL     1     -11.316  15.643  67.809  1.00  0.00    -0.326 OA 
BRANCH   6  12
HETATM   12  C   UNL     1     -12.120  12.171  68.485  1.00  0.00    -0.057 C  
BRANCH  12  13
HETATM   13  C   UNL     1     -11.147  11.017  68.500  1.00  0.00    -0.297 A  
HETATM   14  C   UNL     1     -10.325  10.776  69.611  1.00  0.00    -0.142 A  
HETATM   15  C   UNL     1      -9.331   9.794  69.555  1.00  0.00    -0.226 A  
HETATM   16  C   UNL     1      -9.163   9.010  68.408  1.00  0.00    -0.136 A  
HETATM   17  C   UNL     1     -11.013  10.188  67.374  1.00  0.00    -0.295 A  
HETATM   18  C   UNL     1     -10.015   9.205  67.321  1.00  0.00    -0.270 A  
BRANCH  16  19
HETATM   19  O   UNL     1      -8.071   8.169  68.434  1.00  0.00    -0.124 OA 
BRANCH  19  20
HETATM   20  C   UNL     1      -8.211   6.827  68.166  1.00  0.00    -0.114 A  
HETATM   21  C   UNL     1      -7.131   6.197  67.535  1.00  0.00    -0.074 A  
HETATM   22  C   UNL     1      -7.168   4.824  67.280  1.00  0.00    -0.073 A  
HETATM   23  C   UNL     1      -8.295   4.082  67.662  1.00  0.00    -0.094 A  
HETATM   24  C   UNL     1      -9.361   4.704  68.328  1.00  0.00    -0.182 A  
HETATM   25  N   UNL     1      -8.358   2.646  67.371  1.00  0.00    -0.082 N  
HETATM   26  C   UNL     1      -9.305   6.071  68.596  1.00  0.00    -0.121 A  
HETATM   27  O   UNL     1      -7.371   2.119  66.843  1.00  0.00    -0.058 OA 
HETATM   28  O   UNL     1      -9.406   2.044  67.660  1.00  0.00    -0.164 OA 
ENDBRANCH  19  20
ENDBRANCH  16  19
ENDBRANCH  12  13
ENDBRANCH   6  12
ENDBRANCH   5   6
ENDBRANCH   4   5
ENDBRANCH   3   4
ENDBRANCH   2   3
TORSDOF 8
ENDMDL
MODEL      107
REMARK 921   NORMALIZED FREE ENERGY PREDICTED BY IDOCK:   -4.67 KCAL/MOL
REMARK 922        TOTAL FREE ENERGY PREDICTED BY IDOCK:   -7.78 KCAL/MOL
REMARK 923 INTER-LIGAND FREE ENERGY PREDICTED BY IDOCK:   -6.85 KCAL/MOL
REMARK 924 INTRA-LIGAND FREE ENERGY PREDICTED BY IDOCK:   -0.93 KCAL/MOL
REMARK 927      BINDING AFFINITY PREDICTED BY RF-SCORE:    0.00 PKD
ROOT
HETATM    1  C   UNL     1      -9.334  16.880  66.119  1.00  0.00    -0.268 C  
HETATM    2  C   UNL     1     -10.717  16.472  65.658  1.00  0.00    -0.248 C  
ENDROOT
BRANCH   2   3
HETATM    3  O   UNL     1     -10.648  15.519  64.590  1.00  0.00    -0.365 OA 
BRANCH   3   4
HETATM    4  C   UNL     1     -11.913  14.858  64.467  1.00  0.00    -0.410 C  
BRANCH   4   5
HETATM    5  C   UNL     1     -11.892  13.384  64.898  1.00  0.00    -0.372 C  
BRANCH   5   6
HETATM    6  N   UNL     1     -11.105  13.000  66.091  1.00  0.00    -0.283 N  
HETATM    7 CL   UNL     1      -9.755  14.578  68.952  1.00  0.00    -0.200 Cl 
HETATM    8  C   UNL     1     -11.611  13.486  67.326  1.00  0.00    -0.362 C  
HETATM    9  C   UNL     1     -10.824  13.196  68.615  1.00  0.00    -0.259 C  
HETATM   10 CL   UNL     1     -11.941  12.944  69.981  1.00  0.00    -0.410 Cl 
HETATM   11  O   UNL     1     -12.652  14.155  67.368  1.00  0.00    -0.066 OA 
BRANCH   6  12
HETATM   12  C   UNL     1      -9.688  12.587  65.983  1.00  0.00    -0.241 C  
BRANCH  12  13
HETATM   13  C   UNL     1      -9.320  11.158  66.298  1.00  0.00    -0.216 A  
HETATM   14  C   UNL     1     -10.005  10.085  65.707  1.00  0.00    -0.346 A  
HETATM   15  C   UNL     1      -9.749   8.772  66.115  1.00  0.00    -0.320 A  
HETATM   16  C   UNL     1      -8.783   8.501  67.090  1.00  0.00    -0.129 A  
HETATM   17  C   UNL     1      -8.311  10.875  67.233  1.00  0.00    -0.123 A  
HETATM   18  C   UNL     1      -8.058   9.558  67.641  1.00  0.00    -0.110 A  
BRANCH  16  19
HETATM   19  O   UNL     1      -8.718   7.184  67.493  1.00  0.00    -0.121 OA 
BRANCH  19  20
HETATM   20  C   UNL     1      -9.309   6.778  68.667  1.00  0.00    -0.131 A  
HETATM   21  C   UNL     1      -8.458   6.561  69.756  1.00  0.00    -0.131 A  
HETATM   22  C   UNL     1      -8.984   6.202  71.001  1.00  0.00    -0.144 A  
HETATM   23  C   UNL     1     -10.371   6.063  71.148  1.00  0.00    -0.214 A  
HETATM   24  C   UNL     1     -11.228   6.317  70.068  1.00  0.00    -0.480 A  
HETATM   25  N   UNL     1     -10.932   5.657  72.441  1.00  0.00    -0.247 N  
HETATM   26  C   UNL     1     -10.694   6.694  68.836  1.00  0.00    -0.304 A  
HETATM   27  O   UNL     1     -10.150   5.507  73.389  1.00  0.00    -0.169 OA 
HETATM   28  O   UNL     1     -12.159   5.473  72.506  1.00  0.00    -0.183 OA 
ENDBRANCH  19  20
ENDBRANCH  16  19
ENDBRANCH  12  13
ENDBRANCH   6  12
ENDBRANCH   5   6
ENDBRANCH   4   5
ENDBRANCH   3   4
ENDBRANCH   2   3
TORSDOF 8
ENDMDL
MODEL      108
REMARK 921   NORMALIZED FREE ENERGY PREDICTED BY IDOCK:   -4.61 KCAL/MOL
REMARK 922        TOTAL FREE ENERGY PREDICTED BY IDOCK:   -7.69 KCAL/MOL
REMARK 923 INTER-LIGAND FREE ENERGY PREDICTED BY IDOCK:   -6.63 KCAL/MOL
REMARK 924 INTRA-LIGAND FREE ENERGY PREDICTED BY IDOCK:   -1.06 KCAL/MOL
REMARK 927      BINDING AFFINITY PREDICTED BY RF-SCORE:    0.00 PKD
ROOT
HETATM    1  C   UNL     1      -7.916   2.740  71.587  1.00  0.00    -0.056 C  
HETATM    2  C   UNL     1      -9.331   3.097  71.183  1.00  0.00    -0.141 C  
ENDROOT
BRANCH   2   3
HETATM    3  O   UNL     1      -9.578   2.762  69.812  1.00  0.00    -0.119 OA 
BRANCH   3   4
HETATM    4  C   UNL     1      -9.072   3.809  68.975  1.00  0.00    -0.138 C  
BRANCH   4   5
HETATM    5  C   UNL     1      -9.974   5.052  68.914  1.00  0.00    -0.166 C  
BRANCH   5   6
HETATM    6  N   UNL     1      -9.578   6.259  69.672  1.00  0.00    -0.145 N  
HETATM    7 CL   UNL     1     -10.984   9.389  70.526  1.00  0.00    -0.304 Cl 
HETATM    8  C   UNL     1     -10.544   6.727  70.602  1.00  0.00    -0.224 C  
HETATM    9  C   UNL     1     -10.251   8.016  71.389  1.00  0.00    -0.196 C  
HETATM   10 CL   UNL     1     -10.925   7.905  73.036  1.00  0.00    -0.446 Cl 
HETATM   11  O   UNL     1     -11.616   6.129  70.762  1.00  0.00    -0.316 OA 
BRANCH   6  12
HETATM   12  C   UNL     1      -8.524   7.172  69.177  1.00  0.00    -0.133 C  
BRANCH  12  13
HETATM   13  C   UNL     1      -8.891   8.221  68.156  1.00  0.00    -0.139 A  
HETATM   14  C   UNL     1      -8.218   9.451  68.105  1.00  0.00    -0.118 A  
HETATM   15  C   UNL     1      -8.661  10.466  67.251  1.00  0.00    -0.125 A  
HETATM   16  C   UNL     1      -9.757  10.261  66.406  1.00  0.00    -0.201 A  
HETATM   17  C   UNL     1      -9.953   8.002  67.263  1.00  0.00    -0.282 A  
HETATM   18  C   UNL     1     -10.396   9.020  66.409  1.00  0.00    -0.219 A  
BRANCH  16  19
HETATM   19  O   UNL     1     -10.170  11.377  65.709  1.00  0.00    -0.231 OA 
BRANCH  19  20
HETATM   20  C   UNL     1     -10.509  12.534  66.370  1.00  0.00    -0.247 A  
HETATM   21  C   UNL     1     -11.366  12.401  67.469  1.00  0.00    -0.375 A  
HETATM   22  C   UNL     1     -11.714  13.520  68.231  1.00  0.00    -0.394 A  
HETATM   23  C   UNL     1     -11.195  14.776  67.887  1.00  0.00    -0.306 A  
HETATM   24  C   UNL     1     -10.305  14.905  66.810  1.00  0.00    -0.269 A  
HETATM   25  N   UNL     1     -11.577  15.961  68.660  1.00  0.00    -0.395 N  
HETATM   26  C   UNL     1      -9.950  13.779  66.069  1.00  0.00    -0.319 A  
HETATM   27  O   UNL     1     -12.309  15.798  69.644  1.00  0.00    -0.294 OA 
HETATM   28  O   UNL     1     -11.152  17.064  68.275  1.00  0.00    -0.337 OA 
ENDBRANCH  19  20
ENDBRANCH  16  19
ENDBRANCH  12  13
ENDBRANCH   6  12
ENDBRANCH   5   6
ENDBRANCH   4   5
ENDBRANCH   3   4
ENDBRANCH   2   3
TORSDOF 8
ENDMDL
MODEL      109
REMARK 921   NORMALIZED FREE ENERGY PREDICTED BY IDOCK:   -4.59 KCAL/MOL
REMARK 922        TOTAL FREE ENERGY PREDICTED BY IDOCK:   -7.67 KCAL/MOL
REMARK 923 INTER-LIGAND FREE ENERGY PREDICTED BY IDOCK:   -6.71 KCAL/MOL
REMARK 924 INTRA-LIGAND FREE ENERGY PREDICTED BY IDOCK:   -0.96 KCAL/MOL
REMARK 927      BINDING AFFINITY PREDICTED BY RF-SCORE:    0.00 PKD
ROOT
HETATM    1  C   UNL     1     -10.889  12.338  63.497  1.00  0.00    -0.508 C  
HETATM    2  C   UNL     1     -12.390  12.221  63.654  1.00  0.00    -0.562 C  
ENDROOT
BRANCH   2   3
HETATM    3  O   UNL     1     -12.795  12.520  64.996  1.00  0.00    -0.742 OA 
BRANCH   3   4
HETATM    4  C   UNL     1     -11.727  13.197  65.669  1.00  0.00    -0.364 C  
BRANCH   4   5
HETATM    5  C   UNL     1     -11.430  12.652  67.075  1.00  0.00    -0.346 C  
BRANCH   5   6
HETATM    6  N   UNL     1     -10.286  11.731  67.257  1.00  0.00    -0.202 N  
HETATM    7 CL   UNL     1      -6.909  11.521  66.229  1.00  0.00     0.057 Cl 
HETATM    8  C   UNL     1      -9.064  12.358  67.622  1.00  0.00    -0.186 C  
HETATM    9  C   UNL     1      -7.802  11.491  67.768  1.00  0.00    -0.126 C  
HETATM   10 CL   UNL     1      -6.770  12.112  69.082  1.00  0.00    -0.104 Cl 
HETATM   11  O   UNL     1      -9.003  13.582  67.795  1.00  0.00    -0.180 OA 
BRANCH   6  12
HETATM   12  C   UNL     1     -10.273  10.383  66.647  1.00  0.00    -0.234 C  
BRANCH  12  13
HETATM   13  C   UNL     1     -10.418   9.178  67.544  1.00  0.00    -0.335 A  
HETATM   14  C   UNL     1     -10.548   7.888  67.009  1.00  0.00    -0.381 A  
HETATM   15  C   UNL     1     -10.824   6.800  67.845  1.00  0.00    -0.320 A  
HETATM   16  C   UNL     1     -10.937   6.972  69.229  1.00  0.00    -0.178 A  
HETATM   17  C   UNL     1     -10.474   9.334  68.939  1.00  0.00    -0.235 A  
HETATM   18  C   UNL     1     -10.752   8.243  69.773  1.00  0.00    -0.221 A  
BRANCH  16  19
HETATM   19  O   UNL     1     -11.335   5.849  69.923  1.00  0.00    -0.364 OA 
BRANCH  19  20
HETATM   20  C   UNL     1     -10.445   5.159  70.713  1.00  0.00    -0.193 A  
HETATM   21  C   UNL     1      -9.438   4.448  70.050  1.00  0.00    -0.251 A  
HETATM   22  C   UNL     1      -8.459   3.768  70.780  1.00  0.00    -0.100 A  
HETATM   23  C   UNL     1      -8.495   3.804  72.182  1.00  0.00    -0.088 A  
HETATM   24  C   UNL     1      -9.481   4.547  72.847  1.00  0.00    -0.153 A  
HETATM   25  N   UNL     1      -7.492   3.069  72.957  1.00  0.00    -0.049 N  
HETATM   26  C   UNL     1     -10.440   5.239  72.109  1.00  0.00    -0.278 A  
HETATM   27  O   UNL     1      -6.597   2.480  72.336  1.00  0.00    -0.014 OA 
HETATM   28  O   UNL     1      -7.605   3.068  74.195  1.00  0.00    -0.053 OA 
ENDBRANCH  19  20
ENDBRANCH  16  19
ENDBRANCH  12  13
ENDBRANCH   6  12
ENDBRANCH   5   6
ENDBRANCH   4   5
ENDBRANCH   3   4
ENDBRANCH   2   3
TORSDOF 8
ENDMDL
MODEL      110
REMARK 921   NORMALIZED FREE ENERGY PREDICTED BY IDOCK:   -4.58 KCAL/MOL
REMARK 922        TOTAL FREE ENERGY PREDICTED BY IDOCK:   -7.66 KCAL/MOL
REMARK 923 INTER-LIGAND FREE ENERGY PREDICTED BY IDOCK:   -6.65 KCAL/MOL
REMARK 924 INTRA-LIGAND FREE ENERGY PREDICTED BY IDOCK:   -1.00 KCAL/MOL
REMARK 927      BINDING AFFINITY PREDICTED BY RF-SCORE:    0.00 PKD
ROOT
HETATM    1  C   UNL     1     -12.299  13.699  63.689  1.00  0.00    -0.328 C  
HETATM    2  C   UNL     1     -12.652  13.648  65.160  1.00  0.00    -0.430 C  
ENDROOT
BRANCH   2   3
HETATM    3  O   UNL     1     -12.035  14.724  65.879  1.00  0.00    -0.281 OA 
BRANCH   3   4
HETATM    4  C   UNL     1     -11.153  15.431  64.999  1.00  0.00    -0.418 C  
BRANCH   4   5
HETATM    5  C   UNL     1      -9.744  15.650  65.570  1.00  0.00    -0.251 C  
BRANCH   5   6
HETATM    6  N   UNL     1      -9.599  16.350  66.866  1.00  0.00    -0.237 N  
HETATM    7 CL   UNL     1      -6.984  17.648  68.860  1.00  0.00    -0.245 Cl 
HETATM    8  C   UNL     1      -8.764  17.499  66.836  1.00  0.00    -0.251 C  
HETATM    9  C   UNL     1      -8.498  18.255  68.149  1.00  0.00    -0.278 C  
HETATM   10 CL   UNL     1      -8.366  20.006  67.842  1.00  0.00    -0.326 Cl 
HETATM   11  O   UNL     1      -8.234  17.875  65.783  1.00  0.00    -0.530 OA 
BRANCH   6  12
HETATM   12  C   UNL     1      -9.875  15.668  68.149  1.00  0.00    -0.212 C  
BRANCH  12  13
HETATM   13  C   UNL     1      -9.375  14.257  68.345  1.00  0.00    -0.208 A  
HETATM   14  C   UNL     1      -8.006  13.985  68.483  1.00  0.00    -0.141 A  
HETATM   15  C   UNL     1      -7.547  12.665  68.521  1.00  0.00    -0.121 A  
HETATM   16  C   UNL     1      -8.445  11.593  68.459  1.00  0.00    -0.135 A  
HETATM   17  C   UNL     1     -10.275  13.179  68.343  1.00  0.00    -0.247 A  
HETATM   18  C   UNL     1      -9.813  11.857  68.380  1.00  0.00    -0.201 A  
BRANCH  16  19
HETATM   19  O   UNL     1      -7.859  10.348  68.377  1.00  0.00    -0.098 OA 
BRANCH  19  20
HETATM   20  C   UNL     1      -8.459   9.250  68.948  1.00  0.00    -0.129 A  
HETATM   21  C   UNL     1      -8.849   9.373  70.287  1.00  0.00    -0.269 A  
HETATM   22  C   UNL     1      -9.517   8.324  70.926  1.00  0.00    -0.192 A  
HETATM   23  C   UNL     1      -9.794   7.149  70.213  1.00  0.00    -0.176 A  
HETATM   24  C   UNL     1      -9.439   7.038  68.861  1.00  0.00    -0.137 A  
HETATM   25  N   UNL     1     -10.467   6.031  70.881  1.00  0.00    -0.225 N  
HETATM   26  C   UNL     1      -8.791   8.099  68.228  1.00  0.00    -0.133 A  
HETATM   27  O   UNL     1     -10.826   6.190  72.055  1.00  0.00    -0.227 OA 
HETATM   28  O   UNL     1     -10.626   4.982  70.234  1.00  0.00    -0.229 OA 
ENDBRANCH  19  20
ENDBRANCH  16  19
ENDBRANCH  12  13
ENDBRANCH   6  12
ENDBRANCH   5   6
ENDBRANCH   4   5
ENDBRANCH   3   4
ENDBRANCH   2   3
TORSDOF 8
ENDMDL
MODEL      111
REMARK 921   NORMALIZED FREE ENERGY PREDICTED BY IDOCK:   -4.53 KCAL/MOL
REMARK 922        TOTAL FREE ENERGY PREDICTED BY IDOCK:   -7.59 KCAL/MOL
REMARK 923 INTER-LIGAND FREE ENERGY PREDICTED BY IDOCK:   -6.92 KCAL/MOL
REMARK 924 INTRA-LIGAND FREE ENERGY PREDICTED BY IDOCK:   -0.66 KCAL/MOL
REMARK 927      BINDING AFFINITY PREDICTED BY RF-SCORE:    0.00 PKD
ROOT
HETATM    1  C   UNL     1     -12.903  15.287  70.935  1.00  0.00    -0.511 C  
HETATM    2  C   UNL     1     -13.072  14.419  72.163  1.00  0.00    -0.366 C  
ENDROOT
BRANCH   2   3
HETATM    3  O   UNL     1     -13.189  13.036  71.808  1.00  0.00    -0.415 OA 
BRANCH   3   4
HETATM    4  C   UNL     1     -12.204  12.720  70.817  1.00  0.00    -0.248 C  
BRANCH   4   5
HETATM    5  C   UNL     1     -12.601  11.563  69.887  1.00  0.00     0.017 C  
BRANCH   5   6
HETATM    6  N   UNL     1     -11.552  10.631  69.419  1.00  0.00    -0.275 N  
HETATM    7 CL   UNL     1      -8.379   9.508  70.502  1.00  0.00    -0.222 Cl 
HETATM    8  C   UNL     1     -11.067   9.730  70.405  1.00  0.00    -0.307 C  
HETATM    9  C   UNL     1      -9.927   8.767  70.031  1.00  0.00    -0.187 C  
HETATM   10 CL   UNL     1     -10.132   7.206  70.868  1.00  0.00    -0.197 Cl 
HETATM   11  O   UNL     1     -11.530   9.732  71.553  1.00  0.00    -0.378 OA 
BRANCH   6  12
HETATM   12  C   UNL     1     -10.738  10.921  68.218  1.00  0.00    -0.204 C  
BRANCH  12  13
HETATM   13  C   UNL     1      -9.801  12.104  68.243  1.00  0.00    -0.212 A  
HETATM   14  C   UNL     1      -8.418  11.931  68.405  1.00  0.00    -0.155 A  
HETATM   15  C   UNL     1      -7.581  13.039  68.568  1.00  0.00    -0.121 A  
HETATM   16  C   UNL     1      -8.099  14.338  68.536  1.00  0.00    -0.147 A  
HETATM   17  C   UNL     1     -10.307  13.412  68.152  1.00  0.00    -0.249 A  
HETATM   18  C   UNL     1      -9.465  14.520  68.317  1.00  0.00    -0.207 A  
BRANCH  16  19
HETATM   19  O   UNL     1      -7.193  15.333  68.835  1.00  0.00    -0.120 OA 
BRANCH  19  20
HETATM   20  C   UNL     1      -7.207  16.526  68.151  1.00  0.00    -0.152 A  
HETATM   21  C   UNL     1      -7.415  17.683  68.911  1.00  0.00    -0.227 A  
HETATM   22  C   UNL     1      -7.386  18.941  68.302  1.00  0.00    -0.306 A  
HETATM   23  C   UNL     1      -7.145  19.034  66.924  1.00  0.00    -0.205 A  
HETATM   24  C   UNL     1      -6.898  17.879  66.167  1.00  0.00    -0.324 A  
HETATM   25  N   UNL     1      -7.143  20.346  66.269  1.00  0.00    -0.259 N  
HETATM   26  C   UNL     1      -6.909  16.631  66.789  1.00  0.00    -0.252 A  
HETATM   27  O   UNL     1      -7.297  21.347  66.980  1.00  0.00    -0.407 OA 
HETATM   28  O   UNL     1      -6.999  20.375  65.035  1.00  0.00    -0.291 OA 
ENDBRANCH  19  20
ENDBRANCH  16  19
ENDBRANCH  12  13
ENDBRANCH   6  12
ENDBRANCH   5   6
ENDBRANCH   4   5
ENDBRANCH   3   4
ENDBRANCH   2   3
TORSDOF 8
ENDMDL
MODEL      112
REMARK 921   NORMALIZED FREE ENERGY PREDICTED BY IDOCK:   -4.47 KCAL/MOL
REMARK 922        TOTAL FREE ENERGY PREDICTED BY IDOCK:   -7.50 KCAL/MOL
REMARK 923 INTER-LIGAND FREE ENERGY PREDICTED BY IDOCK:   -6.73 KCAL/MOL
REMARK 924 INTRA-LIGAND FREE ENERGY PREDICTED BY IDOCK:   -0.76 KCAL/MOL
REMARK 927      BINDING AFFINITY PREDICTED BY RF-SCORE:    0.00 PKD
ROOT
HETATM    1  C   UNL     1     -12.496  14.474  64.296  1.00  0.00    -0.293 C  
HETATM    2  C   UNL     1     -12.803  13.858  65.645  1.00  0.00    -0.424 C  
ENDROOT
BRANCH   2   3
HETATM    3  O   UNL     1     -12.330  12.507  65.717  1.00  0.00    -0.627 OA 
BRANCH   3   4
HETATM    4  C   UNL     1     -11.507  12.236  64.576  1.00  0.00    -0.341 C  
BRANCH   4   5
HETATM    5  C   UNL     1     -10.042  12.666  64.746  1.00  0.00    -0.217 C  
BRANCH   5   6
HETATM    6  N   UNL     1      -9.443  12.643  66.099  1.00  0.00    -0.216 N  
HETATM    7 CL   UNL     1      -6.788  14.230  67.812  1.00  0.00    -0.174 Cl 
HETATM    8  C   UNL     1      -9.217  13.921  66.677  1.00  0.00    -0.236 C  
HETATM    9  C   UNL     1      -8.536  14.001  68.054  1.00  0.00    -0.179 C  
HETATM   10 CL   UNL     1      -9.202  15.359  68.998  1.00  0.00    -0.218 Cl 
HETATM   11  O   UNL     1      -9.535  14.956  66.077  1.00  0.00    -0.296 OA 
BRANCH   6  12
HETATM   12  C   UNL     1      -8.700  11.464  66.596  1.00  0.00    -0.178 C  
BRANCH  12  13
HETATM   13  C   UNL     1      -9.446  10.169  66.805  1.00  0.00    -0.205 A  
HETATM   14  C   UNL     1     -10.553  10.099  67.664  1.00  0.00    -0.316 A  
HETATM   15  C   UNL     1     -11.145   8.866  67.956  1.00  0.00     0.200 A  
HETATM   16  C   UNL     1     -10.670   7.688  67.371  1.00  0.00    -0.248 A  
HETATM   17  C   UNL     1      -9.011   8.991  66.175  1.00  0.00    -0.216 A  
HETATM   18  C   UNL     1      -9.606   7.757  66.471  1.00  0.00    -0.270 A  
BRANCH  16  19
HETATM   19  O   UNL     1     -11.255   6.530  67.838  1.00  0.00    -0.292 OA 
BRANCH  19  20
HETATM   20  C   UNL     1     -10.724   5.858  68.914  1.00  0.00    -0.300 A  
HETATM   21  C   UNL     1     -11.223   6.200  70.176  1.00  0.00    -0.452 A  
HETATM   22  C   UNL     1     -10.779   5.524  71.317  1.00  0.00    -0.288 A  
HETATM   23  C   UNL     1      -9.829   4.500  71.184  1.00  0.00    -0.193 A  
HETATM   24  C   UNL     1      -9.356   4.131  69.917  1.00  0.00    -0.235 A  
HETATM   25  N   UNL     1      -9.333   3.806  72.376  1.00  0.00    -0.115 N  
HETATM   26  C   UNL     1      -9.822   4.798  68.784  1.00  0.00    -0.218 A  
HETATM   27  O   UNL     1      -9.823   4.112  73.470  1.00  0.00    -0.115 OA 
HETATM   28  O   UNL     1      -8.439   2.957  72.220  1.00  0.00    -0.071 OA 
ENDBRANCH  19  20
ENDBRANCH  16  19
ENDBRANCH  12  13
ENDBRANCH   6  12
ENDBRANCH   5   6
ENDBRANCH   4   5
ENDBRANCH   3   4
ENDBRANCH   2   3
TORSDOF 8
ENDMDL
MODEL      113
REMARK 921   NORMALIZED FREE ENERGY PREDICTED BY IDOCK:   -4.47 KCAL/MOL
REMARK 922        TOTAL FREE ENERGY PREDICTED BY IDOCK:   -7.49 KCAL/MOL
REMARK 923 INTER-LIGAND FREE ENERGY PREDICTED BY IDOCK:   -6.96 KCAL/MOL
REMARK 924 INTRA-LIGAND FREE ENERGY PREDICTED BY IDOCK:   -0.52 KCAL/MOL
REMARK 927      BINDING AFFINITY PREDICTED BY RF-SCORE:    0.00 PKD
ROOT
HETATM    1  C   UNL     1      -8.711   6.342  69.974  1.00  0.00    -0.142 C  
HETATM    2  C   UNL     1      -8.335   7.797  70.160  1.00  0.00    -0.128 C  
ENDROOT
BRANCH   2   3
HETATM    3  O   UNL     1      -9.481   8.589  70.498  1.00  0.00    -0.161 OA 
BRANCH   3   4
HETATM    4  C   UNL     1     -10.476   8.435  69.478  1.00  0.00    -0.224 C  
BRANCH   4   5
HETATM    5  C   UNL     1     -11.025   9.762  68.934  1.00  0.00    -0.150 C  
BRANCH   5   6
HETATM    6  N   UNL     1     -10.212  10.526  67.961  1.00  0.00    -0.160 N  
HETATM    7 CL   UNL     1      -7.354   9.989  65.950  1.00  0.00    -0.109 Cl 
HETATM    8  C   UNL     1      -9.927   9.840  66.750  1.00  0.00    -0.218 C  
HETATM    9  C   UNL     1      -9.032  10.526  65.703  1.00  0.00    -0.180 C  
HETATM   10 CL   UNL     1      -9.568  10.106  64.056  1.00  0.00    -0.351 Cl 
HETATM   11  O   UNL     1     -10.365   8.701  66.544  1.00  0.00    -0.282 OA 
BRANCH   6  12
HETATM   12  C   UNL     1      -9.368  11.665  68.382  1.00  0.00    -0.191 C  
BRANCH  12  13
HETATM   13  C   UNL     1      -9.826  13.067  68.061  1.00  0.00    -0.224 A  
HETATM   14  C   UNL     1      -9.029  13.933  67.297  1.00  0.00    -0.225 A  
HETATM   15  C   UNL     1      -9.400  15.271  67.128  1.00  0.00    -0.227 A  
HETATM   16  C   UNL     1     -10.587  15.760  67.684  1.00  0.00    -0.301 A  
HETATM   17  C   UNL     1     -11.045  13.549  68.567  1.00  0.00    -0.300 A  
HETATM   18  C   UNL     1     -11.413  14.890  68.396  1.00  0.00    -0.338 A  
BRANCH  16  19
HETATM   19  O   UNL     1     -10.773  17.120  67.553  1.00  0.00    -0.342 OA 
BRANCH  19  20
HETATM   20  C   UNL     1      -9.714  17.989  67.668  1.00  0.00    -0.291 A  
HETATM   21  C   UNL     1      -9.243  18.565  66.482  1.00  0.00    -0.312 A  
HETATM   22  C   UNL     1      -8.207  19.503  66.517  1.00  0.00    -0.334 A  
HETATM   23  C   UNL     1      -7.645  19.863  67.750  1.00  0.00    -0.287 A  
HETATM   24  C   UNL     1      -8.141  19.316  68.942  1.00  0.00    -0.347 A  
HETATM   25  N   UNL     1      -6.538  20.823  67.796  1.00  0.00    -0.322 N  
HETATM   26  C   UNL     1      -9.188  18.397  68.897  1.00  0.00    -0.202 A  
HETATM   27  O   UNL     1      -6.172  21.335  66.730  1.00  0.00    -0.292 OA 
HETATM   28  O   UNL     1      -6.021  21.056  68.901  1.00  0.00    -0.326 OA 
ENDBRANCH  19  20
ENDBRANCH  16  19
ENDBRANCH  12  13
ENDBRANCH   6  12
ENDBRANCH   5   6
ENDBRANCH   4   5
ENDBRANCH   3   4
ENDBRANCH   2   3
TORSDOF 8
ENDMDL
MODEL      114
REMARK 921   NORMALIZED FREE ENERGY PREDICTED BY IDOCK:   -4.45 KCAL/MOL
REMARK 922        TOTAL FREE ENERGY PREDICTED BY IDOCK:   -7.47 KCAL/MOL
REMARK 923 INTER-LIGAND FREE ENERGY PREDICTED BY IDOCK:   -6.59 KCAL/MOL
REMARK 924 INTRA-LIGAND FREE ENERGY PREDICTED BY IDOCK:   -0.88 KCAL/MOL
REMARK 927      BINDING AFFINITY PREDICTED BY RF-SCORE:    0.00 PKD
ROOT
HETATM    1  C   UNL     1      -9.828   2.845  63.427  1.00  0.00    -0.117 C  
HETATM    2  C   UNL     1     -10.465   3.482  64.643  1.00  0.00    -0.008 C  
ENDROOT
BRANCH   2   3
HETATM    3  O   UNL     1      -9.478   4.080  65.493  1.00  0.00    -0.154 OA 
BRANCH   3   4
HETATM    4  C   UNL     1     -10.113   5.034  66.352  1.00  0.00    -0.249 C  
BRANCH   4   5
HETATM    5  C   UNL     1      -9.431   5.196  67.719  1.00  0.00    -0.128 C  
BRANCH   5   6
HETATM    6  N   UNL     1      -8.170   5.966  67.801  1.00  0.00    -0.105 N  
HETATM    7 CL   UNL     1      -6.817   8.566  69.779  1.00  0.00    -0.042 Cl 
HETATM    8  C   UNL     1      -7.619   6.079  69.106  1.00  0.00    -0.090 C  
HETATM    9  C   UNL     1      -6.345   6.918  69.302  1.00  0.00    -0.035 C  
HETATM   10 CL   UNL     1      -5.312   6.193  70.561  1.00  0.00    -0.013 Cl 
HETATM   11  O   UNL     1      -8.164   5.536  70.076  1.00  0.00    -0.100 OA 
BRANCH   6  12
HETATM   12  C   UNL     1      -7.784   6.932  66.749  1.00  0.00    -0.102 C  
BRANCH  12  13
HETATM   13  C   UNL     1      -8.649   8.149  66.526  1.00  0.00    -0.146 A  
HETATM   14  C   UNL     1      -9.474   8.649  67.544  1.00  0.00    -0.181 A  
HETATM   15  C   UNL     1     -10.373   9.687  67.280  1.00  0.00    -0.310 A  
HETATM   16  C   UNL     1     -10.440  10.270  66.010  1.00  0.00    -0.111 A  
HETATM   17  C   UNL     1      -8.679   8.777  65.270  1.00  0.00    -0.216 A  
HETATM   18  C   UNL     1      -9.582   9.817  65.008  1.00  0.00    -0.333 A  
BRANCH  16  19
HETATM   19  O   UNL     1     -11.452  11.193  65.846  1.00  0.00    -0.062 OA 
BRANCH  19  20
HETATM   20  C   UNL     1     -11.166  12.526  65.667  1.00  0.00    -0.317 A  
HETATM   21  C   UNL     1     -12.057  13.258  64.874  1.00  0.00    -0.440 A  
HETATM   22  C   UNL     1     -11.871  14.631  64.689  1.00  0.00    -0.459 A  
HETATM   23  C   UNL     1     -10.786  15.269  65.307  1.00  0.00    -0.415 A  
HETATM   24  C   UNL     1      -9.914  14.544  66.134  1.00  0.00    -0.330 A  
HETATM   25  N   UNL     1     -10.563  16.702  65.095  1.00  0.00    -0.253 N  
HETATM   26  C   UNL     1     -10.121  13.179  66.327  1.00  0.00    -0.285 A  
HETATM   27  O   UNL     1     -11.391  17.322  64.415  1.00  0.00    -1.052 OA 
HETATM   28  O   UNL     1      -9.548  17.210  65.601  1.00  0.00    -0.535 OA 
ENDBRANCH  19  20
ENDBRANCH  16  19
ENDBRANCH  12  13
ENDBRANCH   6  12
ENDBRANCH   5   6
ENDBRANCH   4   5
ENDBRANCH   3   4
ENDBRANCH   2   3
TORSDOF 8
ENDMDL
MODEL      115
REMARK 921   NORMALIZED FREE ENERGY PREDICTED BY IDOCK:   -4.42 KCAL/MOL
REMARK 922        TOTAL FREE ENERGY PREDICTED BY IDOCK:   -7.43 KCAL/MOL
REMARK 923 INTER-LIGAND FREE ENERGY PREDICTED BY IDOCK:   -7.03 KCAL/MOL
REMARK 924 INTRA-LIGAND FREE ENERGY PREDICTED BY IDOCK:   -0.39 KCAL/MOL
REMARK 927      BINDING AFFINITY PREDICTED BY RF-SCORE:    0.00 PKD
ROOT
HETATM    1  C   UNL     1      -5.505   8.353  69.600  1.00  0.00    -0.030 C  
HETATM    2  C   UNL     1      -5.351   7.011  70.283  1.00  0.00    -0.023 C  
ENDROOT
BRANCH   2   3
HETATM    3  O   UNL     1      -5.971   7.014  71.575  1.00  0.00    -0.036 OA 
BRANCH   3   4
HETATM    4  C   UNL     1      -6.690   8.241  71.749  1.00  0.00    -0.070 C  
BRANCH   4   5
HETATM    5  C   UNL     1      -7.610   8.258  72.979  1.00  0.00    -0.110 C  
BRANCH   5   6
HETATM    6  N   UNL     1      -9.029   7.873  72.815  1.00  0.00    -0.176 N  
HETATM    7 CL   UNL     1     -10.878   5.319  71.214  1.00  0.00    -0.204 Cl 
HETATM    8  C   UNL     1      -9.312   6.503  73.066  1.00  0.00    -0.135 C  
HETATM    9  C   UNL     1     -10.748   5.993  72.856  1.00  0.00    -0.247 C  
HETATM   10 CL   UNL     1     -11.144   4.739  74.060  1.00  0.00    -0.246 Cl 
HETATM   11  O   UNL     1      -8.419   5.723  73.421  1.00  0.00    -0.116 OA 
BRANCH   6  12
HETATM   12  C   UNL     1      -9.962   8.684  72.002  1.00  0.00    -0.329 C  
BRANCH  12  13
HETATM   13  C   UNL     1      -9.724   8.797  70.516  1.00  0.00    -0.225 A  
HETATM   14  C   UNL     1      -8.951   9.839  69.982  1.00  0.00    -0.255 A  
HETATM   15  C   UNL     1      -8.857  10.012  68.598  1.00  0.00    -0.132 A  
HETATM   16  C   UNL     1      -9.498   9.130  67.721  1.00  0.00    -0.140 A  
HETATM   17  C   UNL     1     -10.316   7.881  69.632  1.00  0.00    -0.216 A  
HETATM   18  C   UNL     1     -10.220   8.057  68.244  1.00  0.00    -0.243 A  
BRANCH  16  19
HETATM   19  O   UNL     1      -9.432   9.483  66.390  1.00  0.00    -0.167 OA 
BRANCH  19  20
HETATM   20  C   UNL     1     -10.138  10.562  65.913  1.00  0.00    -0.260 A  
HETATM   21  C   UNL     1     -10.181  10.719  64.523  1.00  0.00    -0.428 A  
HETATM   22  C   UNL     1     -10.925  11.757  63.953  1.00  0.00    -0.476 A  
HETATM   23  C   UNL     1     -11.629  12.637  64.787  1.00  0.00    -0.331 A  
HETATM   24  C   UNL     1     -11.619  12.459  66.178  1.00  0.00    -0.452 A  
HETATM   25  N   UNL     1     -12.388  13.747  64.202  1.00  0.00    -0.377 N  
HETATM   26  C   UNL     1     -10.890  11.408  66.734  1.00  0.00    -0.336 A  
HETATM   27  O   UNL     1     -12.429  13.833  62.968  1.00  0.00    -0.712 OA 
HETATM   28  O   UNL     1     -12.935  14.546  64.981  1.00  0.00    -0.564 OA 
ENDBRANCH  19  20
ENDBRANCH  16  19
ENDBRANCH  12  13
ENDBRANCH   6  12
ENDBRANCH   5   6
ENDBRANCH   4   5
ENDBRANCH   3   4
ENDBRANCH   2   3
TORSDOF 8
ENDMDL
MODEL      116
REMARK 921   NORMALIZED FREE ENERGY PREDICTED BY IDOCK:   -4.42 KCAL/MOL
REMARK 922        TOTAL FREE ENERGY PREDICTED BY IDOCK:   -7.43 KCAL/MOL
REMARK 923 INTER-LIGAND FREE ENERGY PREDICTED BY IDOCK:   -7.45 KCAL/MOL
REMARK 924 INTRA-LIGAND FREE ENERGY PREDICTED BY IDOCK:    0.02 KCAL/MOL
REMARK 927      BINDING AFFINITY PREDICTED BY RF-SCORE:    0.00 PKD
ROOT
HETATM    1  C   UNL     1      -5.315  18.715  71.579  1.00  0.00    -0.204 C  
HETATM    2  C   UNL     1      -5.830  18.563  70.164  1.00  0.00    -0.193 C  
ENDROOT
BRANCH   2   3
HETATM    3  O   UNL     1      -5.178  17.480  69.488  1.00  0.00    -0.164 OA 
BRANCH   3   4
HETATM    4  C   UNL     1      -6.113  16.843  68.609  1.00  0.00    -0.148 C  
BRANCH   4   5
HETATM    5  C   UNL     1      -6.298  17.563  67.265  1.00  0.00    -0.148 C  
BRANCH   5   6
HETATM    6  N   UNL     1      -7.662  17.692  66.706  1.00  0.00    -0.211 N  
HETATM    7 CL   UNL     1     -10.965  18.032  67.922  1.00  0.00    -0.215 Cl 
HETATM    8  C   UNL     1      -8.443  18.737  67.267  1.00  0.00    -0.270 C  
HETATM    9  C   UNL     1      -9.898  18.908  66.798  1.00  0.00    -0.348 C  
HETATM   10 CL   UNL     1     -10.341  20.634  66.761  1.00  0.00    -0.183 Cl 
HETATM   11  O   UNL     1      -7.977  19.485  68.137  1.00  0.00    -0.300 OA 
BRANCH   6  12
HETATM   12  C   UNL     1      -8.323  16.566  66.010  1.00  0.00    -0.128 C  
BRANCH  12  13
HETATM   13  C   UNL     1      -9.276  15.690  66.786  1.00  0.00    -0.275 A  
HETATM   14  C   UNL     1     -10.499  15.282  66.234  1.00  0.00    -0.313 A  
HETATM   15  C   UNL     1     -11.432  14.590  67.014  1.00  0.00    -0.383 A  
HETATM   16  C   UNL     1     -11.149  14.261  68.344  1.00  0.00    -0.256 A  
HETATM   17  C   UNL     1      -8.973  15.305  68.103  1.00  0.00    -0.173 A  
HETATM   18  C   UNL     1      -9.911  14.613  68.882  1.00  0.00    -0.211 A  
BRANCH  16  19
HETATM   19  O   UNL     1     -12.196  13.695  69.039  1.00  0.00    -0.334 OA 
BRANCH  19  20
HETATM   20  C   UNL     1     -12.036  12.502  69.704  1.00  0.00    -0.272 A  
HETATM   21  C   UNL     1     -12.785  12.331  70.874  1.00  0.00    -0.277 A  
HETATM   22  C   UNL     1     -12.724  11.125  71.579  1.00  0.00    -0.499 A  
HETATM   23  C   UNL     1     -11.908  10.089  71.104  1.00  0.00    -0.393 A  
HETATM   24  C   UNL     1     -11.186  10.245  69.911  1.00  0.00    -0.360 A  
HETATM   25  N   UNL     1     -11.812   8.832  71.852  1.00  0.00    -0.341 N  
HETATM   26  C   UNL     1     -11.270  11.445  69.205  1.00  0.00    -0.342 A  
HETATM   27  O   UNL     1     -12.516   8.705  72.862  1.00  0.00    -0.278 OA 
HETATM   28  O   UNL     1     -11.021   7.970  71.434  1.00  0.00    -0.228 OA 
ENDBRANCH  19  20
ENDBRANCH  16  19
ENDBRANCH  12  13
ENDBRANCH   6  12
ENDBRANCH   5   6
ENDBRANCH   4   5
ENDBRANCH   3   4
ENDBRANCH   2   3
TORSDOF 8
ENDMDL
MODEL      117
REMARK 921   NORMALIZED FREE ENERGY PREDICTED BY IDOCK:   -4.41 KCAL/MOL
REMARK 922        TOTAL FREE ENERGY PREDICTED BY IDOCK:   -7.41 KCAL/MOL
REMARK 923 INTER-LIGAND FREE ENERGY PREDICTED BY IDOCK:   -6.42 KCAL/MOL
REMARK 924 INTRA-LIGAND FREE ENERGY PREDICTED BY IDOCK:   -0.99 KCAL/MOL
REMARK 927      BINDING AFFINITY PREDICTED BY RF-SCORE:    0.00 PKD
ROOT
HETATM    1  C   UNL     1      -9.952   5.788  66.323  1.00  0.00    -0.129 C  
HETATM    2  C   UNL     1      -9.966   4.298  66.060  1.00  0.00    -0.219 C  
ENDROOT
BRANCH   2   3
HETATM    3  O   UNL     1      -9.677   3.558  67.253  1.00  0.00    -0.183 OA 
BRANCH   3   4
HETATM    4  C   UNL     1      -8.376   2.969  67.136  1.00  0.00    -0.090 C  
BRANCH   4   5
HETATM    5  C   UNL     1      -7.327   3.580  68.078  1.00  0.00    -0.054 C  
BRANCH   5   6
HETATM    6  N   UNL     1      -7.725   4.699  68.961  1.00  0.00    -0.070 N  
HETATM    7 CL   UNL     1      -6.150   7.337  70.711  1.00  0.00    -0.035 Cl 
HETATM    8  C   UNL     1      -7.162   5.958  68.623  1.00  0.00    -0.083 C  
HETATM    9  C   UNL     1      -7.464   7.170  69.522  1.00  0.00    -0.095 C  
HETATM   10 CL   UNL     1      -7.590   8.654  68.543  1.00  0.00    -0.093 Cl 
HETATM   11  O   UNL     1      -6.421   6.082  67.639  1.00  0.00    -0.043 OA 
BRANCH   6  12
HETATM   12  C   UNL     1      -8.239   4.461  70.328  1.00  0.00    -0.066 C  
BRANCH  12  13
HETATM   13  C   UNL     1      -9.471   5.206  70.781  1.00  0.00    -0.224 A  
HETATM   14  C   UNL     1     -10.556   5.410  69.914  1.00  0.00    -0.351 A  
HETATM   15  C   UNL     1     -11.627   6.222  70.301  1.00  0.00    -0.379 A  
HETATM   16  C   UNL     1     -11.655   6.813  71.568  1.00  0.00    -0.300 A  
HETATM   17  C   UNL     1      -9.533   5.754  72.073  1.00  0.00    -0.166 A  
HETATM   18  C   UNL     1     -10.608   6.568  72.457  1.00  0.00    -0.240 A  
BRANCH  16  19
HETATM   19  O   UNL     1     -12.699   7.689  71.778  1.00  0.00    -0.318 OA 
BRANCH  19  20
HETATM   20  C   UNL     1     -12.557   9.031  71.511  1.00  0.00    -0.338 A  
HETATM   21  C   UNL     1     -11.699   9.373  70.459  1.00  0.00    -0.254 A  
HETATM   22  C   UNL     1     -11.543  10.711  70.084  1.00  0.00    -0.414 A  
HETATM   23  C   UNL     1     -12.254  11.706  70.771  1.00  0.00    -0.344 A  
HETATM   24  C   UNL     1     -13.142  11.362  71.799  1.00  0.00    -0.523 A  
HETATM   25  N   UNL     1     -12.074  13.115  70.407  1.00  0.00    -0.350 N  
HETATM   26  C   UNL     1     -13.306  10.022  72.151  1.00  0.00    -0.469 A  
HETATM   27  O   UNL     1     -11.334  13.375  69.450  1.00  0.00    -0.260 OA 
HETATM   28  O   UNL     1     -12.666  13.968  71.089  1.00  0.00    -0.326 OA 
ENDBRANCH  19  20
ENDBRANCH  16  19
ENDBRANCH  12  13
ENDBRANCH   6  12
ENDBRANCH   5   6
ENDBRANCH   4   5
ENDBRANCH   3   4
ENDBRANCH   2   3
TORSDOF 8
ENDMDL
MODEL      118
REMARK 921   NORMALIZED FREE ENERGY PREDICTED BY IDOCK:   -4.41 KCAL/MOL
REMARK 922        TOTAL FREE ENERGY PREDICTED BY IDOCK:   -7.41 KCAL/MOL
REMARK 923 INTER-LIGAND FREE ENERGY PREDICTED BY IDOCK:   -6.71 KCAL/MOL
REMARK 924 INTRA-LIGAND FREE ENERGY PREDICTED BY IDOCK:   -0.70 KCAL/MOL
REMARK 927      BINDING AFFINITY PREDICTED BY RF-SCORE:    0.00 PKD
ROOT
HETATM    1  C   UNL     1     -10.135   3.852  64.225  1.00  0.00    -0.216 C  
HETATM    2  C   UNL     1      -8.936   3.832  65.150  1.00  0.00    -0.132 C  
ENDROOT
BRANCH   2   3
HETATM    3  O   UNL     1      -8.745   5.105  65.778  1.00  0.00    -0.129 OA 
BRANCH   3   4
HETATM    4  C   UNL     1      -8.346   4.902  67.140  1.00  0.00    -0.106 C  
BRANCH   4   5
HETATM    5  C   UNL     1      -9.383   5.370  68.172  1.00  0.00    -0.114 C  
BRANCH   5   6
HETATM    6  N   UNL     1      -8.924   5.734  69.531  1.00  0.00    -0.123 N  
HETATM    7 CL   UNL     1     -10.243   5.786  72.810  1.00  0.00    -0.202 Cl 
HETATM    8  C   UNL     1      -9.204   4.771  70.536  1.00  0.00    -0.137 C  
HETATM    9  C   UNL     1      -8.825   5.089  71.993  1.00  0.00    -0.129 C  
HETATM   10 CL   UNL     1      -8.304   3.608  72.837  1.00  0.00    -0.085 Cl 
HETATM   11  O   UNL     1      -9.766   3.704  70.258  1.00  0.00    -0.189 OA 
BRANCH   6  12
HETATM   12  C   UNL     1      -8.657   7.140  69.906  1.00  0.00    -0.141 C  
BRANCH  12  13
HETATM   13  C   UNL     1      -9.770   8.151  69.777  1.00  0.00    -0.173 A  
HETATM   14  C   UNL     1     -10.126   8.683  68.529  1.00  0.00    -0.211 A  
HETATM   15  C   UNL     1     -11.060   9.721  68.442  1.00  0.00    -0.142 A  
HETATM   16  C   UNL     1     -11.682  10.221  69.591  1.00  0.00    -0.160 A  
HETATM   17  C   UNL     1     -10.441   8.617  70.920  1.00  0.00    -0.265 A  
HETATM   18  C   UNL     1     -11.375   9.658  70.830  1.00  0.00    -0.431 A  
BRANCH  16  19
HETATM   19  O   UNL     1     -12.483  11.324  69.385  1.00  0.00    -0.272 OA 
BRANCH  19  20
HETATM   20  C   UNL     1     -12.476  12.375  70.272  1.00  0.00    -0.078 A  
HETATM   21  C   UNL     1     -11.820  13.541  69.859  1.00  0.00    -0.386 A  
HETATM   22  C   UNL     1     -11.816  14.674  70.677  1.00  0.00    -0.367 A  
HETATM   23  C   UNL     1     -12.475  14.633  71.914  1.00  0.00    -0.341 A  
HETATM   24  C   UNL     1     -13.165  13.480  72.312  1.00  0.00    -0.571 A  
HETATM   25  N   UNL     1     -12.451  15.806  72.794  1.00  0.00    -0.411 N  
HETATM   26  C   UNL     1     -13.180  12.361  71.479  1.00  0.00    -0.285 A  
HETATM   27  O   UNL     1     -11.890  16.829  72.379  1.00  0.00    -0.397 OA 
HETATM   28  O   UNL     1     -12.984  15.701  73.911  1.00  0.00    -0.518 OA 
ENDBRANCH  19  20
ENDBRANCH  16  19
ENDBRANCH  12  13
ENDBRANCH   6  12
ENDBRANCH   5   6
ENDBRANCH   4   5
ENDBRANCH   3   4
ENDBRANCH   2   3
TORSDOF 8
ENDMDL
MODEL      119
REMARK 921   NORMALIZED FREE ENERGY PREDICTED BY IDOCK:   -4.41 KCAL/MOL
REMARK 922        TOTAL FREE ENERGY PREDICTED BY IDOCK:   -7.40 KCAL/MOL
REMARK 923 INTER-LIGAND FREE ENERGY PREDICTED BY IDOCK:   -6.48 KCAL/MOL
REMARK 924 INTRA-LIGAND FREE ENERGY PREDICTED BY IDOCK:   -0.92 KCAL/MOL
REMARK 927      BINDING AFFINITY PREDICTED BY RF-SCORE:    0.00 PKD
ROOT
HETATM    1  C   UNL     1      -6.983   2.248  68.272  1.00  0.00    -0.043 C  
HETATM    2  C   UNL     1      -7.576   3.267  69.221  1.00  0.00    -0.048 C  
ENDROOT
BRANCH   2   3
HETATM    3  O   UNL     1      -7.925   4.474  68.533  1.00  0.00    -0.078 OA 
BRANCH   3   4
HETATM    4  C   UNL     1      -9.302   4.778  68.787  1.00  0.00    -0.134 C  
BRANCH   4   5
HETATM    5  C   UNL     1     -10.050   5.349  67.572  1.00  0.00    -0.180 C  
BRANCH   5   6
HETATM    6  N   UNL     1      -9.295   6.144  66.578  1.00  0.00    -0.151 N  
HETATM    7 CL   UNL     1      -6.306   5.841  64.714  1.00  0.00    -0.036 Cl 
HETATM    8  C   UNL     1      -8.874   5.422  65.429  1.00  0.00    -0.143 C  
HETATM    9  C   UNL     1      -8.025   6.145  64.370  1.00  0.00    -0.121 C  
HETATM   10 CL   UNL     1      -8.431   5.555  62.738  1.00  0.00    -0.095 Cl 
HETATM   11  O   UNL     1      -9.159   4.226  65.288  1.00  0.00    -0.129 OA 
BRANCH   6  12
HETATM   12  C   UNL     1      -8.617   7.405  66.949  1.00  0.00    -0.120 C  
BRANCH  12  13
HETATM   13  C   UNL     1      -9.434   8.671  67.037  1.00  0.00    -0.221 A  
HETATM   14  C   UNL     1     -10.104   9.021  68.219  1.00  0.00    -0.223 A  
HETATM   15  C   UNL     1     -10.970  10.120  68.243  1.00  0.00    -0.299 A  
HETATM   16  C   UNL     1     -11.155  10.909  67.103  1.00  0.00    -0.240 A  
HETATM   17  C   UNL     1      -9.579   9.502  65.914  1.00  0.00    -0.327 A  
HETATM   18  C   UNL     1     -10.448  10.602  65.941  1.00  0.00    -0.243 A  
BRANCH  16  19
HETATM   19  O   UNL     1     -12.127  11.881  67.220  1.00  0.00    -0.582 OA 
BRANCH  19  20
HETATM   20  C   UNL     1     -11.785  13.209  67.316  1.00  0.00    -0.374 A  
HETATM   21  C   UNL     1     -11.695  13.743  68.608  1.00  0.00    -0.391 A  
HETATM   22  C   UNL     1     -11.297  15.069  68.796  1.00  0.00    -0.306 A  
HETATM   23  C   UNL     1     -10.988  15.861  67.680  1.00  0.00    -0.298 A  
HETATM   24  C   UNL     1     -11.040  15.317  66.389  1.00  0.00    -0.273 A  
HETATM   25  N   UNL     1     -10.599  17.262  67.864  1.00  0.00    -0.379 N  
HETATM   26  C   UNL     1     -11.418  13.987  66.214  1.00  0.00    -0.358 A  
HETATM   27  O   UNL     1     -10.498  17.688  69.022  1.00  0.00    -0.342 OA 
HETATM   28  O   UNL     1     -10.405  17.946  66.845  1.00  0.00    -0.341 OA 
ENDBRANCH  19  20
ENDBRANCH  16  19
ENDBRANCH  12  13
ENDBRANCH   6  12
ENDBRANCH   5   6
ENDBRANCH   4   5
ENDBRANCH   3   4
ENDBRANCH   2   3
TORSDOF 8
ENDMDL
MODEL      120
REMARK 921   NORMALIZED FREE ENERGY PREDICTED BY IDOCK:   -4.39 KCAL/MOL
REMARK 922        TOTAL FREE ENERGY PREDICTED BY IDOCK:   -7.38 KCAL/MOL
REMARK 923 INTER-LIGAND FREE ENERGY PREDICTED BY IDOCK:   -6.98 KCAL/MOL
REMARK 924 INTRA-LIGAND FREE ENERGY PREDICTED BY IDOCK:   -0.40 KCAL/MOL
REMARK 927      BINDING AFFINITY PREDICTED BY RF-SCORE:    0.00 PKD
ROOT
HETATM    1  C   UNL     1      -6.684  10.104  68.736  1.00  0.00    -0.053 C  
HETATM    2  C   UNL     1      -7.787  11.140  68.744  1.00  0.00    -0.142 C  
ENDROOT
BRANCH   2   3
HETATM    3  O   UNL     1      -8.043  11.635  67.424  1.00  0.00    -0.138 OA 
BRANCH   3   4
HETATM    4  C   UNL     1      -8.300  13.044  67.492  1.00  0.00    -0.184 C  
BRANCH   4   5
HETATM    5  C   UNL     1      -9.062  13.599  66.279  1.00  0.00     0.028 C  
BRANCH   5   6
HETATM    6  N   UNL     1      -9.768  14.893  66.411  1.00  0.00    -0.269 N  
HETATM    7 CL   UNL     1      -9.733  17.682  68.583  1.00  0.00    -0.321 Cl 
HETATM    8  C   UNL     1      -8.925  16.017  66.619  1.00  0.00    -0.260 C  
HETATM    9  C   UNL     1      -9.571  17.397  66.834  1.00  0.00    -0.277 C  
HETATM   10 CL   UNL     1      -8.567  18.674  66.101  1.00  0.00    -0.226 Cl 
HETATM   11  O   UNL     1      -7.694  15.893  66.653  1.00  0.00    -0.234 OA 
BRANCH   6  12
HETATM   12  C   UNL     1     -11.197  14.959  66.787  1.00  0.00    -0.338 C  
BRANCH  12  13
HETATM   13  C   UNL     1     -11.663  14.207  68.010  1.00  0.00    -0.394 A  
HETATM   14  C   UNL     1     -11.890  14.869  69.226  1.00  0.00    -0.350 A  
HETATM   15  C   UNL     1     -12.183  14.141  70.384  1.00  0.00    -0.427 A  
HETATM   16  C   UNL     1     -12.292  12.747  70.343  1.00  0.00    -0.247 A  
HETATM   17  C   UNL     1     -11.833  12.814  67.963  1.00  0.00    -0.386 A  
HETATM   18  C   UNL     1     -12.126  12.087  69.125  1.00  0.00    -0.241 A  
BRANCH  16  19
HETATM   19  O   UNL     1     -12.458  12.141  71.571  1.00  0.00    -0.198 OA 
BRANCH  19  20
HETATM   20  C   UNL     1     -12.444  10.770  71.686  1.00  0.00    -0.275 A  
HETATM   21  C   UNL     1     -13.643  10.161  72.075  1.00  0.00    -0.328 A  
HETATM   22  C   UNL     1     -13.731   8.768  72.159  1.00  0.00    -0.498 A  
HETATM   23  C   UNL     1     -12.608   7.988  71.851  1.00  0.00    -0.328 A  
HETATM   24  C   UNL     1     -11.417   8.594  71.425  1.00  0.00    -0.352 A  
HETATM   25  N   UNL     1     -12.679   6.528  71.966  1.00  0.00    -0.229 N  
HETATM   26  C   UNL     1     -11.347   9.983  71.324  1.00  0.00    -0.336 A  
HETATM   27  O   UNL     1     -13.765   6.024  72.280  1.00  0.00     0.275 OA 
HETATM   28  O   UNL     1     -11.639   5.880  71.755  1.00  0.00    -0.254 OA 
ENDBRANCH  19  20
ENDBRANCH  16  19
ENDBRANCH  12  13
ENDBRANCH   6  12
ENDBRANCH   5   6
ENDBRANCH   4   5
ENDBRANCH   3   4
ENDBRANCH   2   3
TORSDOF 8
ENDMDL
MODEL      121
REMARK 921   NORMALIZED FREE ENERGY PREDICTED BY IDOCK:   -4.36 KCAL/MOL
REMARK 922        TOTAL FREE ENERGY PREDICTED BY IDOCK:   -7.34 KCAL/MOL
REMARK 923 INTER-LIGAND FREE ENERGY PREDICTED BY IDOCK:   -6.54 KCAL/MOL
REMARK 924 INTRA-LIGAND FREE ENERGY PREDICTED BY IDOCK:   -0.80 KCAL/MOL
REMARK 927      BINDING AFFINITY PREDICTED BY RF-SCORE:    0.00 PKD
ROOT
HETATM    1  C   UNL     1     -13.797  13.681  72.408  1.00  0.00    -0.691 C  
HETATM    2  C   UNL     1     -13.641  14.814  71.416  1.00  0.00    -0.420 C  
ENDROOT
BRANCH   2   3
HETATM    3  O   UNL     1     -12.415  15.524  71.628  1.00  0.00    -0.341 OA 
BRANCH   3   4
HETATM    4  C   UNL     1     -11.851  15.879  70.360  1.00  0.00    -0.338 C  
BRANCH   4   5
HETATM    5  C   UNL     1     -10.437  15.327  70.127  1.00  0.00    -0.230 C  
BRANCH   5   6
HETATM    6  N   UNL     1      -9.936  15.207  68.740  1.00  0.00    -0.221 N  
HETATM    7 CL   UNL     1      -9.984  17.120  65.767  1.00  0.00    -0.201 Cl 
HETATM    8  C   UNL     1      -9.252  16.350  68.248  1.00  0.00    -0.207 C  
HETATM    9  C   UNL     1      -8.753  16.346  66.793  1.00  0.00    -0.226 C  
HETATM   10 CL   UNL     1      -7.211  17.229  66.661  1.00  0.00    -0.251 Cl 
HETATM   11  O   UNL     1      -9.080  17.346  68.963  1.00  0.00    -0.203 OA 
BRANCH   6  12
HETATM   12  C   UNL     1     -10.506  14.222  67.795  1.00  0.00    -0.245 C  
BRANCH  12  13
HETATM   13  C   UNL     1     -10.613  12.778  68.224  1.00  0.00    -0.251 A  
HETATM   14  C   UNL     1     -11.789  12.278  68.802  1.00  0.00    -0.356 A  
HETATM   15  C   UNL     1     -11.825  10.981  69.323  1.00  0.00    -0.411 A  
HETATM   16  C   UNL     1     -10.705  10.148  69.246  1.00  0.00    -0.231 A  
HETATM   17  C   UNL     1      -9.511  11.917  68.096  1.00  0.00    -0.195 A  
HETATM   18  C   UNL     1      -9.549  10.618  68.620  1.00  0.00    -0.179 A  
BRANCH  16  19
HETATM   19  O   UNL     1     -10.828   8.944  69.907  1.00  0.00    -0.229 OA 
BRANCH  19  20
HETATM   20  C   UNL     1      -9.724   8.310  70.426  1.00  0.00    -0.168 A  
HETATM   21  C   UNL     1      -8.944   9.045  71.327  1.00  0.00    -0.281 A  
HETATM   22  C   UNL     1      -7.837   8.455  71.945  1.00  0.00    -0.165 A  
HETATM   23  C   UNL     1      -7.516   7.122  71.655  1.00  0.00    -0.086 A  
HETATM   24  C   UNL     1      -8.317   6.372  70.782  1.00  0.00    -0.126 A  
HETATM   25  N   UNL     1      -6.339   6.503  72.273  1.00  0.00    -0.053 N  
HETATM   26  C   UNL     1      -9.431   6.964  70.187  1.00  0.00    -0.162 A  
HETATM   27  O   UNL     1      -5.695   7.173  73.090  1.00  0.00    -0.045 OA 
HETATM   28  O   UNL     1      -6.049   5.344  71.931  1.00  0.00    -0.030 OA 
ENDBRANCH  19  20
ENDBRANCH  16  19
ENDBRANCH  12  13
ENDBRANCH   6  12
ENDBRANCH   5   6
ENDBRANCH   4   5
ENDBRANCH   3   4
ENDBRANCH   2   3
TORSDOF 8
ENDMDL
MODEL      122
REMARK 921   NORMALIZED FREE ENERGY PREDICTED BY IDOCK:   -4.36 KCAL/MOL
REMARK 922        TOTAL FREE ENERGY PREDICTED BY IDOCK:   -7.33 KCAL/MOL
REMARK 923 INTER-LIGAND FREE ENERGY PREDICTED BY IDOCK:   -6.30 KCAL/MOL
REMARK 924 INTRA-LIGAND FREE ENERGY PREDICTED BY IDOCK:   -1.04 KCAL/MOL
REMARK 927      BINDING AFFINITY PREDICTED BY RF-SCORE:    0.00 PKD
ROOT
HETATM    1  C   UNL     1     -12.204  12.247  63.266  1.00  0.00    -0.528 C  
HETATM    2  C   UNL     1     -12.093  11.931  64.743  1.00  0.00    -0.097 C  
ENDROOT
BRANCH   2   3
HETATM    3  O   UNL     1     -12.596  13.008  65.542  1.00  0.00    -0.493 OA 
BRANCH   3   4
HETATM    4  C   UNL     1     -12.278  14.253  64.907  1.00  0.00    -0.440 C  
BRANCH   4   5
HETATM    5  C   UNL     1     -10.901  14.816  65.290  1.00  0.00    -0.383 C  
BRANCH   5   6
HETATM    6  N   UNL     1     -10.779  15.630  66.520  1.00  0.00    -0.307 N  
HETATM    7 CL   UNL     1      -8.571  18.052  67.845  1.00  0.00    -0.252 Cl 
HETATM    8  C   UNL     1     -10.525  17.011  66.303  1.00  0.00    -0.258 C  
HETATM    9  C   UNL     1     -10.316  17.926  67.521  1.00  0.00    -0.377 C  
HETATM   10 CL   UNL     1     -10.994  19.544  67.206  1.00  0.00    -0.563 Cl 
HETATM   11  O   UNL     1     -10.446  17.471  65.156  1.00  0.00    -0.573 OA 
BRANCH   6  12
HETATM   12  C   UNL     1     -10.456  15.015  67.826  1.00  0.00    -0.249 C  
BRANCH  12  13
HETATM   13  C   UNL     1      -9.348  13.993  67.895  1.00  0.00    -0.206 A  
HETATM   14  C   UNL     1      -8.064  14.281  67.408  1.00  0.00    -0.213 A  
HETATM   15  C   UNL     1      -7.089  13.280  67.349  1.00  0.00    -0.111 A  
HETATM   16  C   UNL     1      -7.362  11.987  67.806  1.00  0.00    -0.113 A  
HETATM   17  C   UNL     1      -9.598  12.709  68.407  1.00  0.00    -0.173 A  
HETATM   18  C   UNL     1      -8.619  11.708  68.345  1.00  0.00    -0.156 A  
BRANCH  16  19
HETATM   19  O   UNL     1      -6.363  11.065  67.575  1.00  0.00    -0.058 OA 
BRANCH  19  20
HETATM   20  C   UNL     1      -6.668   9.769  67.230  1.00  0.00    -0.074 A  
HETATM   21  C   UNL     1      -7.438   9.593  66.074  1.00  0.00    -0.099 A  
HETATM   22  C   UNL     1      -7.743   8.306  65.621  1.00  0.00    -0.092 A  
HETATM   23  C   UNL     1      -7.270   7.194  66.333  1.00  0.00    -0.078 A  
HETATM   24  C   UNL     1      -6.466   7.369  67.468  1.00  0.00    -0.060 A  
HETATM   25  N   UNL     1      -7.609   5.841  65.884  1.00  0.00    -0.085 N  
HETATM   26  C   UNL     1      -6.151   8.657  67.900  1.00  0.00    -0.051 A  
HETATM   27  O   UNL     1      -8.263   5.724  64.840  1.00  0.00    -0.130 OA 
HETATM   28  O   UNL     1      -7.231   4.887  66.586  1.00  0.00    -0.077 OA 
ENDBRANCH  19  20
ENDBRANCH  16  19
ENDBRANCH  12  13
ENDBRANCH   6  12
ENDBRANCH   5   6
ENDBRANCH   4   5
ENDBRANCH   3   4
ENDBRANCH   2   3
TORSDOF 8
ENDMDL
MODEL      123
REMARK 921   NORMALIZED FREE ENERGY PREDICTED BY IDOCK:   -4.34 KCAL/MOL
REMARK 922        TOTAL FREE ENERGY PREDICTED BY IDOCK:   -7.31 KCAL/MOL
REMARK 923 INTER-LIGAND FREE ENERGY PREDICTED BY IDOCK:   -6.41 KCAL/MOL
REMARK 924 INTRA-LIGAND FREE ENERGY PREDICTED BY IDOCK:   -0.90 KCAL/MOL
REMARK 927      BINDING AFFINITY PREDICTED BY RF-SCORE:    0.00 PKD
ROOT
HETATM    1  C   UNL     1      -6.198   2.248  71.003  1.00  0.00    -0.019 C  
HETATM    2  C   UNL     1      -7.696   2.416  70.865  1.00  0.00    -0.035 C  
ENDROOT
BRANCH   2   3
HETATM    3  O   UNL     1      -8.081   2.521  69.489  1.00  0.00    -0.045 OA 
BRANCH   3   4
HETATM    4  C   UNL     1      -7.825   3.854  69.030  1.00  0.00    -0.056 C  
BRANCH   4   5
HETATM    5  C   UNL     1      -8.887   4.878  69.459  1.00  0.00    -0.090 C  
BRANCH   5   6
HETATM    6  N   UNL     1      -8.527   5.901  70.466  1.00  0.00    -0.126 N  
HETATM    7 CL   UNL     1     -10.193   8.236  72.533  1.00  0.00    -0.380 Cl 
HETATM    8  C   UNL     1      -9.279   5.848  71.670  1.00  0.00    -0.146 C  
HETATM    9  C   UNL     1      -9.024   6.912  72.751  1.00  0.00    -0.130 C  
HETATM   10 CL   UNL     1      -9.204   6.204  74.376  1.00  0.00    -0.151 Cl 
HETATM   11  O   UNL     1     -10.145   4.980  71.843  1.00  0.00    -0.183 OA 
BRANCH   6  12
HETATM   12  C   UNL     1      -7.824   7.146  70.087  1.00  0.00    -0.108 C  
BRANCH  12  13
HETATM   13  C   UNL     1      -8.596   8.228  69.372  1.00  0.00    -0.134 A  
HETATM   14  C   UNL     1      -8.275   9.583  69.544  1.00  0.00    -0.134 A  
HETATM   15  C   UNL     1      -9.086  10.578  68.989  1.00  0.00    -0.188 A  
HETATM   16  C   UNL     1     -10.207  10.242  68.223  1.00  0.00    -0.159 A  
HETATM   17  C   UNL     1      -9.688   7.897  68.553  1.00  0.00    -0.167 A  
HETATM   18  C   UNL     1     -10.499   8.897  67.999  1.00  0.00    -0.263 A  
BRANCH  16  19
HETATM   19  O   UNL     1     -10.992  11.310  67.841  1.00  0.00    -0.213 OA 
BRANCH  19  20
HETATM   20  C   UNL     1     -11.549  12.145  68.781  1.00  0.00    -0.327 A  
HETATM   21  C   UNL     1     -11.923  11.560  69.997  1.00  0.00    -0.435 A  
HETATM   22  C   UNL     1     -12.443  12.349  71.028  1.00  0.00    -0.353 A  
HETATM   23  C   UNL     1     -12.586  13.730  70.833  1.00  0.00    -0.356 A  
HETATM   24  C   UNL     1     -12.176  14.323  69.631  1.00  0.00    -0.371 A  
HETATM   25  N   UNL     1     -13.159  14.562  71.896  1.00  0.00    -0.330 N  
HETATM   26  C   UNL     1     -11.640  13.530  68.617  1.00  0.00    -0.365 A  
HETATM   27  O   UNL     1     -13.446  14.014  72.968  1.00  0.00    -0.655 OA 
HETATM   28  O   UNL     1     -13.336  15.768  71.653  1.00  0.00    -0.487 OA 
ENDBRANCH  19  20
ENDBRANCH  16  19
ENDBRANCH  12  13
ENDBRANCH   6  12
ENDBRANCH   5   6
ENDBRANCH   4   5
ENDBRANCH   3   4
ENDBRANCH   2   3
TORSDOF 8
ENDMDL
MODEL      124
REMARK 921   NORMALIZED FREE ENERGY PREDICTED BY IDOCK:   -4.33 KCAL/MOL
REMARK 922        TOTAL FREE ENERGY PREDICTED BY IDOCK:   -7.29 KCAL/MOL
REMARK 923 INTER-LIGAND FREE ENERGY PREDICTED BY IDOCK:   -6.74 KCAL/MOL
REMARK 924 INTRA-LIGAND FREE ENERGY PREDICTED BY IDOCK:   -0.55 KCAL/MOL
REMARK 927      BINDING AFFINITY PREDICTED BY RF-SCORE:    0.00 PKD
ROOT
HETATM    1  C   UNL     1     -12.029   7.782  72.211  1.00  0.00    -0.356 C  
HETATM    2  C   UNL     1     -10.823   7.204  72.921  1.00  0.00    -0.323 C  
ENDROOT
BRANCH   2   3
HETATM    3  O   UNL     1     -10.680   5.806  72.645  1.00  0.00    -0.213 OA 
BRANCH   3   4
HETATM    4  C   UNL     1      -9.355   5.390  73.000  1.00  0.00    -0.136 C  
BRANCH   4   5
HETATM    5  C   UNL     1      -8.244   6.114  72.223  1.00  0.00    -0.109 C  
BRANCH   5   6
HETATM    6  N   UNL     1      -8.168   5.939  70.756  1.00  0.00    -0.122 N  
HETATM    7 CL   UNL     1      -6.336   3.987  68.446  1.00  0.00    -0.035 Cl 
HETATM    8  C   UNL     1      -8.191   4.589  70.311  1.00  0.00    -0.070 C  
HETATM    9  C   UNL     1      -8.050   4.303  68.806  1.00  0.00    -0.072 C  
HETATM   10 CL   UNL     1      -9.037   2.892  68.347  1.00  0.00    -0.195 Cl 
HETATM   11  O   UNL     1      -8.295   3.655  71.116  1.00  0.00    -0.066 OA 
BRANCH   6  12
HETATM   12  C   UNL     1      -7.628   6.998  69.877  1.00  0.00    -0.102 C  
BRANCH  12  13
HETATM   13  C   UNL     1      -8.503   8.182  69.541  1.00  0.00    -0.127 A  
HETATM   14  C   UNL     1      -7.967   9.475  69.440  1.00  0.00    -0.099 A  
HETATM   15  C   UNL     1      -8.809  10.578  69.270  1.00  0.00    -0.135 A  
HETATM   16  C   UNL     1     -10.194  10.411  69.160  1.00  0.00    -0.222 A  
HETATM   17  C   UNL     1      -9.887   8.015  69.371  1.00  0.00    -0.181 A  
HETATM   18  C   UNL     1     -10.729   9.123  69.201  1.00  0.00    -0.190 A  
BRANCH  16  19
HETATM   19  O   UNL     1     -10.920  11.583  69.123  1.00  0.00    -0.220 OA 
BRANCH  19  20
HETATM   20  C   UNL     1     -11.321  12.124  67.924  1.00  0.00    -0.300 A  
HETATM   21  C   UNL     1     -11.727  13.464  67.946  1.00  0.00    -0.396 A  
HETATM   22  C   UNL     1     -12.094  14.107  66.760  1.00  0.00    -0.474 A  
HETATM   23  C   UNL     1     -12.052  13.400  65.551  1.00  0.00    -0.428 A  
HETATM   24  C   UNL     1     -11.609  12.069  65.522  1.00  0.00    -0.352 A  
HETATM   25  N   UNL     1     -12.465  14.055  64.306  1.00  0.00    -0.328 N  
HETATM   26  C   UNL     1     -11.226  11.444  66.707  1.00  0.00    -0.319 A  
HETATM   27  O   UNL     1     -12.785  15.250  64.360  1.00  0.00    -0.428 OA 
HETATM   28  O   UNL     1     -12.482  13.369  63.270  1.00  0.00    -0.739 OA 
ENDBRANCH  19  20
ENDBRANCH  16  19
ENDBRANCH  12  13
ENDBRANCH   6  12
ENDBRANCH   5   6
ENDBRANCH   4   5
ENDBRANCH   3   4
ENDBRANCH   2   3
TORSDOF 8
ENDMDL
MODEL      125
REMARK 921   NORMALIZED FREE ENERGY PREDICTED BY IDOCK:   -4.24 KCAL/MOL
REMARK 922        TOTAL FREE ENERGY PREDICTED BY IDOCK:   -7.15 KCAL/MOL
REMARK 923 INTER-LIGAND FREE ENERGY PREDICTED BY IDOCK:   -6.51 KCAL/MOL
REMARK 924 INTRA-LIGAND FREE ENERGY PREDICTED BY IDOCK:   -0.65 KCAL/MOL
REMARK 927      BINDING AFFINITY PREDICTED BY RF-SCORE:    0.00 PKD
ROOT
HETATM    1  C   UNL     1     -10.496   3.974  73.767  1.00  0.00    -0.268 C  
HETATM    2  C   UNL     1      -9.140   4.289  73.171  1.00  0.00    -0.110 C  
ENDROOT
BRANCH   2   3
HETATM    3  O   UNL     1      -8.757   5.643  73.443  1.00  0.00    -0.118 OA 
BRANCH   3   4
HETATM    4  C   UNL     1      -7.628   5.984  72.628  1.00  0.00    -0.099 C  
BRANCH   4   5
HETATM    5  C   UNL     1      -8.000   6.569  71.257  1.00  0.00    -0.108 C  
BRANCH   5   6
HETATM    6  N   UNL     1      -9.122   5.965  70.504  1.00  0.00    -0.147 N  
HETATM    7 CL   UNL     1     -10.258   5.837  67.158  1.00  0.00    -0.215 Cl 
HETATM    8  C   UNL     1      -8.747   5.272  69.322  1.00  0.00    -0.100 C  
HETATM    9  C   UNL     1      -9.850   4.668  68.436  1.00  0.00    -0.102 C  
HETATM   10 CL   UNL     1      -9.293   3.140  67.706  1.00  0.00    -0.249 Cl 
HETATM   11  O   UNL     1      -7.558   5.176  68.990  1.00  0.00    -0.074 OA 
BRANCH   6  12
HETATM   12  C   UNL     1     -10.512   6.442  70.673  1.00  0.00    -0.219 C  
BRANCH  12  13
HETATM   13  C   UNL     1     -10.795   7.920  70.552  1.00  0.00    -0.242 A  
HETATM   14  C   UNL     1     -11.511   8.605  71.545  1.00  0.00    -0.363 A  
HETATM   15  C   UNL     1     -11.887   9.938  71.353  1.00  0.00    -0.476 A  
HETATM   16  C   UNL     1     -11.524  10.623  70.188  1.00  0.00    -0.329 A  
HETATM   17  C   UNL     1     -10.383   8.629  69.412  1.00  0.00    -0.221 A  
HETATM   18  C   UNL     1     -10.762   9.965  69.222  1.00  0.00    -0.247 A  
BRANCH  16  19
HETATM   19  O   UNL     1     -12.063  11.887  70.065  1.00  0.00    -0.311 OA 
BRANCH  19  20
HETATM   20  C   UNL     1     -11.549  12.785  69.160  1.00  0.00    -0.319 A  
HETATM   21  C   UNL     1     -11.926  12.615  67.823  1.00  0.00    -0.303 A  
HETATM   22  C   UNL     1     -11.495  13.519  66.848  1.00  0.00    -0.374 A  
HETATM   23  C   UNL     1     -10.681  14.598  67.221  1.00  0.00    -0.290 A  
HETATM   24  C   UNL     1     -10.333  14.793  68.566  1.00  0.00    -0.237 A  
HETATM   25  N   UNL     1     -10.197  15.535  66.203  1.00  0.00    -0.286 N  
HETATM   26  C   UNL     1     -10.786  13.896  69.533  1.00  0.00    -0.045 A  
HETATM   27  O   UNL     1     -10.580  15.371  65.038  1.00  0.00    -0.414 OA 
HETATM   28  O   UNL     1      -9.419  16.433  66.567  1.00  0.00    -0.240 OA 
ENDBRANCH  19  20
ENDBRANCH  16  19
ENDBRANCH  12  13
ENDBRANCH   6  12
ENDBRANCH   5   6
ENDBRANCH   4   5
ENDBRANCH   3   4
ENDBRANCH   2   3
TORSDOF 8
ENDMDL
MODEL      126
REMARK 921   NORMALIZED FREE ENERGY PREDICTED BY IDOCK:   -4.23 KCAL/MOL
REMARK 922        TOTAL FREE ENERGY PREDICTED BY IDOCK:   -7.15 KCAL/MOL
REMARK 923 INTER-LIGAND FREE ENERGY PREDICTED BY IDOCK:   -7.58 KCAL/MOL
REMARK 924 INTRA-LIGAND FREE ENERGY PREDICTED BY IDOCK:    0.44 KCAL/MOL
REMARK 927      BINDING AFFINITY PREDICTED BY RF-SCORE:    0.00 PKD
ROOT
HETATM    1  C   UNL     1     -10.035   4.774  69.197  1.00  0.00    -0.233 C  
HETATM    2  C   UNL     1      -9.926   5.968  68.272  1.00  0.00    -0.147 C  
ENDROOT
BRANCH   2   3
HETATM    3  O   UNL     1     -10.821   7.014  68.668  1.00  0.00    -0.204 OA 
BRANCH   3   4
HETATM    4  C   UNL     1     -10.509   8.203  67.930  1.00  0.00    -0.197 C  
BRANCH   4   5
HETATM    5  C   UNL     1     -10.001   7.939  66.504  1.00  0.00    -0.197 C  
BRANCH   5   6
HETATM    6  N   UNL     1      -9.137   8.950  65.855  1.00  0.00    -0.204 N  
HETATM    7 CL   UNL     1      -7.243  11.776  66.817  1.00  0.00    -0.097 Cl 
HETATM    8  C   UNL     1      -7.891   9.176  66.499  1.00  0.00    -0.100 C  
HETATM    9  C   UNL     1      -6.952  10.257  65.937  1.00  0.00    -0.126 C  
HETATM   10 CL   UNL     1      -5.250   9.762  66.125  1.00  0.00    -0.038 Cl 
HETATM   11  O   UNL     1      -7.571   8.536  67.509  1.00  0.00    -0.095 OA 
BRANCH   6  12
HETATM   12  C   UNL     1      -9.694   9.971  64.942  1.00  0.00    -0.307 C  
BRANCH  12  13
HETATM   13  C   UNL     1     -10.241  11.251  65.527  1.00  0.00    -0.312 A  
HETATM   14  C   UNL     1     -10.185  12.457  64.813  1.00  0.00    -0.303 A  
HETATM   15  C   UNL     1     -10.565  13.657  65.422  1.00  0.00    -0.322 A  
HETATM   16  C   UNL     1     -11.040  13.673  66.738  1.00  0.00    -0.307 A  
HETATM   17  C   UNL     1     -10.774  11.265  66.826  1.00  0.00    -0.323 A  
HETATM   18  C   UNL     1     -11.153  12.470  67.435  1.00  0.00    -0.317 A  
BRANCH  16  19
HETATM   19  O   UNL     1     -11.260  14.930  67.262  1.00  0.00    -0.326 OA 
BRANCH  19  20
HETATM   20  C   UNL     1     -11.564  15.093  68.593  1.00  0.00    -0.338 A  
HETATM   21  C   UNL     1     -12.355  14.100  69.182  1.00  0.00    -0.173 A  
HETATM   22  C   UNL     1     -12.662  14.160  70.545  1.00  0.00    -0.374 A  
HETATM   23  C   UNL     1     -12.170  15.223  71.316  1.00  0.00    -0.347 A  
HETATM   24  C   UNL     1     -11.345  16.198  70.736  1.00  0.00    -0.397 A  
HETATM   25  N   UNL     1     -12.511  15.313  72.739  1.00  0.00    -0.359 N  
HETATM   26  C   UNL     1     -11.029  16.117  69.380  1.00  0.00    -0.333 A  
HETATM   27  O   UNL     1     -13.184  14.398  73.231  1.00  0.00    -0.622 OA 
HETATM   28  O   UNL     1     -12.114  16.309  73.366  1.00  0.00    -0.485 OA 
ENDBRANCH  19  20
ENDBRANCH  16  19
ENDBRANCH  12  13
ENDBRANCH   6  12
ENDBRANCH   5   6
ENDBRANCH   4   5
ENDBRANCH   3   4
ENDBRANCH   2   3
TORSDOF 8
ENDMDL
MODEL      127
REMARK 921   NORMALIZED FREE ENERGY PREDICTED BY IDOCK:   -4.23 KCAL/MOL
REMARK 922        TOTAL FREE ENERGY PREDICTED BY IDOCK:   -7.13 KCAL/MOL
REMARK 923 INTER-LIGAND FREE ENERGY PREDICTED BY IDOCK:   -6.38 KCAL/MOL
REMARK 924 INTRA-LIGAND FREE ENERGY PREDICTED BY IDOCK:   -0.75 KCAL/MOL
REMARK 927      BINDING AFFINITY PREDICTED BY RF-SCORE:    0.00 PKD
ROOT
HETATM    1  C   UNL     1     -10.075  18.794  68.577  1.00  0.00    -0.444 C  
HETATM    2  C   UNL     1      -9.097  17.766  68.050  1.00  0.00    -0.269 C  
ENDROOT
BRANCH   2   3
HETATM    3  O   UNL     1      -9.730  16.494  67.867  1.00  0.00    -0.231 OA 
BRANCH   3   4
HETATM    4  C   UNL     1      -8.752  15.456  68.011  1.00  0.00    -0.160 C  
BRANCH   4   5
HETATM    5  C   UNL     1      -8.594  14.569  66.767  1.00  0.00    -0.131 C  
BRANCH   5   6
HETATM    6  N   UNL     1      -9.673  13.615  66.428  1.00  0.00    -0.289 N  
HETATM    7 CL   UNL     1     -13.156  13.714  65.824  1.00  0.00    -0.260 Cl 
HETATM    8  C   UNL     1     -10.515  14.019  65.357  1.00  0.00    -0.351 C  
HETATM    9  C   UNL     1     -11.707  13.125  64.975  1.00  0.00    -0.337 C  
HETATM   10 CL   UNL     1     -11.977  13.167  63.213  1.00  0.00    -0.570 Cl 
HETATM   11  O   UNL     1     -10.315  15.082  64.755  1.00  0.00    -0.349 OA 
BRANCH   6  12
HETATM   12  C   UNL     1     -10.144  12.603  67.398  1.00  0.00    -0.218 C  
BRANCH  12  13
HETATM   13  C   UNL     1      -9.696  11.171  67.230  1.00  0.00    -0.186 A  
HETATM   14  C   UNL     1     -10.602  10.167  66.854  1.00  0.00    -0.267 A  
HETATM   15  C   UNL     1     -10.205   8.826  66.841  1.00  0.00    -0.357 A  
HETATM   16  C   UNL     1      -8.893   8.465  67.165  1.00  0.00    -0.130 A  
HETATM   17  C   UNL     1      -8.366  10.808  67.496  1.00  0.00    -0.115 A  
HETATM   18  C   UNL     1      -7.972   9.463  67.483  1.00  0.00    -0.102 A  
BRANCH  16  19
HETATM   19  O   UNL     1      -8.665   7.107  67.238  1.00  0.00    -0.120 OA 
BRANCH  19  20
HETATM   20  C   UNL     1      -9.023   6.393  68.357  1.00  0.00    -0.120 A  
HETATM   21  C   UNL     1      -9.324   7.135  69.505  1.00  0.00    -0.148 A  
HETATM   22  C   UNL     1      -9.753   6.489  70.669  1.00  0.00    -0.194 A  
HETATM   23  C   UNL     1      -9.879   5.093  70.676  1.00  0.00    -0.205 A  
HETATM   24  C   UNL     1      -9.615   4.351  69.515  1.00  0.00    -0.271 A  
HETATM   25  N   UNL     1     -10.298   4.403  71.900  1.00  0.00    -0.144 N  
HETATM   26  C   UNL     1      -9.207   5.007  68.354  1.00  0.00    -0.150 A  
HETATM   27  O   UNL     1     -10.588   5.096  72.883  1.00  0.00    -0.202 OA 
HETATM   28  O   UNL     1     -10.325   3.161  71.882  1.00  0.00    -0.065 OA 
ENDBRANCH  19  20
ENDBRANCH  16  19
ENDBRANCH  12  13
ENDBRANCH   6  12
ENDBRANCH   5   6
ENDBRANCH   4   5
ENDBRANCH   3   4
ENDBRANCH   2   3
TORSDOF 8
ENDMDL
MODEL      128
REMARK 921   NORMALIZED FREE ENERGY PREDICTED BY IDOCK:   -4.18 KCAL/MOL
REMARK 922        TOTAL FREE ENERGY PREDICTED BY IDOCK:   -7.07 KCAL/MOL
REMARK 923 INTER-LIGAND FREE ENERGY PREDICTED BY IDOCK:   -6.59 KCAL/MOL
REMARK 924 INTRA-LIGAND FREE ENERGY PREDICTED BY IDOCK:   -0.47 KCAL/MOL
REMARK 927      BINDING AFFINITY PREDICTED BY RF-SCORE:    0.00 PKD
ROOT
HETATM    1  C   UNL     1      -7.551  14.313  67.613  1.00  0.00    -0.191 C  
HETATM    2  C   UNL     1      -7.218  15.710  67.136  1.00  0.00    -0.195 C  
ENDROOT
BRANCH   2   3
HETATM    3  O   UNL     1      -8.367  16.353  66.571  1.00  0.00    -0.241 OA 
BRANCH   3   4
HETATM    4  C   UNL     1      -9.299  15.354  66.138  1.00  0.00    -0.332 C  
BRANCH   4   5
HETATM    5  C   UNL     1     -10.767  15.699  66.432  1.00  0.00    -0.291 C  
BRANCH   5   6
HETATM    6  N   UNL     1     -11.623  14.685  67.086  1.00  0.00    -0.375 N  
HETATM    7 CL   UNL     1     -11.239  12.043  69.405  1.00  0.00    -0.288 Cl 
HETATM    8  C   UNL     1     -11.453  14.574  68.492  1.00  0.00    -0.301 C  
HETATM    9  C   UNL     1     -12.249  13.500  69.253  1.00  0.00    -0.211 C  
HETATM   10 CL   UNL     1     -12.707  14.094  70.870  1.00  0.00    -0.418 Cl 
HETATM   11  O   UNL     1     -10.660  15.307  69.098  1.00  0.00    -0.229 OA 
BRANCH   6  12
HETATM   12  C   UNL     1     -12.219  13.567  66.323  1.00  0.00    -0.416 C  
BRANCH  12  13
HETATM   13  C   UNL     1     -11.313  12.677  65.507  1.00  0.00    -0.356 A  
HETATM   14  C   UNL     1     -10.929  13.031  64.205  1.00  0.00    -0.427 A  
HETATM   15  C   UNL     1     -10.207  12.134  63.412  1.00  0.00    -0.422 A  
HETATM   16  C   UNL     1      -9.824  10.885  63.912  1.00  0.00    -0.331 A  
HETATM   17  C   UNL     1     -10.875  11.447  66.024  1.00  0.00    -0.306 A  
HETATM   18  C   UNL     1     -10.153  10.549  65.226  1.00  0.00    -0.369 A  
BRANCH  16  19
HETATM   19  O   UNL     1      -9.231  10.047  62.991  1.00  0.00    -0.262 OA 
BRANCH  19  20
HETATM   20  C   UNL     1      -8.394   9.035  63.399  1.00  0.00    -0.187 A  
HETATM   21  C   UNL     1      -8.277   7.934  62.543  1.00  0.00    -0.130 A  
HETATM   22  C   UNL     1      -7.403   6.888  62.854  1.00  0.00    -0.073 A  
HETATM   23  C   UNL     1      -6.643   6.953  64.031  1.00  0.00    -0.039 A  
HETATM   24  C   UNL     1      -6.730   8.073  64.870  1.00  0.00    -0.051 A  
HETATM   25  N   UNL     1      -5.747   5.848  64.383  1.00  0.00    -0.021 N  
HETATM   26  C   UNL     1      -7.590   9.119  64.539  1.00  0.00    -0.107 A  
HETATM   27  O   UNL     1      -5.645   4.908  63.585  1.00  0.00    -0.015 OA 
HETATM   28  O   UNL     1      -5.149   5.913  65.471  1.00  0.00    -0.009 OA 
ENDBRANCH  19  20
ENDBRANCH  16  19
ENDBRANCH  12  13
ENDBRANCH   6  12
ENDBRANCH   5   6
ENDBRANCH   4   5
ENDBRANCH   3   4
ENDBRANCH   2   3
TORSDOF 8
ENDMDL
MODEL      129
REMARK 921   NORMALIZED FREE ENERGY PREDICTED BY IDOCK:   -4.18 KCAL/MOL
REMARK 922        TOTAL FREE ENERGY PREDICTED BY IDOCK:   -7.07 KCAL/MOL
REMARK 923 INTER-LIGAND FREE ENERGY PREDICTED BY IDOCK:   -6.12 KCAL/MOL
REMARK 924 INTRA-LIGAND FREE ENERGY PREDICTED BY IDOCK:   -0.95 KCAL/MOL
REMARK 927      BINDING AFFINITY PREDICTED BY RF-SCORE:    0.00 PKD
ROOT
HETATM    1  C   UNL     1     -12.863  14.368  65.395  1.00  0.00    -0.235 C  
HETATM    2  C   UNL     1     -11.974  13.742  66.448  1.00  0.00    -0.438 C  
ENDROOT
BRANCH   2   3
HETATM    3  O   UNL     1     -12.065  12.312  66.420  1.00  0.00    -0.623 OA 
BRANCH   3   4
HETATM    4  C   UNL     1     -11.682  11.843  65.121  1.00  0.00    -0.179 C  
BRANCH   4   5
HETATM    5  C   UNL     1     -10.179  11.969  64.829  1.00  0.00    -0.279 C  
BRANCH   5   6
HETATM    6  N   UNL     1      -9.231  11.123  65.588  1.00  0.00    -0.215 N  
HETATM    7 CL   UNL     1      -5.815  11.194  66.498  1.00  0.00    -0.129 Cl 
HETATM    8  C   UNL     1      -8.440  11.818  66.543  1.00  0.00    -0.125 C  
HETATM    9  C   UNL     1      -7.378  11.036  67.334  1.00  0.00    -0.105 C  
HETATM   10 CL   UNL     1      -7.246  11.672  68.994  1.00  0.00    -0.111 Cl 
HETATM   11  O   UNL     1      -8.580  13.035  66.721  1.00  0.00    -0.162 OA 
BRANCH   6  12
HETATM   12  C   UNL     1      -8.789   9.807  65.078  1.00  0.00    -0.191 C  
BRANCH  12  13
HETATM   13  C   UNL     1      -9.311   8.556  65.743  1.00  0.00    -0.187 A  
HETATM   14  C   UNL     1     -10.430   8.598  66.588  1.00  0.00    -0.239 A  
HETATM   15  C   UNL     1     -10.816   7.461  67.307  1.00  0.00    -0.326 A  
HETATM   16  C   UNL     1     -10.118   6.257  67.169  1.00  0.00    -0.168 A  
HETATM   17  C   UNL     1      -8.652   7.329  65.563  1.00  0.00    -0.090 A  
HETATM   18  C   UNL     1      -9.040   6.193  66.286  1.00  0.00    -0.165 A  
BRANCH  16  19
HETATM   19  O   UNL     1     -10.519   5.252  68.024  1.00  0.00    -0.153 OA 
BRANCH  19  20
HETATM   20  C   UNL     1     -10.300   5.352  69.378  1.00  0.00    -0.269 A  
HETATM   21  C   UNL     1      -9.253   4.586  69.903  1.00  0.00    -0.193 A  
HETATM   22  C   UNL     1      -8.927   4.674  71.260  1.00  0.00    -0.164 A  
HETATM   23  C   UNL     1      -9.657   5.537  72.089  1.00  0.00    -0.150 A  
HETATM   24  C   UNL     1     -10.681   6.335  71.557  1.00  0.00    -0.292 A  
HETATM   25  N   UNL     1      -9.344   5.615  73.519  1.00  0.00    -0.138 N  
HETATM   26  C   UNL     1     -10.984   6.254  70.199  1.00  0.00    -0.411 A  
HETATM   27  O   UNL     1      -8.390   4.948  73.940  1.00  0.00    -0.104 OA 
HETATM   28  O   UNL     1     -10.064   6.337  74.230  1.00  0.00    -0.273 OA 
ENDBRANCH  19  20
ENDBRANCH  16  19
ENDBRANCH  12  13
ENDBRANCH   6  12
ENDBRANCH   5   6
ENDBRANCH   4   5
ENDBRANCH   3   4
ENDBRANCH   2   3
TORSDOF 8
ENDMDL
MODEL      130
REMARK 921   NORMALIZED FREE ENERGY PREDICTED BY IDOCK:   -4.17 KCAL/MOL
REMARK 922        TOTAL FREE ENERGY PREDICTED BY IDOCK:   -7.05 KCAL/MOL
REMARK 923 INTER-LIGAND FREE ENERGY PREDICTED BY IDOCK:   -6.74 KCAL/MOL
REMARK 924 INTRA-LIGAND FREE ENERGY PREDICTED BY IDOCK:   -0.31 KCAL/MOL
REMARK 927      BINDING AFFINITY PREDICTED BY RF-SCORE:    0.00 PKD
ROOT
HETATM    1  C   UNL     1      -8.965  18.069  68.431  1.00  0.00    -0.286 C  
HETATM    2  C   UNL     1     -10.443  17.745  68.493  1.00  0.00    -0.328 C  
ENDROOT
BRANCH   2   3
HETATM    3  O   UNL     1     -10.779  16.682  67.593  1.00  0.00    -0.333 OA 
BRANCH   3   4
HETATM    4  C   UNL     1      -9.697  15.743  67.551  1.00  0.00    -0.226 C  
BRANCH   4   5
HETATM    5  C   UNL     1      -9.887  14.529  68.475  1.00  0.00    -0.231 C  
BRANCH   5   6
HETATM    6  N   UNL     1     -11.254  14.178  68.920  1.00  0.00    -0.253 N  
HETATM    7 CL   UNL     1     -12.800  12.834  71.802  1.00  0.00    -0.381 Cl 
HETATM    8  C   UNL     1     -11.605  14.657  70.211  1.00  0.00    -0.280 C  
HETATM    9  C   UNL     1     -12.981  14.286  70.789  1.00  0.00    -0.304 C  
HETATM   10 CL   UNL     1     -13.628  15.630  71.765  1.00  0.00    -0.550 Cl 
HETATM   11  O   UNL     1     -10.813  15.339  70.875  1.00  0.00    -0.301 OA 
BRANCH   6  12
HETATM   12  C   UNL     1     -11.995  13.045  68.325  1.00  0.00    -0.267 C  
BRANCH  12  13
HETATM   13  C   UNL     1     -11.481  11.643  68.546  1.00  0.00    -0.358 A  
HETATM   14  C   UNL     1     -11.221  11.161  69.837  1.00  0.00    -0.293 A  
HETATM   15  C   UNL     1     -10.613   9.915  70.018  1.00  0.00    -0.335 A  
HETATM   16  C   UNL     1     -10.287   9.112  68.920  1.00  0.00    -0.214 A  
HETATM   17  C   UNL     1     -11.206  10.808  67.451  1.00  0.00    -0.315 A  
HETATM   18  C   UNL     1     -10.596   9.560  67.635  1.00  0.00    -0.329 A  
BRANCH  16  19
HETATM   19  O   UNL     1      -9.579   7.968  69.225  1.00  0.00    -0.156 OA 
BRANCH  19  20
HETATM   20  C   UNL     1      -8.876   7.870  70.402  1.00  0.00    -0.142 A  
HETATM   21  C   UNL     1      -8.921   6.635  71.059  1.00  0.00    -0.146 A  
HETATM   22  C   UNL     1      -8.187   6.433  72.232  1.00  0.00    -0.107 A  
HETATM   23  C   UNL     1      -7.404   7.478  72.743  1.00  0.00    -0.080 A  
HETATM   24  C   UNL     1      -7.327   8.704  72.066  1.00  0.00    -0.076 A  
HETATM   25  N   UNL     1      -6.654   7.288  73.988  1.00  0.00    -0.076 N  
HETATM   26  C   UNL     1      -8.048   8.887  70.886  1.00  0.00    -0.196 A  
HETATM   27  O   UNL     1      -6.692   6.172  74.521  1.00  0.00    -0.078 OA 
HETATM   28  O   UNL     1      -6.034   8.263  74.444  1.00  0.00    -0.099 OA 
ENDBRANCH  19  20
ENDBRANCH  16  19
ENDBRANCH  12  13
ENDBRANCH   6  12
ENDBRANCH   5   6
ENDBRANCH   4   5
ENDBRANCH   3   4
ENDBRANCH   2   3
TORSDOF 8
ENDMDL
MODEL      131
REMARK 921   NORMALIZED FREE ENERGY PREDICTED BY IDOCK:   -4.16 KCAL/MOL
REMARK 922        TOTAL FREE ENERGY PREDICTED BY IDOCK:   -7.05 KCAL/MOL
REMARK 923 INTER-LIGAND FREE ENERGY PREDICTED BY IDOCK:   -6.02 KCAL/MOL
REMARK 924 INTRA-LIGAND FREE ENERGY PREDICTED BY IDOCK:   -1.02 KCAL/MOL
REMARK 927      BINDING AFFINITY PREDICTED BY RF-SCORE:    0.00 PKD
ROOT
HETATM    1  C   UNL     1     -10.970   5.848  69.997  1.00  0.00    -0.430 C  
HETATM    2  C   UNL     1     -10.928   7.340  69.746  1.00  0.00    -0.216 C  
ENDROOT
BRANCH   2   3
HETATM    3  O   UNL     1      -9.942   7.977  70.569  1.00  0.00    -0.189 OA 
BRANCH   3   4
HETATM    4  C   UNL     1      -9.396   9.099  69.865  1.00  0.00    -0.186 C  
BRANCH   4   5
HETATM    5  C   UNL     1      -8.875   8.761  68.459  1.00  0.00    -0.138 C  
BRANCH   5   6
HETATM    6  N   UNL     1      -8.824   9.832  67.440  1.00  0.00    -0.132 N  
HETATM    7 CL   UNL     1      -9.417  10.172  63.971  1.00  0.00    -0.338 Cl 
HETATM    8  C   UNL     1      -9.967   9.915  66.600  1.00  0.00    -0.217 C  
HETATM    9  C   UNL     1      -9.980  10.955  65.466  1.00  0.00    -0.260 C  
HETATM   10 CL   UNL     1     -11.625  11.600  65.233  1.00  0.00    -0.188 Cl 
HETATM   11  O   UNL     1     -10.929   9.151  66.756  1.00  0.00    -0.018 OA 
BRANCH   6  12
HETATM   12  C   UNL     1      -7.541  10.426  67.004  1.00  0.00    -0.101 C  
BRANCH  12  13
HETATM   13  C   UNL     1      -7.150  11.784  67.535  1.00  0.00    -0.113 A  
HETATM   14  C   UNL     1      -8.043  12.548  68.300  1.00  0.00    -0.165 A  
HETATM   15  C   UNL     1      -7.720  13.859  68.665  1.00  0.00    -0.128 A  
HETATM   16  C   UNL     1      -6.489  14.418  68.306  1.00  0.00    -0.115 A  
HETATM   17  C   UNL     1      -5.892  12.329  67.229  1.00  0.00    -0.143 A  
HETATM   18  C   UNL     1      -5.572  13.644  67.595  1.00  0.00    -0.015 A  
BRANCH  16  19
HETATM   19  O   UNL     1      -6.345  15.755  68.615  1.00  0.00    -0.104 OA 
BRANCH  19  20
HETATM   20  C   UNL     1      -7.216  16.691  68.109  1.00  0.00    -0.157 A  
HETATM   21  C   UNL     1      -7.469  17.810  68.910  1.00  0.00    -0.235 A  
HETATM   22  C   UNL     1      -8.297  18.836  68.446  1.00  0.00    -0.373 A  
HETATM   23  C   UNL     1      -8.871  18.735  67.171  1.00  0.00    -0.278 A  
HETATM   24  C   UNL     1      -8.589  17.632  66.351  1.00  0.00    -0.269 A  
HETATM   25  N   UNL     1      -9.766  19.790  66.686  1.00  0.00    -0.376 N  
HETATM   26  C   UNL     1      -7.745  16.624  66.817  1.00  0.00    -0.292 A  
HETATM   27  O   UNL     1      -9.938  20.779  67.409  1.00  0.00    -0.426 OA 
HETATM   28  O   UNL     1     -10.311  19.623  65.581  1.00  0.00    -0.420 OA 
ENDBRANCH  19  20
ENDBRANCH  16  19
ENDBRANCH  12  13
ENDBRANCH   6  12
ENDBRANCH   5   6
ENDBRANCH   4   5
ENDBRANCH   3   4
ENDBRANCH   2   3
TORSDOF 8
ENDMDL
MODEL      132
REMARK 921   NORMALIZED FREE ENERGY PREDICTED BY IDOCK:   -4.16 KCAL/MOL
REMARK 922        TOTAL FREE ENERGY PREDICTED BY IDOCK:   -7.03 KCAL/MOL
REMARK 923 INTER-LIGAND FREE ENERGY PREDICTED BY IDOCK:   -6.54 KCAL/MOL
REMARK 924 INTRA-LIGAND FREE ENERGY PREDICTED BY IDOCK:   -0.49 KCAL/MOL
REMARK 927      BINDING AFFINITY PREDICTED BY RF-SCORE:    0.00 PKD
ROOT
HETATM    1  C   UNL     1      -6.839   6.036  69.301  1.00  0.00    -0.062 C  
HETATM    2  C   UNL     1      -5.584   5.420  69.883  1.00  0.00    -0.012 C  
ENDROOT
BRANCH   2   3
HETATM    3  O   UNL     1      -5.358   5.872  71.223  1.00  0.00    -0.016 OA 
BRANCH   3   4
HETATM    4  C   UNL     1      -6.513   6.588  71.678  1.00  0.00    -0.050 C  
BRANCH   4   5
HETATM    5  C   UNL     1      -6.724   6.532  73.199  1.00  0.00    -0.073 C  
BRANCH   5   6
HETATM    6  N   UNL     1      -7.996   5.988  73.724  1.00  0.00    -0.102 N  
HETATM    7 CL   UNL     1     -10.758   4.151  72.499  1.00  0.00    -0.160 Cl 
HETATM    8  C   UNL     1      -8.254   4.633  73.384  1.00  0.00    -0.103 C  
HETATM    9  C   UNL     1      -9.584   3.998  73.827  1.00  0.00    -0.105 C  
HETATM   10 CL   UNL     1      -9.347   2.279  74.233  1.00  0.00    -0.091 Cl 
HETATM   11  O   UNL     1      -7.441   3.976  72.721  1.00  0.00    -0.069 OA 
BRANCH   6  12
HETATM   12  C   UNL     1      -9.110   6.875  74.126  1.00  0.00    -0.207 C  
BRANCH  12  13
HETATM   13  C   UNL     1      -9.954   7.516  73.051  1.00  0.00    -0.321 A  
HETATM   14  C   UNL     1      -9.366   8.105  71.922  1.00  0.00    -0.251 A  
HETATM   15  C   UNL     1     -10.148   8.817  71.008  1.00  0.00    -0.301 A  
HETATM   16  C   UNL     1     -11.532   8.925  71.181  1.00  0.00    -0.301 A  
HETATM   17  C   UNL     1     -11.350   7.577  73.189  1.00  0.00    -0.232 A  
HETATM   18  C   UNL     1     -12.132   8.292  72.271  1.00  0.00    -0.439 A  
BRANCH  16  19
HETATM   19  O   UNL     1     -12.168   9.757  70.284  1.00  0.00    -0.135 OA 
BRANCH  19  20
HETATM   20  C   UNL     1     -12.310  11.099  70.549  1.00  0.00    -0.364 A  
HETATM   21  C   UNL     1     -11.665  11.982  69.675  1.00  0.00    -0.405 A  
HETATM   22  C   UNL     1     -11.805  13.363  69.839  1.00  0.00    -0.385 A  
HETATM   23  C   UNL     1     -12.599  13.856  70.885  1.00  0.00    -0.361 A  
HETATM   24  C   UNL     1     -13.277  12.973  71.737  1.00  0.00    -0.486 A  
HETATM   25  N   UNL     1     -12.729  15.302  71.085  1.00  0.00    -0.374 N  
HETATM   26  C   UNL     1     -13.145  11.597  71.552  1.00  0.00    -0.405 A  
HETATM   27  O   UNL     1     -12.171  16.051  70.272  1.00  0.00    -0.296 OA 
HETATM   28  O   UNL     1     -13.381  15.694  72.067  1.00  0.00    -0.441 OA 
ENDBRANCH  19  20
ENDBRANCH  16  19
ENDBRANCH  12  13
ENDBRANCH   6  12
ENDBRANCH   5   6
ENDBRANCH   4   5
ENDBRANCH   3   4
ENDBRANCH   2   3
TORSDOF 8
ENDMDL
MODEL      133
REMARK 921   NORMALIZED FREE ENERGY PREDICTED BY IDOCK:   -4.14 KCAL/MOL
REMARK 922        TOTAL FREE ENERGY PREDICTED BY IDOCK:   -7.01 KCAL/MOL
REMARK 923 INTER-LIGAND FREE ENERGY PREDICTED BY IDOCK:   -6.41 KCAL/MOL
REMARK 924 INTRA-LIGAND FREE ENERGY PREDICTED BY IDOCK:   -0.60 KCAL/MOL
REMARK 927      BINDING AFFINITY PREDICTED BY RF-SCORE:    0.00 PKD
ROOT
HETATM    1  C   UNL     1     -10.008   6.347  70.665  1.00  0.00    -0.213 C  
HETATM    2  C   UNL     1     -10.816   7.570  70.287  1.00  0.00    -0.246 C  
ENDROOT
BRANCH   2   3
HETATM    3  O   UNL     1     -10.346   8.735  70.975  1.00  0.00    -0.203 OA 
BRANCH   3   4
HETATM    4  C   UNL     1     -10.628   9.895  70.182  1.00  0.00    -0.297 C  
BRANCH   4   5
HETATM    5  C   UNL     1     -10.214   9.760  68.708  1.00  0.00    -0.194 C  
BRANCH   5   6
HETATM    6  N   UNL     1      -9.970  10.988  67.920  1.00  0.00    -0.171 N  
HETATM    7 CL   UNL     1     -11.171  12.467  64.941  1.00  0.00    -0.341 Cl 
HETATM    8  C   UNL     1     -11.140  11.691  67.526  1.00  0.00    -0.276 C  
HETATM    9  C   UNL     1     -10.991  12.944  66.646  1.00  0.00    -0.276 C  
HETATM   10 CL   UNL     1     -12.229  14.153  67.072  1.00  0.00    -0.441 Cl 
HETATM   11  O   UNL     1     -12.264  11.293  67.858  1.00  0.00    -0.570 OA 
BRANCH   6  12
HETATM   12  C   UNL     1      -8.699  11.201  67.194  1.00  0.00    -0.141 C  
BRANCH  12  13
HETATM   13  C   UNL     1      -7.729  12.237  67.711  1.00  0.00    -0.139 A  
HETATM   14  C   UNL     1      -8.157  13.273  68.554  1.00  0.00    -0.094 A  
HETATM   15  C   UNL     1      -7.280  14.303  68.909  1.00  0.00    -0.125 A  
HETATM   16  C   UNL     1      -5.954  14.299  68.463  1.00  0.00    -0.093 A  
HETATM   17  C   UNL     1      -6.382  12.207  67.315  1.00  0.00    -0.152 A  
HETATM   18  C   UNL     1      -5.506  13.240  67.672  1.00  0.00    -0.054 A  
BRANCH  16  19
HETATM   19  O   UNL     1      -5.231  15.431  68.777  1.00  0.00    -0.094 OA 
BRANCH  19  20
HETATM   20  C   UNL     1      -5.618  16.665  68.309  1.00  0.00    -0.118 A  
HETATM   21  C   UNL     1      -6.045  16.725  66.977  1.00  0.00    -0.218 A  
HETATM   22  C   UNL     1      -6.510  17.929  66.439  1.00  0.00    -0.263 A  
HETATM   23  C   UNL     1      -6.546  19.075  67.246  1.00  0.00    -0.193 A  
HETATM   24  C   UNL     1      -6.155  19.008  68.592  1.00  0.00    -0.237 A  
HETATM   25  N   UNL     1      -7.002  20.350  66.685  1.00  0.00    -0.248 N  
HETATM   26  C   UNL     1      -5.712  17.797  69.123  1.00  0.00    -0.201 A  
HETATM   27  O   UNL     1      -7.403  20.356  65.514  1.00  0.00    -0.240 OA 
HETATM   28  O   UNL     1      -6.947  21.355  67.414  1.00  0.00    -0.572 OA 
ENDBRANCH  19  20
ENDBRANCH  16  19
ENDBRANCH  12  13
ENDBRANCH   6  12
ENDBRANCH   5   6
ENDBRANCH   4   5
ENDBRANCH   3   4
ENDBRANCH   2   3
TORSDOF 8
ENDMDL
MODEL      134
REMARK 921   NORMALIZED FREE ENERGY PREDICTED BY IDOCK:   -4.13 KCAL/MOL
REMARK 922        TOTAL FREE ENERGY PREDICTED BY IDOCK:   -6.99 KCAL/MOL
REMARK 923 INTER-LIGAND FREE ENERGY PREDICTED BY IDOCK:   -6.63 KCAL/MOL
REMARK 924 INTRA-LIGAND FREE ENERGY PREDICTED BY IDOCK:   -0.36 KCAL/MOL
REMARK 927      BINDING AFFINITY PREDICTED BY RF-SCORE:    0.00 PKD
ROOT
HETATM    1  C   UNL     1     -10.350   5.421  69.027  1.00  0.00    -0.282 C  
HETATM    2  C   UNL     1     -10.228   6.707  68.238  1.00  0.00    -0.171 C  
ENDROOT
BRANCH   2   3
HETATM    3  O   UNL     1     -10.740   7.821  68.980  1.00  0.00    -0.195 OA 
BRANCH   3   4
HETATM    4  C   UNL     1     -10.649   9.003  68.175  1.00  0.00    -0.171 C  
BRANCH   4   5
HETATM    5  C   UNL     1     -10.241   8.738  66.718  1.00  0.00    -0.284 C  
BRANCH   5   6
HETATM    6  N   UNL     1      -9.297   9.669  66.060  1.00  0.00    -0.190 N  
HETATM    7 CL   UNL     1      -7.221  12.376  66.987  1.00  0.00    -0.072 Cl 
HETATM    8  C   UNL     1      -8.048   9.822  66.720  1.00  0.00    -0.120 C  
HETATM    9  C   UNL     1      -7.026  10.819  66.148  1.00  0.00    -0.124 C  
HETATM   10 CL   UNL     1      -5.367  10.210  66.377  1.00  0.00    -0.043 Cl 
HETATM   11  O   UNL     1      -7.790   9.186  67.750  1.00  0.00    -0.099 OA 
BRANCH   6  12
HETATM   12  C   UNL     1      -9.765  10.704  65.113  1.00  0.00    -0.271 C  
BRANCH  12  13
HETATM   13  C   UNL     1     -10.348  11.983  65.663  1.00  0.00    -0.288 A  
HETATM   14  C   UNL     1     -10.113  13.216  65.035  1.00  0.00    -0.240 A  
HETATM   15  C   UNL     1     -10.540  14.406  65.633  1.00  0.00    -0.339 A  
HETATM   16  C   UNL     1     -11.238  14.388  66.845  1.00  0.00    -0.334 A  
HETATM   17  C   UNL     1     -11.101  11.967  66.849  1.00  0.00    -0.352 A  
HETATM   18  C   UNL     1     -11.526  13.162  67.446  1.00  0.00    -0.375 A  
BRANCH  16  19
HETATM   19  O   UNL     1     -11.489  15.630  67.390  1.00  0.00    -0.235 OA 
BRANCH  19  20
HETATM   20  C   UNL     1     -10.515  16.601  67.406  1.00  0.00    -0.314 A  
HETATM   21  C   UNL     1      -9.557  16.511  68.423  1.00  0.00    -0.233 A  
HETATM   22  C   UNL     1      -8.500  17.425  68.476  1.00  0.00    -0.274 A  
HETATM   23  C   UNL     1      -8.407  18.429  67.503  1.00  0.00    -0.252 A  
HETATM   24  C   UNL     1      -9.344  18.497  66.462  1.00  0.00    -0.313 A  
HETATM   25  N   UNL     1      -7.320  19.411  67.567  1.00  0.00    -0.229 N  
HETATM   26  C   UNL     1     -10.383  17.568  66.407  1.00  0.00    -0.334 A  
HETATM   27  O   UNL     1      -6.474  19.279  68.460  1.00  0.00    -0.234 OA 
HETATM   28  O   UNL     1      -7.319  20.327  66.728  1.00  0.00    -0.262 OA 
ENDBRANCH  19  20
ENDBRANCH  16  19
ENDBRANCH  12  13
ENDBRANCH   6  12
ENDBRANCH   5   6
ENDBRANCH   4   5
ENDBRANCH   3   4
ENDBRANCH   2   3
TORSDOF 8
ENDMDL
MODEL      135
REMARK 921   NORMALIZED FREE ENERGY PREDICTED BY IDOCK:   -4.11 KCAL/MOL
REMARK 922        TOTAL FREE ENERGY PREDICTED BY IDOCK:   -6.97 KCAL/MOL
REMARK 923 INTER-LIGAND FREE ENERGY PREDICTED BY IDOCK:   -6.08 KCAL/MOL
REMARK 924 INTRA-LIGAND FREE ENERGY PREDICTED BY IDOCK:   -0.89 KCAL/MOL
REMARK 927      BINDING AFFINITY PREDICTED BY RF-SCORE:    0.00 PKD
ROOT
HETATM    1  C   UNL     1      -7.346   3.767  70.359  1.00  0.00    -0.041 C  
HETATM    2  C   UNL     1      -8.809   3.454  70.584  1.00  0.00    -0.082 C  
ENDROOT
BRANCH   2   3
HETATM    3  O   UNL     1      -9.445   4.477  71.360  1.00  0.00    -0.139 OA 
BRANCH   3   4
HETATM    4  C   UNL     1     -10.345   5.213  70.521  1.00  0.00    -0.243 C  
BRANCH   4   5
HETATM    5  C   UNL     1     -10.090   6.728  70.508  1.00  0.00    -0.183 C  
BRANCH   5   6
HETATM    6  N   UNL     1      -8.705   7.218  70.340  1.00  0.00    -0.145 N  
HETATM    7 CL   UNL     1      -6.881  10.178  70.984  1.00  0.00     0.174 Cl 
HETATM    8  C   UNL     1      -8.148   7.848  71.485  1.00  0.00    -0.108 C  
HETATM    9  C   UNL     1      -6.736   8.450  71.386  1.00  0.00    -0.063 C  
HETATM   10 CL   UNL     1      -5.868   8.257  72.931  1.00  0.00    -0.059 Cl 
HETATM   11  O   UNL     1      -8.792   7.938  72.539  1.00  0.00    -0.133 OA 
BRANCH   6  12
HETATM   12  C   UNL     1      -8.134   7.480  69.000  1.00  0.00    -0.127 C  
BRANCH  12  13
HETATM   13  C   UNL     1      -8.783   8.525  68.125  1.00  0.00    -0.142 A  
HETATM   14  C   UNL     1      -9.704   9.443  68.652  1.00  0.00    -0.160 A  
HETATM   15  C   UNL     1     -10.401  10.310  67.806  1.00  0.00    -0.246 A  
HETATM   16  C   UNL     1     -10.167  10.306  66.426  1.00  0.00    -0.225 A  
HETATM   17  C   UNL     1      -8.509   8.566  66.748  1.00  0.00    -0.111 A  
HETATM   18  C   UNL     1      -9.211   9.436  65.902  1.00  0.00    -0.269 A  
BRANCH  16  19
HETATM   19  O   UNL     1     -11.007  11.116  65.692  1.00  0.00    -0.195 OA 
BRANCH  19  20
HETATM   20  C   UNL     1     -10.793  12.472  65.623  1.00  0.00    -0.277 A  
HETATM   21  C   UNL     1     -11.751  13.224  64.932  1.00  0.00    -0.375 A  
HETATM   22  C   UNL     1     -11.640  14.616  64.865  1.00  0.00    -0.405 A  
HETATM   23  C   UNL     1     -10.561  15.252  65.496  1.00  0.00    -0.373 A  
HETATM   24  C   UNL     1      -9.621  14.504  66.220  1.00  0.00    -0.328 A  
HETATM   25  N   UNL     1     -10.417  16.708  65.406  1.00  0.00    -0.297 N  
HETATM   26  C   UNL     1      -9.754  13.118  66.298  1.00  0.00    -0.269 A  
HETATM   27  O   UNL     1     -11.301  17.342  64.816  1.00  0.00    -0.752 OA 
HETATM   28  O   UNL     1      -9.406  17.221  65.916  1.00  0.00    -0.507 OA 
ENDBRANCH  19  20
ENDBRANCH  16  19
ENDBRANCH  12  13
ENDBRANCH   6  12
ENDBRANCH   5   6
ENDBRANCH   4   5
ENDBRANCH   3   4
ENDBRANCH   2   3
TORSDOF 8
ENDMDL
MODEL      136
REMARK 921   NORMALIZED FREE ENERGY PREDICTED BY IDOCK:   -4.10 KCAL/MOL
REMARK 922        TOTAL FREE ENERGY PREDICTED BY IDOCK:   -6.96 KCAL/MOL
REMARK 923 INTER-LIGAND FREE ENERGY PREDICTED BY IDOCK:   -6.04 KCAL/MOL
REMARK 924 INTRA-LIGAND FREE ENERGY PREDICTED BY IDOCK:   -0.92 KCAL/MOL
REMARK 927      BINDING AFFINITY PREDICTED BY RF-SCORE:    0.00 PKD
ROOT
HETATM    1  C   UNL     1      -6.832  15.283  68.856  1.00  0.00    -0.122 C  
HETATM    2  C   UNL     1      -7.557  15.981  67.725  1.00  0.00    -0.140 C  
ENDROOT
BRANCH   2   3
HETATM    3  O   UNL     1      -8.941  16.177  68.040  1.00  0.00    -0.183 OA 
BRANCH   3   4
HETATM    4  C   UNL     1      -9.460  14.983  68.638  1.00  0.00    -0.212 C  
BRANCH   4   5
HETATM    5  C   UNL     1     -10.888  14.631  68.193  1.00  0.00    -0.252 C  
BRANCH   5   6
HETATM    6  N   UNL     1     -11.100  13.424  67.364  1.00  0.00    -0.271 N  
HETATM    7 CL   UNL     1     -12.943  12.522  64.484  1.00  0.00    -0.373 Cl 
HETATM    8  C   UNL     1     -10.977  13.630  65.963  1.00  0.00    -0.286 C  
HETATM    9  C   UNL     1     -11.245  12.450  65.014  1.00  0.00    -0.312 C  
HETATM   10 CL   UNL     1     -10.163  12.530  63.600  1.00  0.00    -0.392 Cl 
HETATM   11  O   UNL     1     -10.684  14.743  65.507  1.00  0.00    -0.315 OA 
BRANCH   6  12
HETATM   12  C   UNL     1     -11.846  12.254  67.876  1.00  0.00    -0.293 C  
BRANCH  12  13
HETATM   13  C   UNL     1     -11.076  11.015  68.265  1.00  0.00    -0.316 A  
HETATM   14  C   UNL     1      -9.932  10.619  67.557  1.00  0.00    -0.201 A  
HETATM   15  C   UNL     1      -9.313   9.397  67.838  1.00  0.00    -0.142 A  
HETATM   16  C   UNL     1      -9.800   8.566  68.852  1.00  0.00    -0.176 A  
HETATM   17  C   UNL     1     -11.524  10.205  69.321  1.00  0.00    -0.168 A  
HETATM   18  C   UNL     1     -10.903   8.979  69.600  1.00  0.00    -0.196 A  
BRANCH  16  19
HETATM   19  O   UNL     1      -9.182   7.336  68.944  1.00  0.00    -0.142 OA 
BRANCH  19  20
HETATM   20  C   UNL     1      -9.254   6.434  67.908  1.00  0.00    -0.113 A  
HETATM   21  C   UNL     1     -10.536   6.036  67.511  1.00  0.00    -0.345 A  
HETATM   22  C   UNL     1     -10.701   5.167  66.429  1.00  0.00    -0.275 A  
HETATM   23  C   UNL     1      -9.570   4.698  65.745  1.00  0.00    -0.184 A  
HETATM   24  C   UNL     1      -8.288   5.125  66.116  1.00  0.00    -0.114 A  
HETATM   25  N   UNL     1      -9.729   3.761  64.628  1.00  0.00    -0.173 N  
HETATM   26  C   UNL     1      -8.137   6.009  67.185  1.00  0.00    -0.106 A  
HETATM   27  O   UNL     1     -10.879   3.459  64.285  1.00  0.00    -0.142 OA 
HETATM   28  O   UNL     1      -8.698   3.314  64.098  1.00  0.00    -0.093 OA 
ENDBRANCH  19  20
ENDBRANCH  16  19
ENDBRANCH  12  13
ENDBRANCH   6  12
ENDBRANCH   5   6
ENDBRANCH   4   5
ENDBRANCH   3   4
ENDBRANCH   2   3
TORSDOF 8
ENDMDL
MODEL      137
REMARK 921   NORMALIZED FREE ENERGY PREDICTED BY IDOCK:   -4.10 KCAL/MOL
REMARK 922        TOTAL FREE ENERGY PREDICTED BY IDOCK:   -6.96 KCAL/MOL
REMARK 923 INTER-LIGAND FREE ENERGY PREDICTED BY IDOCK:   -6.47 KCAL/MOL
REMARK 924 INTRA-LIGAND FREE ENERGY PREDICTED BY IDOCK:   -0.48 KCAL/MOL
REMARK 927      BINDING AFFINITY PREDICTED BY RF-SCORE:    0.00 PKD
ROOT
HETATM    1  C   UNL     1      -6.298   6.166  69.487  1.00  0.00    -0.038 C  
HETATM    2  C   UNL     1      -5.185   6.117  70.511  1.00  0.00    -0.013 C  
ENDROOT
BRANCH   2   3
HETATM    3  O   UNL     1      -5.449   7.002  71.607  1.00  0.00    -0.034 OA 
BRANCH   3   4
HETATM    4  C   UNL     1      -6.715   7.642  71.399  1.00  0.00    -0.049 C  
BRANCH   4   5
HETATM    5  C   UNL     1      -7.498   7.912  72.693  1.00  0.00    -0.105 C  
BRANCH   5   6
HETATM    6  N   UNL     1      -8.948   7.618  72.724  1.00  0.00    -0.147 N  
HETATM    7 CL   UNL     1     -11.351   6.085  70.633  1.00  0.00    -0.358 Cl 
HETATM    8  C   UNL     1      -9.297   6.287  72.371  1.00  0.00    -0.141 C  
HETATM    9  C   UNL     1     -10.786   5.903  72.310  1.00  0.00    -0.234 C  
HETATM   10 CL   UNL     1     -11.017   4.221  72.850  1.00  0.00    -0.233 Cl 
HETATM   11  O   UNL     1      -8.427   5.453  72.092  1.00  0.00    -0.124 OA 
BRANCH   6  12
HETATM   12  C   UNL     1      -9.958   8.695  72.640  1.00  0.00    -0.095 C  
BRANCH  12  13
HETATM   13  C   UNL     1     -10.404   9.170  71.278  1.00  0.00    -0.405 A  
HETATM   14  C   UNL     1      -9.483   9.343  70.233  1.00  0.00    -0.294 A  
HETATM   15  C   UNL     1      -9.887   9.917  69.023  1.00  0.00    -0.193 A  
HETATM   16  C   UNL     1     -11.219  10.293  68.819  1.00  0.00    -0.206 A  
HETATM   17  C   UNL     1     -11.750   9.495  71.046  1.00  0.00    -0.419 A  
HETATM   18  C   UNL     1     -12.151  10.070  69.832  1.00  0.00    -0.022 A  
BRANCH  16  19
HETATM   19  O   UNL     1     -11.459  10.961  67.637  1.00  0.00    -0.468 OA 
BRANCH  19  20
HETATM   20  C   UNL     1     -11.238  12.314  67.536  1.00  0.00    -0.297 A  
HETATM   21  C   UNL     1     -10.406  12.738  66.492  1.00  0.00    -0.262 A  
HETATM   22  C   UNL     1     -10.176  14.101  66.283  1.00  0.00    -0.301 A  
HETATM   23  C   UNL     1     -10.786  15.040  67.128  1.00  0.00    -0.303 A  
HETATM   24  C   UNL     1     -11.649  14.619  68.150  1.00  0.00    -0.362 A  
HETATM   25  N   UNL     1     -10.526  16.470  66.938  1.00  0.00    -0.301 N  
HETATM   26  C   UNL     1     -11.888  13.258  68.336  1.00  0.00    -0.395 A  
HETATM   27  O   UNL     1      -9.814  16.807  65.984  1.00  0.00    -0.356 OA 
HETATM   28  O   UNL     1     -11.028  17.261  67.755  1.00  0.00    -0.318 OA 
ENDBRANCH  19  20
ENDBRANCH  16  19
ENDBRANCH  12  13
ENDBRANCH   6  12
ENDBRANCH   5   6
ENDBRANCH   4   5
ENDBRANCH   3   4
ENDBRANCH   2   3
TORSDOF 8
ENDMDL
MODEL      138
REMARK 921   NORMALIZED FREE ENERGY PREDICTED BY IDOCK:   -4.09 KCAL/MOL
REMARK 922        TOTAL FREE ENERGY PREDICTED BY IDOCK:   -6.93 KCAL/MOL
REMARK 923 INTER-LIGAND FREE ENERGY PREDICTED BY IDOCK:   -6.20 KCAL/MOL
REMARK 924 INTRA-LIGAND FREE ENERGY PREDICTED BY IDOCK:   -0.73 KCAL/MOL
REMARK 927      BINDING AFFINITY PREDICTED BY RF-SCORE:    0.00 PKD
ROOT
HETATM    1  C   UNL     1     -12.246  13.552  70.730  1.00  0.00    -0.417 C  
HETATM    2  C   UNL     1     -11.970  15.039  70.808  1.00  0.00    -0.318 C  
ENDROOT
BRANCH   2   3
HETATM    3  O   UNL     1     -12.246  15.683  69.558  1.00  0.00    -0.337 OA 
BRANCH   3   4
HETATM    4  C   UNL     1     -12.223  14.705  68.510  1.00  0.00    -0.100 C  
BRANCH   4   5
HETATM    5  C   UNL     1     -11.419  15.134  67.274  1.00  0.00    -0.279 C  
BRANCH   5   6
HETATM    6  N   UNL     1      -9.963  15.359  67.412  1.00  0.00    -0.228 N  
HETATM    7 CL   UNL     1      -7.499  17.473  66.012  1.00  0.00    -0.324 Cl 
HETATM    8  C   UNL     1      -9.577  16.718  67.559  1.00  0.00    -0.240 C  
HETATM    9  C   UNL     1      -8.080  17.059  67.642  1.00  0.00    -0.180 C  
HETATM   10 CL   UNL     1      -7.815  18.431  68.748  1.00  0.00    -0.313 Cl 
HETATM   11  O   UNL     1     -10.425  17.620  67.593  1.00  0.00    -0.350 OA 
BRANCH   6  12
HETATM   12  C   UNL     1      -8.978  14.356  66.950  1.00  0.00    -0.243 C  
BRANCH  12  13
HETATM   13  C   UNL     1      -9.363  12.897  66.966  1.00  0.00    -0.235 A  
HETATM   14  C   UNL     1      -9.197  12.115  68.119  1.00  0.00    -0.197 A  
HETATM   15  C   UNL     1      -9.425  10.736  68.077  1.00  0.00    -0.166 A  
HETATM   16  C   UNL     1      -9.855  10.117  66.898  1.00  0.00    -0.195 A  
HETATM   17  C   UNL     1      -9.852  12.280  65.803  1.00  0.00    -0.260 A  
HETATM   18  C   UNL     1     -10.078  10.898  65.763  1.00  0.00    -0.308 A  
BRANCH  16  19
HETATM   19  O   UNL     1      -9.920   8.741  66.954  1.00  0.00    -0.208 OA 
BRANCH  19  20
HETATM   20  C   UNL     1      -9.525   8.064  68.084  1.00  0.00    -0.143 A  
HETATM   21  C   UNL     1     -10.418   8.067  69.162  1.00  0.00    -0.217 A  
HETATM   22  C   UNL     1     -10.119   7.354  70.327  1.00  0.00    -0.197 A  
HETATM   23  C   UNL     1      -8.918   6.635  70.405  1.00  0.00    -0.152 A  
HETATM   24  C   UNL     1      -8.040   6.599  69.312  1.00  0.00    -0.116 A  
HETATM   25  N   UNL     1      -8.581   5.909  71.633  1.00  0.00    -0.131 N  
HETATM   26  C   UNL     1      -8.358   7.297  68.148  1.00  0.00    -0.124 A  
HETATM   27  O   UNL     1      -9.410   5.908  72.551  1.00  0.00    -0.142 OA 
HETATM   28  O   UNL     1      -7.474   5.347  71.686  1.00  0.00    -0.086 OA 
ENDBRANCH  19  20
ENDBRANCH  16  19
ENDBRANCH  12  13
ENDBRANCH   6  12
ENDBRANCH   5   6
ENDBRANCH   4   5
ENDBRANCH   3   4
ENDBRANCH   2   3
TORSDOF 8
ENDMDL
MODEL      139
REMARK 921   NORMALIZED FREE ENERGY PREDICTED BY IDOCK:   -4.08 KCAL/MOL
REMARK 922        TOTAL FREE ENERGY PREDICTED BY IDOCK:   -6.92 KCAL/MOL
REMARK 923 INTER-LIGAND FREE ENERGY PREDICTED BY IDOCK:   -5.89 KCAL/MOL
REMARK 924 INTRA-LIGAND FREE ENERGY PREDICTED BY IDOCK:   -1.03 KCAL/MOL
REMARK 927      BINDING AFFINITY PREDICTED BY RF-SCORE:    0.00 PKD
ROOT
HETATM    1  C   UNL     1     -10.051   9.718  66.445  1.00  0.00    -0.313 C  
HETATM    2  C   UNL     1      -9.396   8.505  65.820  1.00  0.00    -0.118 C  
ENDROOT
BRANCH   2   3
HETATM    3  O   UNL     1      -8.196   8.865  65.125  1.00  0.00    -0.124 OA 
BRANCH   3   4
HETATM    4  C   UNL     1      -7.520   7.673  64.706  1.00  0.00    -0.094 C  
BRANCH   4   5
HETATM    5  C   UNL     1      -6.175   7.436  65.409  1.00  0.00    -0.038 C  
BRANCH   5   6
HETATM    6  N   UNL     1      -6.169   7.148  66.861  1.00  0.00    -0.044 N  
HETATM    7 CL   UNL     1      -8.539   6.665  69.440  1.00  0.00    -0.134 Cl 
HETATM    8  C   UNL     1      -7.041   6.102  67.267  1.00  0.00    -0.070 C  
HETATM    9  C   UNL     1      -7.155   5.774  68.766  1.00  0.00    -0.073 C  
HETATM   10 CL   UNL     1      -7.387   4.022  69.003  1.00  0.00    -0.054 Cl 
HETATM   11  O   UNL     1      -7.718   5.479  66.440  1.00  0.00    -0.097 OA 
BRANCH   6  12
HETATM   12  C   UNL     1      -5.702   8.147  67.846  1.00  0.00    -0.038 C  
BRANCH  12  13
HETATM   13  C   UNL     1      -6.285   9.539  67.803  1.00  0.00    -0.053 A  
HETATM   14  C   UNL     1      -5.844  10.481  66.861  1.00  0.00    -0.058 A  
HETATM   15  C   UNL     1      -6.289  11.805  66.924  1.00  0.00    -0.131 A  
HETATM   16  C   UNL     1      -7.207  12.206  67.900  1.00  0.00    -0.102 A  
HETATM   17  C   UNL     1      -7.251   9.933  68.743  1.00  0.00    -0.076 A  
HETATM   18  C   UNL     1      -7.694  11.261  68.804  1.00  0.00    -0.138 A  
BRANCH  16  19
HETATM   19  O   UNL     1      -7.467  13.560  67.934  1.00  0.00    -0.120 OA 
BRANCH  19  20
HETATM   20  C   UNL     1      -8.405  14.117  67.096  1.00  0.00    -0.169 A  
HETATM   21  C   UNL     1      -9.440  13.279  66.668  1.00  0.00    -0.262 A  
HETATM   22  C   UNL     1     -10.466  13.781  65.862  1.00  0.00    -0.300 A  
HETATM   23  C   UNL     1     -10.449  15.133  65.488  1.00  0.00    -0.379 A  
HETATM   24  C   UNL     1      -9.434  15.983  65.948  1.00  0.00    -0.351 A  
HETATM   25  N   UNL     1     -11.503  15.663  64.618  1.00  0.00    -0.368 N  
HETATM   26  C   UNL     1      -8.426  15.476  66.768  1.00  0.00    -0.314 A  
HETATM   27  O   UNL     1     -12.419  14.900  64.287  1.00  0.00    -0.670 OA 
HETATM   28  O   UNL     1     -11.408  16.847  64.252  1.00  0.00    -1.202 OA 
ENDBRANCH  19  20
ENDBRANCH  16  19
ENDBRANCH  12  13
ENDBRANCH   6  12
ENDBRANCH   5   6
ENDBRANCH   4   5
ENDBRANCH   3   4
ENDBRANCH   2   3
TORSDOF 8
ENDMDL
MODEL      140
REMARK 921   NORMALIZED FREE ENERGY PREDICTED BY IDOCK:   -4.08 KCAL/MOL
REMARK 922        TOTAL FREE ENERGY PREDICTED BY IDOCK:   -6.92 KCAL/MOL
REMARK 923 INTER-LIGAND FREE ENERGY PREDICTED BY IDOCK:   -6.07 KCAL/MOL
REMARK 924 INTRA-LIGAND FREE ENERGY PREDICTED BY IDOCK:   -0.85 KCAL/MOL
REMARK 927      BINDING AFFINITY PREDICTED BY RF-SCORE:    0.00 PKD
ROOT
HETATM    1  C   UNL     1     -12.159  13.749  69.290  1.00  0.00    -0.374 C  
HETATM    2  C   UNL     1     -11.282  14.974  69.141  1.00  0.00    -0.281 C  
ENDROOT
BRANCH   2   3
HETATM    3  O   UNL     1     -11.262  15.436  67.785  1.00  0.00    -0.316 OA 
BRANCH   3   4
HETATM    4  C   UNL     1     -11.329  14.308  66.904  1.00  0.00    -0.343 C  
BRANCH   4   5
HETATM    5  C   UNL     1      -9.957  13.780  66.457  1.00  0.00    -0.288 C  
BRANCH   5   6
HETATM    6  N   UNL     1      -8.863  13.708  67.450  1.00  0.00    -0.209 N  
HETATM    7 CL   UNL     1      -5.336  13.954  67.477  1.00  0.00     0.076 Cl 
HETATM    8  C   UNL     1      -7.909  14.758  67.370  1.00  0.00    -0.200 C  
HETATM    9  C   UNL     1      -6.697  14.733  68.317  1.00  0.00    -0.113 C  
HETATM   10 CL   UNL     1      -6.248  16.389  68.796  1.00  0.00    -0.128 Cl 
HETATM   11  O   UNL     1      -8.031  15.666  66.538  1.00  0.00    -0.223 OA 
BRANCH   6  12
HETATM   12  C   UNL     1      -8.509  12.437  68.120  1.00  0.00    -0.180 C  
BRANCH  12  13
HETATM   13  C   UNL     1      -9.184  11.164  67.669  1.00  0.00    -0.151 A  
HETATM   14  C   UNL     1     -10.445  10.799  68.162  1.00  0.00    -0.214 A  
HETATM   15  C   UNL     1     -10.994   9.552  67.845  1.00  0.00    -0.172 A  
HETATM   16  C   UNL     1     -10.314   8.664  67.005  1.00  0.00    -0.298 A  
HETATM   17  C   UNL     1      -8.533  10.294  66.780  1.00  0.00    -0.123 A  
HETATM   18  C   UNL     1      -9.085   9.044  66.465  1.00  0.00    -0.202 A  
BRANCH  16  19
HETATM   19  O   UNL     1     -10.900   7.422  66.875  1.00  0.00    -0.357 OA 
BRANCH  19  20
HETATM   20  C   UNL     1     -10.624   6.416  67.771  1.00  0.00    -0.266 A  
HETATM   21  C   UNL     1      -9.843   5.354  67.301  1.00  0.00    -0.175 A  
HETATM   22  C   UNL     1      -9.468   4.320  68.163  1.00  0.00    -0.213 A  
HETATM   23  C   UNL     1      -9.879   4.357  69.503  1.00  0.00    -0.188 A  
HETATM   24  C   UNL     1     -10.629   5.439  69.985  1.00  0.00    -0.354 A  
HETATM   25  N   UNL     1      -9.518   3.262  70.409  1.00  0.00    -0.168 N  
HETATM   26  C   UNL     1     -10.980   6.476  69.121  1.00  0.00    -0.380 A  
HETATM   27  O   UNL     1      -8.799   2.358  69.966  1.00  0.00    -0.064 OA 
HETATM   28  O   UNL     1      -9.966   3.299  71.568  1.00  0.00    -0.167 OA 
ENDBRANCH  19  20
ENDBRANCH  16  19
ENDBRANCH  12  13
ENDBRANCH   6  12
ENDBRANCH   5   6
ENDBRANCH   4   5
ENDBRANCH   3   4
ENDBRANCH   2   3
TORSDOF 8
ENDMDL
MODEL      141
REMARK 921   NORMALIZED FREE ENERGY PREDICTED BY IDOCK:   -4.07 KCAL/MOL
REMARK 922        TOTAL FREE ENERGY PREDICTED BY IDOCK:   -6.91 KCAL/MOL
REMARK 923 INTER-LIGAND FREE ENERGY PREDICTED BY IDOCK:   -6.57 KCAL/MOL
REMARK 924 INTRA-LIGAND FREE ENERGY PREDICTED BY IDOCK:   -0.35 KCAL/MOL
REMARK 927      BINDING AFFINITY PREDICTED BY RF-SCORE:    0.00 PKD
ROOT
HETATM    1  C   UNL     1     -12.780  15.892  71.590  1.00  0.00    -0.448 C  
HETATM    2  C   UNL     1     -12.723  14.498  72.178  1.00  0.00    -0.333 C  
ENDROOT
BRANCH   2   3
HETATM    3  O   UNL     1     -13.317  13.539  71.295  1.00  0.00    -0.266 OA 
BRANCH   3   4
HETATM    4  C   UNL     1     -12.281  12.773  70.667  1.00  0.00    -0.288 C  
BRANCH   4   5
HETATM    5  C   UNL     1     -11.431  13.571  69.667  1.00  0.00    -0.217 C  
BRANCH   5   6
HETATM    6  N   UNL     1     -11.366  13.115  68.261  1.00  0.00    -0.277 N  
HETATM    7 CL   UNL     1     -12.842  13.967  65.164  1.00  0.00    -0.425 Cl 
HETATM    8  C   UNL     1     -11.205  14.150  67.302  1.00  0.00    -0.316 C  
HETATM    9  C   UNL     1     -11.194  13.780  65.808  1.00  0.00    -0.297 C  
HETATM   10 CL   UNL     1     -10.069  14.836  64.915  1.00  0.00    -0.329 Cl 
HETATM   11  O   UNL     1     -11.102  15.333  67.652  1.00  0.00    -0.307 OA 
BRANCH   6  12
HETATM   12  C   UNL     1     -11.905  11.800  67.849  1.00  0.00    -0.219 C  
BRANCH  12  13
HETATM   13  C   UNL     1     -11.047  10.572  68.031  1.00  0.00    -0.361 A  
HETATM   14  C   UNL     1     -10.771  10.063  69.309  1.00  0.00    -0.249 A  
HETATM   15  C   UNL     1      -9.862   9.013  69.471  1.00  0.00    -0.181 A  
HETATM   16  C   UNL     1      -9.241   8.427  68.363  1.00  0.00    -0.135 A  
HETATM   17  C   UNL     1     -10.466   9.942  66.919  1.00  0.00    -0.284 A  
HETATM   18  C   UNL     1      -9.554   8.890  67.085  1.00  0.00    -0.225 A  
BRANCH  16  19
HETATM   19  O   UNL     1      -8.274   7.491  68.666  1.00  0.00    -0.126 OA 
BRANCH  19  20
HETATM   20  C   UNL     1      -8.602   6.331  69.328  1.00  0.00    -0.124 A  
HETATM   21  C   UNL     1      -8.525   6.363  70.725  1.00  0.00    -0.135 A  
HETATM   22  C   UNL     1      -8.897   5.244  71.477  1.00  0.00    -0.144 A  
HETATM   23  C   UNL     1      -9.347   4.091  70.818  1.00  0.00    -0.147 A  
HETATM   24  C   UNL     1      -9.461   4.070  69.421  1.00  0.00    -0.259 A  
HETATM   25  N   UNL     1      -9.710   2.901  71.595  1.00  0.00    -0.152 N  
HETATM   26  C   UNL     1      -9.107   5.199  68.682  1.00  0.00    -0.135 A  
HETATM   27  O   UNL     1      -9.662   2.979  72.829  1.00  0.00    -0.109 OA 
HETATM   28  O   UNL     1     -10.032   1.878  70.967  1.00  0.00    -0.081 OA 
ENDBRANCH  19  20
ENDBRANCH  16  19
ENDBRANCH  12  13
ENDBRANCH   6  12
ENDBRANCH   5   6
ENDBRANCH   4   5
ENDBRANCH   3   4
ENDBRANCH   2   3
TORSDOF 8
ENDMDL
MODEL      142
REMARK 921   NORMALIZED FREE ENERGY PREDICTED BY IDOCK:   -4.07 KCAL/MOL
REMARK 922        TOTAL FREE ENERGY PREDICTED BY IDOCK:   -6.91 KCAL/MOL
REMARK 923 INTER-LIGAND FREE ENERGY PREDICTED BY IDOCK:   -6.15 KCAL/MOL
REMARK 924 INTRA-LIGAND FREE ENERGY PREDICTED BY IDOCK:   -0.77 KCAL/MOL
REMARK 927      BINDING AFFINITY PREDICTED BY RF-SCORE:    0.00 PKD
ROOT
HETATM    1  C   UNL     1      -5.363  13.955  69.895  1.00  0.00    -0.097 C  
HETATM    2  C   UNL     1      -6.647  14.680  69.554  1.00  0.00    -0.149 C  
ENDROOT
BRANCH   2   3
HETATM    3  O   UNL     1      -7.356  14.013  68.503  1.00  0.00    -0.101 OA 
BRANCH   3   4
HETATM    4  C   UNL     1      -7.381  14.857  67.344  1.00  0.00    -0.193 C  
BRANCH   4   5
HETATM    5  C   UNL     1      -8.791  15.306  66.929  1.00  0.00    -0.254 C  
BRANCH   5   6
HETATM    6  N   UNL     1      -9.822  14.276  66.673  1.00  0.00    -0.271 N  
HETATM    7 CL   UNL     1     -13.237  14.163  65.767  1.00  0.00    -0.137 Cl 
HETATM    8  C   UNL     1     -10.571  14.461  65.480  1.00  0.00    -0.347 C  
HETATM    9  C   UNL     1     -11.711  13.478  65.162  1.00  0.00    -0.322 C  
HETATM   10 CL   UNL     1     -11.822  13.205  63.404  1.00  0.00    -0.547 Cl 
HETATM   11  O   UNL     1     -10.333  15.408  64.719  1.00  0.00    -0.315 OA 
BRANCH   6  12
HETATM   12  C   UNL     1     -10.362  13.434  67.763  1.00  0.00    -0.241 C  
BRANCH  12  13
HETATM   13  C   UNL     1     -10.366  11.935  67.591  1.00  0.00    -0.217 A  
HETATM   14  C   UNL     1     -11.404  11.147  68.111  1.00  0.00    -0.377 A  
HETATM   15  C   UNL     1     -11.322   9.752  68.068  1.00  0.00     0.101 A  
HETATM   16  C   UNL     1     -10.226   9.117  67.475  1.00  0.00    -0.245 A  
HETATM   17  C   UNL     1      -9.297  11.293  66.945  1.00  0.00    -0.190 A  
HETATM   18  C   UNL     1      -9.218   9.894  66.904  1.00  0.00    -0.171 A  
BRANCH  16  19
HETATM   19  O   UNL     1     -10.205   7.745  67.611  1.00  0.00    -0.187 OA 
BRANCH  19  20
HETATM   20  C   UNL     1     -10.100   7.163  68.852  1.00  0.00    -0.177 A  
HETATM   21  C   UNL     1      -8.992   7.530  69.625  1.00  0.00    -0.141 A  
HETATM   22  C   UNL     1      -8.840   7.028  70.921  1.00  0.00    -0.148 A  
HETATM   23  C   UNL     1      -9.807   6.156  71.441  1.00  0.00    -0.175 A  
HETATM   24  C   UNL     1     -10.937   5.817  70.682  1.00  0.00    -0.319 A  
HETATM   25  N   UNL     1      -9.642   5.600  72.787  1.00  0.00    -0.152 N  
HETATM   26  C   UNL     1     -11.089   6.339  69.398  1.00  0.00    -0.477 A  
HETATM   27  O   UNL     1      -8.668   5.974  73.452  1.00  0.00    -0.127 OA 
HETATM   28  O   UNL     1     -10.484   4.774  73.178  1.00  0.00    -0.173 OA 
ENDBRANCH  19  20
ENDBRANCH  16  19
ENDBRANCH  12  13
ENDBRANCH   6  12
ENDBRANCH   5   6
ENDBRANCH   4   5
ENDBRANCH   3   4
ENDBRANCH   2   3
TORSDOF 8
ENDMDL
MODEL      143
REMARK 921   NORMALIZED FREE ENERGY PREDICTED BY IDOCK:   -4.07 KCAL/MOL
REMARK 922        TOTAL FREE ENERGY PREDICTED BY IDOCK:   -6.90 KCAL/MOL
REMARK 923 INTER-LIGAND FREE ENERGY PREDICTED BY IDOCK:   -6.42 KCAL/MOL
REMARK 924 INTRA-LIGAND FREE ENERGY PREDICTED BY IDOCK:   -0.48 KCAL/MOL
REMARK 927      BINDING AFFINITY PREDICTED BY RF-SCORE:    0.00 PKD
ROOT
HETATM    1  C   UNL     1     -10.759  15.845  65.588  1.00  0.00    -0.350 C  
HETATM    2  C   UNL     1      -9.289  15.541  65.784  1.00  0.00    -0.257 C  
ENDROOT
BRANCH   2   3
HETATM    3  O   UNL     1      -9.104  14.292  66.460  1.00  0.00    -0.249 OA 
BRANCH   3   4
HETATM    4  C   UNL     1     -10.343  13.894  67.060  1.00  0.00    -0.267 C  
BRANCH   4   5
HETATM    5  C   UNL     1     -10.301  13.821  68.594  1.00  0.00    -0.224 C  
BRANCH   5   6
HETATM    6  N   UNL     1     -11.572  13.674  69.337  1.00  0.00    -0.295 N  
HETATM    7 CL   UNL     1     -12.605  13.245  72.691  1.00  0.00     0.120 Cl 
HETATM    8  C   UNL     1     -11.695  14.503  70.484  1.00  0.00    -0.276 C  
HETATM    9  C   UNL     1     -12.953  14.374  71.360  1.00  0.00    -0.335 C  
HETATM   10 CL   UNL     1     -13.420  15.963  72.017  1.00  0.00    -0.415 Cl 
HETATM   11  O   UNL     1     -10.800  15.300  70.793  1.00  0.00    -0.300 OA 
BRANCH   6  12
HETATM   12  C   UNL     1     -12.406  12.459  69.209  1.00  0.00     0.137 C  
BRANCH  12  13
HETATM   13  C   UNL     1     -11.887  11.157  69.768  1.00  0.00    -0.422 A  
HETATM   14  C   UNL     1     -10.936  10.396  69.070  1.00  0.00    -0.282 A  
HETATM   15  C   UNL     1     -10.571   9.127  69.530  1.00  0.00    -0.233 A  
HETATM   16  C   UNL     1     -11.116   8.609  70.709  1.00  0.00    -0.255 A  
HETATM   17  C   UNL     1     -12.386  10.656  70.981  1.00  0.00    -0.507 A  
HETATM   18  C   UNL     1     -12.019   9.383  71.439  1.00  0.00    -0.446 A  
BRANCH  16  19
HETATM   19  O   UNL     1     -10.772   7.302  70.983  1.00  0.00    -0.228 OA 
BRANCH  19  20
HETATM   20  C   UNL     1     -10.384   6.450  69.976  1.00  0.00    -0.198 A  
HETATM   21  C   UNL     1      -9.162   5.788  70.150  1.00  0.00    -0.173 A  
HETATM   22  C   UNL     1      -8.722   4.862  69.200  1.00  0.00    -0.106 A  
HETATM   23  C   UNL     1      -9.514   4.601  68.073  1.00  0.00    -0.146 A  
HETATM   24  C   UNL     1     -10.755   5.234  67.916  1.00  0.00    -0.008 A  
HETATM   25  N   UNL     1      -9.048   3.655  67.055  1.00  0.00    -0.153 N  
HETATM   26  C   UNL     1     -11.194   6.141  68.880  1.00  0.00    -0.338 A  
HETATM   27  O   UNL     1      -7.980   3.064  67.261  1.00  0.00    -0.076 OA 
HETATM   28  O   UNL     1      -9.746   3.509  66.038  1.00  0.00    -0.140 OA 
ENDBRANCH  19  20
ENDBRANCH  16  19
ENDBRANCH  12  13
ENDBRANCH   6  12
ENDBRANCH   5   6
ENDBRANCH   4   5
ENDBRANCH   3   4
ENDBRANCH   2   3
TORSDOF 8
ENDMDL
MODEL      144
REMARK 921   NORMALIZED FREE ENERGY PREDICTED BY IDOCK:   -4.07 KCAL/MOL
REMARK 922        TOTAL FREE ENERGY PREDICTED BY IDOCK:   -6.90 KCAL/MOL
REMARK 923 INTER-LIGAND FREE ENERGY PREDICTED BY IDOCK:   -5.92 KCAL/MOL
REMARK 924 INTRA-LIGAND FREE ENERGY PREDICTED BY IDOCK:   -0.98 KCAL/MOL
REMARK 927      BINDING AFFINITY PREDICTED BY RF-SCORE:    0.00 PKD
ROOT
HETATM    1  C   UNL     1     -12.185   6.918  71.893  1.00  0.00    -0.370 C  
HETATM    2  C   UNL     1     -11.097   7.381  72.838  1.00  0.00    -0.349 C  
ENDROOT
BRANCH   2   3
HETATM    3  O   UNL     1     -10.439   6.268  73.456  1.00  0.00    -0.233 OA 
BRANCH   3   4
HETATM    4  C   UNL     1     -10.096   5.307  72.449  1.00  0.00    -0.182 C  
BRANCH   4   5
HETATM    5  C   UNL     1      -9.035   5.798  71.452  1.00  0.00    -0.140 C  
BRANCH   5   6
HETATM    6  N   UNL     1      -8.408   4.819  70.537  1.00  0.00    -0.093 N  
HETATM    7 CL   UNL     1      -5.405   4.511  68.696  1.00  0.00    -0.011 Cl 
HETATM    8  C   UNL     1      -7.054   4.504  70.832  1.00  0.00    -0.037 C  
HETATM    9  C   UNL     1      -6.296   3.546  69.898  1.00  0.00    -0.028 C  
HETATM   10 CL   UNL     1      -5.160   2.538  70.830  1.00  0.00    -0.003 Cl 
HETATM   11  O   UNL     1      -6.481   5.008  71.807  1.00  0.00    -0.029 OA 
BRANCH   6  12
HETATM   12  C   UNL     1      -8.947   4.570  69.182  1.00  0.00    -0.100 C  
BRANCH  12  13
HETATM   13  C   UNL     1      -9.285   5.752  68.306  1.00  0.00    -0.119 A  
HETATM   14  C   UNL     1      -8.290   6.636  67.864  1.00  0.00    -0.119 A  
HETATM   15  C   UNL     1      -8.635   7.802  67.173  1.00  0.00    -0.128 A  
HETATM   16  C   UNL     1      -9.972   8.089  66.879  1.00  0.00    -0.268 A  
HETATM   17  C   UNL     1     -10.619   6.016  67.956  1.00  0.00    -0.330 A  
HETATM   18  C   UNL     1     -10.963   7.186  67.265  1.00  0.00    -0.333 A  
BRANCH  16  19
HETATM   19  O   UNL     1     -10.189   9.326  66.309  1.00  0.00    -0.273 OA 
BRANCH  19  20
HETATM   20  C   UNL     1     -10.619  10.386  67.072  1.00  0.00    -0.245 A  
HETATM   21  C   UNL     1     -10.426  11.665  66.535  1.00  0.00    -0.276 A  
HETATM   22  C   UNL     1     -10.887  12.793  67.220  1.00  0.00    -0.277 A  
HETATM   23  C   UNL     1     -11.545  12.633  68.448  1.00  0.00    -0.328 A  
HETATM   24  C   UNL     1     -11.773  11.351  68.968  1.00  0.00    -0.409 A  
HETATM   25  N   UNL     1     -12.005  13.811  69.189  1.00  0.00    -0.350 N  
HETATM   26  C   UNL     1     -11.327  10.231  68.267  1.00  0.00    -0.245 A  
HETATM   27  O   UNL     1     -11.846  14.922  68.667  1.00  0.00    -0.325 OA 
HETATM   28  O   UNL     1     -12.516  13.627  70.307  1.00  0.00    -0.316 OA 
ENDBRANCH  19  20
ENDBRANCH  16  19
ENDBRANCH  12  13
ENDBRANCH   6  12
ENDBRANCH   5   6
ENDBRANCH   4   5
ENDBRANCH   3   4
ENDBRANCH   2   3
TORSDOF 8
ENDMDL
MODEL      145
REMARK 921   NORMALIZED FREE ENERGY PREDICTED BY IDOCK:   -4.03 KCAL/MOL
REMARK 922        TOTAL FREE ENERGY PREDICTED BY IDOCK:   -6.85 KCAL/MOL
REMARK 923 INTER-LIGAND FREE ENERGY PREDICTED BY IDOCK:   -5.78 KCAL/MOL
REMARK 924 INTRA-LIGAND FREE ENERGY PREDICTED BY IDOCK:   -1.06 KCAL/MOL
REMARK 927      BINDING AFFINITY PREDICTED BY RF-SCORE:    0.00 PKD
ROOT
HETATM    1  C   UNL     1     -12.398  14.457  64.221  1.00  0.00    -0.402 C  
HETATM    2  C   UNL     1     -11.872  13.171  64.823  1.00  0.00    -0.369 C  
ENDROOT
BRANCH   2   3
HETATM    3  O   UNL     1     -11.004  13.436  65.932  1.00  0.00    -0.275 OA 
BRANCH   3   4
HETATM    4  C   UNL     1     -10.892  14.853  66.114  1.00  0.00    -0.327 C  
BRANCH   4   5
HETATM    5  C   UNL     1      -9.460  15.391  65.970  1.00  0.00    -0.346 C  
BRANCH   5   6
HETATM    6  N   UNL     1      -8.823  16.043  67.135  1.00  0.00    -0.195 N  
HETATM    7 CL   UNL     1      -5.739  17.593  67.901  1.00  0.00    -0.140 Cl 
HETATM    8  C   UNL     1      -8.211  17.296  66.861  1.00  0.00    -0.227 C  
HETATM    9  C   UNL     1      -7.464  18.019  67.994  1.00  0.00    -0.238 C  
HETATM   10 CL   UNL     1      -7.663  19.784  67.842  1.00  0.00    -0.325 Cl 
HETATM   11  O   UNL     1      -8.251  17.789  65.726  1.00  0.00    -0.538 OA 
BRANCH   6  12
HETATM   12  C   UNL     1      -8.423  15.271  68.332  1.00  0.00    -0.158 C  
BRANCH  12  13
HETATM   13  C   UNL     1      -7.950  13.848  68.155  1.00  0.00    -0.148 A  
HETATM   14  C   UNL     1      -6.674  13.565  67.645  1.00  0.00    -0.176 A  
HETATM   15  C   UNL     1      -6.304  12.248  67.354  1.00  0.00    -0.152 A  
HETATM   16  C   UNL     1      -7.183  11.188  67.599  1.00  0.00    -0.094 A  
HETATM   17  C   UNL     1      -8.805  12.775  68.454  1.00  0.00    -0.117 A  
HETATM   18  C   UNL     1      -8.432  11.456  68.160  1.00  0.00    -0.152 A  
BRANCH  16  19
HETATM   19  O   UNL     1      -6.749   9.958  67.152  1.00  0.00    -0.073 OA 
BRANCH  19  20
HETATM   20  C   UNL     1      -7.545   8.843  67.277  1.00  0.00    -0.089 A  
HETATM   21  C   UNL     1      -8.370   8.536  66.188  1.00  0.00    -0.121 A  
HETATM   22  C   UNL     1      -9.167   7.388  66.210  1.00  0.00    -0.182 A  
HETATM   23  C   UNL     1      -9.132   6.546  67.331  1.00  0.00    -0.112 A  
HETATM   24  C   UNL     1      -8.278   6.831  68.406  1.00  0.00    -0.119 A  
HETATM   25  N   UNL     1      -9.987   5.356  67.378  1.00  0.00    -0.154 N  
HETATM   26  C   UNL     1      -7.472   7.969  68.364  1.00  0.00    -0.103 A  
HETATM   27  O   UNL     1     -10.677   5.100  66.383  1.00  0.00    -0.308 OA 
HETATM   28  O   UNL     1      -9.979   4.680  68.420  1.00  0.00    -0.139 OA 
ENDBRANCH  19  20
ENDBRANCH  16  19
ENDBRANCH  12  13
ENDBRANCH   6  12
ENDBRANCH   5   6
ENDBRANCH   4   5
ENDBRANCH   3   4
ENDBRANCH   2   3
TORSDOF 8
ENDMDL
MODEL      146
REMARK 921   NORMALIZED FREE ENERGY PREDICTED BY IDOCK:   -4.01 KCAL/MOL
REMARK 922        TOTAL FREE ENERGY PREDICTED BY IDOCK:   -6.81 KCAL/MOL
REMARK 923 INTER-LIGAND FREE ENERGY PREDICTED BY IDOCK:   -6.13 KCAL/MOL
REMARK 924 INTRA-LIGAND FREE ENERGY PREDICTED BY IDOCK:   -0.69 KCAL/MOL
REMARK 927      BINDING AFFINITY PREDICTED BY RF-SCORE:    0.00 PKD
ROOT
HETATM    1  C   UNL     1      -6.833  10.115  64.233  1.00  0.00    -0.103 C  
HETATM    2  C   UNL     1      -8.321   9.937  64.448  1.00  0.00    -0.168 C  
ENDROOT
BRANCH   2   3
HETATM    3  O   UNL     1      -8.592   8.803  65.281  1.00  0.00    -0.170 OA 
BRANCH   3   4
HETATM    4  C   UNL     1      -9.891   8.950  65.867  1.00  0.00    -0.129 C  
BRANCH   4   5
HETATM    5  C   UNL     1     -10.011   8.355  67.279  1.00  0.00    -0.227 C  
BRANCH   5   6
HETATM    6  N   UNL     1     -10.121   9.274  68.433  1.00  0.00    -0.183 N  
HETATM    7 CL   UNL     1     -12.148   9.628  71.309  1.00  0.00    -0.426 Cl 
HETATM    8  C   UNL     1     -10.222   8.636  69.699  1.00  0.00    -0.208 C  
HETATM    9  C   UNL     1     -10.408   9.507  70.954  1.00  0.00    -0.302 C  
HETATM   10 CL   UNL     1      -9.554   8.786  72.342  1.00  0.00    -0.302 Cl 
HETATM   11  O   UNL     1     -10.188   7.403  69.796  1.00  0.00    -0.199 OA 
BRANCH   6  12
HETATM   12  C   UNL     1     -10.580  10.671  68.270  1.00  0.00    -0.194 C  
BRANCH  12  13
HETATM   13  C   UNL     1      -9.548  11.769  68.174  1.00  0.00    -0.193 A  
HETATM   14  C   UNL     1      -9.816  13.059  68.656  1.00  0.00    -0.075 A  
HETATM   15  C   UNL     1      -8.908  14.099  68.433  1.00  0.00    -0.187 A  
HETATM   16  C   UNL     1      -7.703  13.866  67.762  1.00  0.00    -0.172 A  
HETATM   17  C   UNL     1      -8.312  11.528  67.553  1.00  0.00    -0.143 A  
HETATM   18  C   UNL     1      -7.404  12.572  67.331  1.00  0.00    -0.147 A  
BRANCH  16  19
HETATM   19  O   UNL     1      -6.957  14.995  67.496  1.00  0.00    -0.174 OA 
BRANCH  19  20
HETATM   20  C   UNL     1      -7.566  16.216  67.329  1.00  0.00    -0.184 A  
HETATM   21  C   UNL     1      -6.993  17.300  68.004  1.00  0.00    -0.179 A  
HETATM   22  C   UNL     1      -7.515  18.587  67.843  1.00  0.00    -0.249 A  
HETATM   23  C   UNL     1      -8.617  18.782  66.998  1.00  0.00    -0.282 A  
HETATM   24  C   UNL     1      -9.169  17.704  66.291  1.00  0.00    -0.212 A  
HETATM   25  N   UNL     1      -9.192  20.122  66.846  1.00  0.00    -0.368 N  
HETATM   26  C   UNL     1      -8.627  16.428  66.444  1.00  0.00    -0.358 A  
HETATM   27  O   UNL     1      -8.637  21.060  67.432  1.00  0.00    -0.174 OA 
HETATM   28  O   UNL     1     -10.213  20.236  66.146  1.00  0.00    -0.418 OA 
ENDBRANCH  19  20
ENDBRANCH  16  19
ENDBRANCH  12  13
ENDBRANCH   6  12
ENDBRANCH   5   6
ENDBRANCH   4   5
ENDBRANCH   3   4
ENDBRANCH   2   3
TORSDOF 8
ENDMDL
MODEL      147
REMARK 921   NORMALIZED FREE ENERGY PREDICTED BY IDOCK:   -3.97 KCAL/MOL
REMARK 922        TOTAL FREE ENERGY PREDICTED BY IDOCK:   -6.75 KCAL/MOL
REMARK 923 INTER-LIGAND FREE ENERGY PREDICTED BY IDOCK:   -6.24 KCAL/MOL
REMARK 924 INTRA-LIGAND FREE ENERGY PREDICTED BY IDOCK:   -0.52 KCAL/MOL
REMARK 927      BINDING AFFINITY PREDICTED BY RF-SCORE:    0.00 PKD
ROOT
HETATM    1  C   UNL     1     -14.400   8.552  72.070  1.00  0.00    -0.537 C  
HETATM    2  C   UNL     1     -13.194   8.988  71.266  1.00  0.00    -0.210 C  
ENDROOT
BRANCH   2   3
HETATM    3  O   UNL     1     -12.195   9.576  72.107  1.00  0.00    -0.328 OA 
BRANCH   3   4
HETATM    4  C   UNL     1     -10.937   8.934  71.862  1.00  0.00    -0.369 C  
BRANCH   4   5
HETATM    5  C   UNL     1     -11.060   7.539  71.229  1.00  0.00    -0.246 C  
BRANCH   5   6
HETATM    6  N   UNL     1     -10.336   7.261  69.969  1.00  0.00    -0.208 N  
HETATM    7 CL   UNL     1      -7.269   8.166  68.461  1.00  0.00    -0.086 Cl 
HETATM    8  C   UNL     1      -8.971   6.900  70.129  1.00  0.00    -0.149 C  
HETATM    9  C   UNL     1      -8.117   6.657  68.873  1.00  0.00    -0.116 C  
HETATM   10 CL   UNL     1      -6.935   5.356  69.167  1.00  0.00    -0.054 Cl 
HETATM   11  O   UNL     1      -8.465   6.807  71.255  1.00  0.00    -0.123 OA 
BRANCH   6  12
HETATM   12  C   UNL     1     -10.817   7.779  68.669  1.00  0.00     0.052 C  
BRANCH  12  13
HETATM   13  C   UNL     1     -10.345   9.136  68.207  1.00  0.00    -0.256 A  
HETATM   14  C   UNL     1     -10.161   9.415  66.844  1.00  0.00    -0.318 A  
HETATM   15  C   UNL     1      -9.590  10.626  66.441  1.00  0.00    -0.230 A  
HETATM   16  C   UNL     1      -9.226  11.594  67.383  1.00  0.00    -0.168 A  
HETATM   17  C   UNL     1     -10.032  10.135  69.144  1.00  0.00    -0.221 A  
HETATM   18  C   UNL     1      -9.459  11.347  68.737  1.00  0.00    -0.128 A  
BRANCH  16  19
HETATM   19  O   UNL     1      -8.559  12.685  66.868  1.00  0.00    -0.200 OA 
BRANCH  19  20
HETATM   20  C   UNL     1      -8.956  13.964  67.179  1.00  0.00    -0.235 A  
HETATM   21  C   UNL     1      -8.051  14.743  67.910  1.00  0.00    -0.146 A  
HETATM   22  C   UNL     1      -8.354  16.072  68.218  1.00  0.00    -0.164 A  
HETATM   23  C   UNL     1      -9.570  16.620  67.787  1.00  0.00    -0.236 A  
HETATM   24  C   UNL     1     -10.461  15.854  67.022  1.00  0.00    -0.306 A  
HETATM   25  N   UNL     1      -9.912  18.003  68.131  1.00  0.00    -0.332 N  
HETATM   26  C   UNL     1     -10.140  14.535  66.703  1.00  0.00    -0.275 A  
HETATM   27  O   UNL     1      -9.072  18.670  68.749  1.00  0.00    -0.321 OA 
HETATM   28  O   UNL     1     -11.031  18.424  67.792  1.00  0.00    -0.323 OA 
ENDBRANCH  19  20
ENDBRANCH  16  19
ENDBRANCH  12  13
ENDBRANCH   6  12
ENDBRANCH   5   6
ENDBRANCH   4   5
ENDBRANCH   3   4
ENDBRANCH   2   3
TORSDOF 8
ENDMDL
MODEL      148
REMARK 921   NORMALIZED FREE ENERGY PREDICTED BY IDOCK:   -3.95 KCAL/MOL
REMARK 922        TOTAL FREE ENERGY PREDICTED BY IDOCK:   -6.74 KCAL/MOL
REMARK 923 INTER-LIGAND FREE ENERGY PREDICTED BY IDOCK:   -5.67 KCAL/MOL
REMARK 924 INTRA-LIGAND FREE ENERGY PREDICTED BY IDOCK:   -1.06 KCAL/MOL
REMARK 927      BINDING AFFINITY PREDICTED BY RF-SCORE:    0.00 PKD
ROOT
HETATM    1  C   UNL     1     -12.224  13.049  63.501  1.00  0.00    -0.580 C  
HETATM    2  C   UNL     1     -11.304  13.363  64.662  1.00  0.00    -0.350 C  
ENDROOT
BRANCH   2   3
HETATM    3  O   UNL     1     -11.329  12.317  65.641  1.00  0.00    -0.323 OA 
BRANCH   3   4
HETATM    4  C   UNL     1     -10.155  11.509  65.495  1.00  0.00    -0.243 C  
BRANCH   4   5
HETATM    5  C   UNL     1      -9.971  10.467  66.609  1.00  0.00    -0.210 C  
BRANCH   5   6
HETATM    6  N   UNL     1      -9.012   9.360  66.399  1.00  0.00    -0.146 N  
HETATM    7 CL   UNL     1      -7.905   6.493  68.147  1.00  0.00    -0.105 Cl 
HETATM    8  C   UNL     1      -9.526   8.062  66.667  1.00  0.00    -0.212 C  
HETATM    9  C   UNL     1      -8.584   6.852  66.542  1.00  0.00    -0.129 C  
HETATM   10 CL   UNL     1      -9.472   5.435  65.927  1.00  0.00    -0.162 Cl 
HETATM   11  O   UNL     1     -10.702   7.903  67.021  1.00  0.00    -0.339 OA 
BRANCH   6  12
HETATM   12  C   UNL     1      -7.551   9.591  66.399  1.00  0.00    -0.097 C  
BRANCH  12  13
HETATM   13  C   UNL     1      -6.977  10.622  67.340  1.00  0.00    -0.082 A  
HETATM   14  C   UNL     1      -7.142  10.508  68.729  1.00  0.00    -0.073 A  
HETATM   15  C   UNL     1      -6.730  11.540  69.577  1.00  0.00    -0.106 A  
HETATM   16  C   UNL     1      -6.114  12.686  69.063  1.00  0.00    -0.085 A  
HETATM   17  C   UNL     1      -6.306  11.748  66.836  1.00  0.00    -0.131 A  
HETATM   18  C   UNL     1      -5.895  12.781  67.688  1.00  0.00    -0.141 A  
BRANCH  16  19
HETATM   19  O   UNL     1      -5.872  13.680  69.987  1.00  0.00    -0.120 OA 
BRANCH  19  20
HETATM   20  C   UNL     1      -6.350  14.955  69.790  1.00  0.00    -0.152 A  
HETATM   21  C   UNL     1      -5.423  15.997  69.900  1.00  0.00    -0.143 A  
HETATM   22  C   UNL     1      -5.814  17.317  69.657  1.00  0.00    -0.238 A  
HETATM   23  C   UNL     1      -7.143  17.587  69.303  1.00  0.00    -0.130 A  
HETATM   24  C   UNL     1      -8.065  16.541  69.155  1.00  0.00    -0.170 A  
HETATM   25  N   UNL     1      -7.573  18.971  69.077  1.00  0.00    -0.312 N  
HETATM   26  C   UNL     1      -7.659  15.226  69.380  1.00  0.00    -0.219 A  
HETATM   27  O   UNL     1      -6.716  19.861  69.149  1.00  0.00    -0.321 OA 
HETATM   28  O   UNL     1      -8.775  19.171  68.838  1.00  0.00    -0.353 OA 
ENDBRANCH  19  20
ENDBRANCH  16  19
ENDBRANCH  12  13
ENDBRANCH   6  12
ENDBRANCH   5   6
ENDBRANCH   4   5
ENDBRANCH   3   4
ENDBRANCH   2   3
TORSDOF 8
ENDMDL
MODEL      149
REMARK 921   NORMALIZED FREE ENERGY PREDICTED BY IDOCK:   -3.95 KCAL/MOL
REMARK 922        TOTAL FREE ENERGY PREDICTED BY IDOCK:   -6.74 KCAL/MOL
REMARK 923 INTER-LIGAND FREE ENERGY PREDICTED BY IDOCK:   -6.52 KCAL/MOL
REMARK 924 INTRA-LIGAND FREE ENERGY PREDICTED BY IDOCK:   -0.21 KCAL/MOL
REMARK 927      BINDING AFFINITY PREDICTED BY RF-SCORE:    0.00 PKD
ROOT
HETATM    1  C   UNL     1      -5.559  13.633  69.605  1.00  0.00    -0.096 C  
HETATM    2  C   UNL     1      -6.622  14.672  69.892  1.00  0.00    -0.167 C  
ENDROOT
BRANCH   2   3
HETATM    3  O   UNL     1      -7.851  14.352  69.229  1.00  0.00    -0.084 OA 
BRANCH   3   4
HETATM    4  C   UNL     1      -8.317  15.506  68.519  1.00  0.00    -0.161 C  
BRANCH   4   5
HETATM    5  C   UNL     1      -9.845  15.659  68.507  1.00  0.00    -0.205 C  
BRANCH   5   6
HETATM    6  N   UNL     1     -10.670  14.539  68.002  1.00  0.00    -0.239 N  
HETATM    7 CL   UNL     1     -13.075  13.998  65.467  1.00  0.00    -0.389 Cl 
HETATM    8  C   UNL     1     -10.650  14.368  66.591  1.00  0.00    -0.282 C  
HETATM    9  C   UNL     1     -11.529  13.272  65.966  1.00  0.00    -0.330 C  
HETATM   10 CL   UNL     1     -10.713  12.551  64.554  1.00  0.00    -0.336 Cl 
HETATM   11  O   UNL     1      -9.960  15.101  65.871  1.00  0.00    -0.283 OA 
BRANCH   6  12
HETATM   12  C   UNL     1     -11.781  13.974  68.800  1.00  0.00    -0.353 C  
BRANCH  12  13
HETATM   13  C   UNL     1     -11.639  12.580  69.360  1.00  0.00    -0.368 A  
HETATM   14  C   UNL     1     -12.293  12.203  70.542  1.00  0.00    -0.358 A  
HETATM   15  C   UNL     1     -12.040  10.956  71.124  1.00  0.00    -0.386 A  
HETATM   16  C   UNL     1     -11.162  10.050  70.520  1.00  0.00    -0.336 A  
HETATM   17  C   UNL     1     -10.804  11.644  68.728  1.00  0.00    -0.262 A  
HETATM   18  C   UNL     1     -10.552  10.395  69.314  1.00  0.00    -0.259 A  
BRANCH  16  19
HETATM   19  O   UNL     1     -10.902   8.914  71.257  1.00  0.00    -0.243 OA 
BRANCH  19  20
HETATM   20  C   UNL     1     -10.225   7.854  70.700  1.00  0.00    -0.196 A  
HETATM   21  C   UNL     1      -8.856   8.035  70.468  1.00  0.00    -0.137 A  
HETATM   22  C   UNL     1      -8.083   6.988  69.958  1.00  0.00    -0.128 A  
HETATM   23  C   UNL     1      -8.690   5.755  69.682  1.00  0.00    -0.122 A  
HETATM   24  C   UNL     1     -10.053   5.559  69.950  1.00  0.00    -0.305 A  
HETATM   25  N   UNL     1      -7.896   4.659  69.119  1.00  0.00    -0.070 N  
HETATM   26  C   UNL     1     -10.810   6.604  70.477  1.00  0.00    -0.310 A  
HETATM   27  O   UNL     1      -6.683   4.847  68.960  1.00  0.00    -0.046 OA 
HETATM   28  O   UNL     1      -8.489   3.609  68.821  1.00  0.00    -0.075 OA 
ENDBRANCH  19  20
ENDBRANCH  16  19
ENDBRANCH  12  13
ENDBRANCH   6  12
ENDBRANCH   5   6
ENDBRANCH   4   5
ENDBRANCH   3   4
ENDBRANCH   2   3
TORSDOF 8
ENDMDL
MODEL      150
REMARK 921   NORMALIZED FREE ENERGY PREDICTED BY IDOCK:   -3.94 KCAL/MOL
REMARK 922        TOTAL FREE ENERGY PREDICTED BY IDOCK:   -6.72 KCAL/MOL
REMARK 923 INTER-LIGAND FREE ENERGY PREDICTED BY IDOCK:   -5.82 KCAL/MOL
REMARK 924 INTRA-LIGAND FREE ENERGY PREDICTED BY IDOCK:   -0.90 KCAL/MOL
REMARK 927      BINDING AFFINITY PREDICTED BY RF-SCORE:    0.00 PKD
ROOT
HETATM    1  C   UNL     1      -5.662   6.375  64.531  1.00  0.00    -0.022 C  
HETATM    2  C   UNL     1      -6.927   6.016  65.281  1.00  0.00    -0.060 C  
ENDROOT
BRANCH   2   3
HETATM    3  O   UNL     1      -7.249   7.011  66.261  1.00  0.00    -0.071 OA 
BRANCH   3   4
HETATM    4  C   UNL     1      -7.819   6.371  67.410  1.00  0.00    -0.105 C  
BRANCH   4   5
HETATM    5  C   UNL     1      -9.141   6.997  67.881  1.00  0.00    -0.127 C  
BRANCH   5   6
HETATM    6  N   UNL     1      -9.359   7.199  69.330  1.00  0.00    -0.148 N  
HETATM    7 CL   UNL     1     -12.085   7.746  71.514  1.00  0.00    -0.319 Cl 
HETATM    8  C   UNL     1     -10.390   6.404  69.899  1.00  0.00    -0.196 C  
HETATM    9  C   UNL     1     -10.736   6.593  71.386  1.00  0.00    -0.229 C  
HETATM   10 CL   UNL     1     -11.197   5.035  72.119  1.00  0.00    -0.076 Cl 
HETATM   11  O   UNL     1     -11.021   5.592  69.210  1.00  0.00    -0.255 OA 
BRANCH   6  12
HETATM   12  C   UNL     1      -8.913   8.433  70.014  1.00  0.00    -0.138 C  
BRANCH  12  13
HETATM   13  C   UNL     1      -9.287   9.770  69.422  1.00  0.00    -0.212 A  
HETATM   14  C   UNL     1     -10.622  10.202  69.391  1.00  0.00    -0.261 A  
HETATM   15  C   UNL     1     -10.970  11.374  68.714  1.00  0.00    -0.272 A  
HETATM   16  C   UNL     1      -9.993  12.156  68.087  1.00  0.00    -0.201 A  
HETATM   17  C   UNL     1      -8.304  10.589  68.842  1.00  0.00    -0.147 A  
HETATM   18  C   UNL     1      -8.657  11.763  68.163  1.00  0.00    -0.160 A  
BRANCH  16  19
HETATM   19  O   UNL     1     -10.481  13.214  67.349  1.00  0.00    -0.240 OA 
BRANCH  19  20
HETATM   20  C   UNL     1     -10.174  14.510  67.691  1.00  0.00    -0.225 A  
HETATM   21  C   UNL     1      -8.911  14.978  67.308  1.00  0.00    -0.212 A  
HETATM   22  C   UNL     1      -8.542  16.302  67.565  1.00  0.00    -0.189 A  
HETATM   23  C   UNL     1      -9.448  17.157  68.208  1.00  0.00    -0.276 A  
HETATM   24  C   UNL     1     -10.728  16.701  68.558  1.00  0.00    -0.351 A  
HETATM   25  N   UNL     1      -9.061  18.538  68.511  1.00  0.00    -0.326 N  
HETATM   26  C   UNL     1     -11.092  15.384  68.279  1.00  0.00    -0.309 A  
HETATM   27  O   UNL     1      -7.950  18.924  68.126  1.00  0.00    -0.280 OA 
HETATM   28  O   UNL     1      -9.866  19.237  69.147  1.00  0.00    -0.412 OA 
ENDBRANCH  19  20
ENDBRANCH  16  19
ENDBRANCH  12  13
ENDBRANCH   6  12
ENDBRANCH   5   6
ENDBRANCH   4   5
ENDBRANCH   3   4
ENDBRANCH   2   3
TORSDOF 8
ENDMDL
MODEL      151
REMARK 921   NORMALIZED FREE ENERGY PREDICTED BY IDOCK:   -3.89 KCAL/MOL
REMARK 922        TOTAL FREE ENERGY PREDICTED BY IDOCK:   -6.64 KCAL/MOL
REMARK 923 INTER-LIGAND FREE ENERGY PREDICTED BY IDOCK:   -6.24 KCAL/MOL
REMARK 924 INTRA-LIGAND FREE ENERGY PREDICTED BY IDOCK:   -0.40 KCAL/MOL
REMARK 927      BINDING AFFINITY PREDICTED BY RF-SCORE:    0.00 PKD
ROOT
HETATM    1  C   UNL     1     -13.180   8.561  72.905  1.00  0.00     0.077 C  
HETATM    2  C   UNL     1     -12.552   8.698  71.534  1.00  0.00    -0.322 C  
ENDROOT
BRANCH   2   3
HETATM    3  O   UNL     1     -11.517   9.689  71.535  1.00  0.00    -0.377 OA 
BRANCH   3   4
HETATM    4  C   UNL     1     -10.241   9.036  71.499  1.00  0.00    -0.344 C  
BRANCH   4   5
HETATM    5  C   UNL     1     -10.316   7.535  71.175  1.00  0.00    -0.200 C  
BRANCH   5   6
HETATM    6  N   UNL     1      -9.171   6.894  70.491  1.00  0.00    -0.156 N  
HETATM    7 CL   UNL     1      -5.828   7.704  69.672  1.00  0.00    -0.023 Cl 
HETATM    8  C   UNL     1      -7.936   6.972  71.190  1.00  0.00    -0.104 C  
HETATM    9  C   UNL     1      -6.674   6.393  70.528  1.00  0.00    -0.053 C  
HETATM   10 CL   UNL     1      -5.600   5.679  71.758  1.00  0.00    -0.020 Cl 
HETATM   11  O   UNL     1      -7.865   7.517  72.299  1.00  0.00    -0.092 OA 
BRANCH   6  12
HETATM   12  C   UNL     1      -9.182   6.643  69.034  1.00  0.00    -0.131 C  
BRANCH  12  13
HETATM   13  C   UNL     1      -9.384   7.808  68.096  1.00  0.00    -0.148 A  
HETATM   14  C   UNL     1     -10.592   8.522  68.074  1.00  0.00    -0.197 A  
HETATM   15  C   UNL     1     -10.815   9.505  67.105  1.00  0.00    -0.156 A  
HETATM   16  C   UNL     1      -9.828   9.820  66.165  1.00  0.00    -0.263 A  
HETATM   17  C   UNL     1      -8.376   8.170  67.187  1.00  0.00    -0.120 A  
HETATM   18  C   UNL     1      -8.603   9.155  66.216  1.00  0.00    -0.137 A  
BRANCH  16  19
HETATM   19  O   UNL     1     -10.219  10.712  65.189  1.00  0.00    -0.296 OA 
BRANCH  19  20
HETATM   20  C   UNL     1     -10.117  12.068  65.394  1.00  0.00    -0.256 A  
HETATM   21  C   UNL     1     -10.860  12.890  64.539  1.00  0.00    -0.385 A  
HETATM   22  C   UNL     1     -10.858  14.277  64.717  1.00  0.00    -0.420 A  
HETATM   23  C   UNL     1     -10.106  14.837  65.759  1.00  0.00    -0.339 A  
HETATM   24  C   UNL     1      -9.392  14.012  66.641  1.00  0.00    -0.292 A  
HETATM   25  N   UNL     1     -10.072  16.292  65.936  1.00  0.00    -0.344 N  
HETATM   26  C   UNL     1      -9.417  12.629  66.466  1.00  0.00    -0.247 A  
HETATM   27  O   UNL     1     -10.769  16.983  65.182  1.00  0.00    -0.672 OA 
HETATM   28  O   UNL     1      -9.334  16.748  66.826  1.00  0.00    -0.227 OA 
ENDBRANCH  19  20
ENDBRANCH  16  19
ENDBRANCH  12  13
ENDBRANCH   6  12
ENDBRANCH   5   6
ENDBRANCH   4   5
ENDBRANCH   3   4
ENDBRANCH   2   3
TORSDOF 8
ENDMDL
MODEL      152
REMARK 921   NORMALIZED FREE ENERGY PREDICTED BY IDOCK:   -3.88 KCAL/MOL
REMARK 922        TOTAL FREE ENERGY PREDICTED BY IDOCK:   -6.64 KCAL/MOL
REMARK 923 INTER-LIGAND FREE ENERGY PREDICTED BY IDOCK:   -6.30 KCAL/MOL
REMARK 924 INTRA-LIGAND FREE ENERGY PREDICTED BY IDOCK:   -0.34 KCAL/MOL
REMARK 927      BINDING AFFINITY PREDICTED BY RF-SCORE:    0.00 PKD
ROOT
HETATM    1  C   UNL     1      -9.554   4.328  71.138  1.00  0.00    -0.249 C  
HETATM    2  C   UNL     1     -10.329   3.899  72.366  1.00  0.00    -0.124 C  
ENDROOT
BRANCH   2   3
HETATM    3  O   UNL     1     -10.275   4.902  73.389  1.00  0.00    -0.154 OA 
BRANCH   3   4
HETATM    4  C   UNL     1     -11.344   5.835  73.189  1.00  0.00    -0.144 C  
BRANCH   4   5
HETATM    5  C   UNL     1     -10.876   7.273  72.917  1.00  0.00    -0.337 C  
BRANCH   5   6
HETATM    6  N   UNL     1     -10.417   7.629  71.557  1.00  0.00    -0.204 N  
HETATM    7 CL   UNL     1      -8.448  10.141  70.035  1.00  0.00    -0.126 Cl 
HETATM    8  C   UNL     1      -9.030   7.916  71.448  1.00  0.00    -0.136 C  
HETATM    9  C   UNL     1      -8.470   8.362  70.086  1.00  0.00    -0.126 C  
HETATM   10 CL   UNL     1      -6.821   7.727  69.854  1.00  0.00    -0.049 Cl 
HETATM   11  O   UNL     1      -8.284   7.837  72.433  1.00  0.00    -0.105 OA 
BRANCH   6  12
HETATM   12  C   UNL     1     -11.358   8.123  70.527  1.00  0.00    -0.221 C  
BRANCH  12  13
HETATM   13  C   UNL     1     -11.809   9.562  70.584  1.00  0.00    -0.301 A  
HETATM   14  C   UNL     1     -11.363  10.500  69.640  1.00  0.00    -0.345 A  
HETATM   15  C   UNL     1     -11.675  11.855  69.788  1.00  0.00    -0.403 A  
HETATM   16  C   UNL     1     -12.466  12.295  70.855  1.00  0.00    -0.276 A  
HETATM   17  C   UNL     1     -12.651  10.001  71.619  1.00  0.00    -0.524 A  
HETATM   18  C   UNL     1     -12.961  11.360  71.765  1.00  0.00    -0.519 A  
BRANCH  16  19
HETATM   19  O   UNL     1     -12.594  13.664  70.958  1.00  0.00    -0.345 OA 
BRANCH  19  20
HETATM   20  C   UNL     1     -11.839  14.502  70.171  1.00  0.00    -0.308 A  
HETATM   21  C   UNL     1     -10.547  14.794  70.624  1.00  0.00     0.256 A  
HETATM   22  C   UNL     1      -9.694  15.591  69.855  1.00  0.00    -0.169 A  
HETATM   23  C   UNL     1     -10.144  16.094  68.626  1.00  0.00    -0.231 A  
HETATM   24  C   UNL     1     -11.424  15.772  68.153  1.00  0.00    -0.302 A  
HETATM   25  N   UNL     1      -9.270  16.957  67.825  1.00  0.00    -0.228 N  
HETATM   26  C   UNL     1     -12.259  14.959  68.919  1.00  0.00    -0.143 A  
HETATM   27  O   UNL     1      -8.123  17.164  68.242  1.00  0.00    -0.220 OA 
HETATM   28  O   UNL     1      -9.735  17.440  66.779  1.00  0.00    -0.266 OA 
ENDBRANCH  19  20
ENDBRANCH  16  19
ENDBRANCH  12  13
ENDBRANCH   6  12
ENDBRANCH   5   6
ENDBRANCH   4   5
ENDBRANCH   3   4
ENDBRANCH   2   3
TORSDOF 8
ENDMDL
MODEL      153
REMARK 921   NORMALIZED FREE ENERGY PREDICTED BY IDOCK:   -3.82 KCAL/MOL
REMARK 922        TOTAL FREE ENERGY PREDICTED BY IDOCK:   -6.54 KCAL/MOL
REMARK 923 INTER-LIGAND FREE ENERGY PREDICTED BY IDOCK:   -5.93 KCAL/MOL
REMARK 924 INTRA-LIGAND FREE ENERGY PREDICTED BY IDOCK:   -0.61 KCAL/MOL
REMARK 927      BINDING AFFINITY PREDICTED BY RF-SCORE:    0.00 PKD
ROOT
HETATM    1  C   UNL     1      -7.740  14.456  67.803  1.00  0.00    -0.172 C  
HETATM    2  C   UNL     1      -7.245  15.644  67.005  1.00  0.00    -0.140 C  
ENDROOT
BRANCH   2   3
HETATM    3  O   UNL     1      -8.306  16.237  66.248  1.00  0.00    -0.303 OA 
BRANCH   3   4
HETATM    4  C   UNL     1      -9.222  15.214  65.840  1.00  0.00    -0.158 C  
BRANCH   4   5
HETATM    5  C   UNL     1     -10.697  15.644  65.876  1.00  0.00    -0.329 C  
BRANCH   5   6
HETATM    6  N   UNL     1     -11.613  14.973  66.825  1.00  0.00    -0.267 N  
HETATM    7 CL   UNL     1     -11.396  13.310  69.938  1.00  0.00    -0.147 Cl 
HETATM    8  C   UNL     1     -11.459  15.359  68.183  1.00  0.00    -0.343 C  
HETATM    9  C   UNL     1     -12.321  14.667  69.253  1.00  0.00    -0.125 C  
HETATM   10 CL   UNL     1     -12.754  15.819  70.542  1.00  0.00    -0.403 Cl 
HETATM   11  O   UNL     1     -10.630  16.218  68.511  1.00  0.00    -0.262 OA 
BRANCH   6  12
HETATM   12  C   UNL     1     -12.268  13.689  66.491  1.00  0.00    -0.404 C  
BRANCH  12  13
HETATM   13  C   UNL     1     -11.470  12.413  66.608  1.00  0.00    -0.429 A  
HETATM   14  C   UNL     1     -10.479  12.088  65.669  1.00  0.00    -0.293 A  
HETATM   15  C   UNL     1      -9.848  10.841  65.708  1.00  0.00    -0.292 A  
HETATM   16  C   UNL     1     -10.165   9.911  66.704  1.00  0.00    -0.226 A  
HETATM   17  C   UNL     1     -11.740  11.499  67.639  1.00  0.00    -0.283 A  
HETATM   18  C   UNL     1     -11.107  10.249  67.676  1.00  0.00    -0.319 A  
BRANCH  16  19
HETATM   19  O   UNL     1      -9.568   8.676  66.558  1.00  0.00    -0.196 OA 
BRANCH  19  20
HETATM   20  C   UNL     1      -8.954   8.061  67.623  1.00  0.00    -0.135 A  
HETATM   21  C   UNL     1      -9.340   6.744  67.896  1.00  0.00    -0.113 A  
HETATM   22  C   UNL     1      -8.723   6.027  68.925  1.00  0.00    -0.122 A  
HETATM   23  C   UNL     1      -7.713   6.638  69.681  1.00  0.00    -0.107 A  
HETATM   24  C   UNL     1      -7.298   7.945  69.385  1.00  0.00    -0.081 A  
HETATM   25  N   UNL     1      -7.081   5.907  70.783  1.00  0.00    -0.069 N  
HETATM   26  C   UNL     1      -7.907   8.643  68.343  1.00  0.00    -0.105 A  
HETATM   27  O   UNL     1      -7.425   4.733  70.971  1.00  0.00    -0.064 OA 
HETATM   28  O   UNL     1      -6.244   6.513  71.473  1.00  0.00    -0.040 OA 
ENDBRANCH  19  20
ENDBRANCH  16  19
ENDBRANCH  12  13
ENDBRANCH   6  12
ENDBRANCH   5   6
ENDBRANCH   4   5
ENDBRANCH   3   4
ENDBRANCH   2   3
TORSDOF 8
ENDMDL
MODEL      154
REMARK 921   NORMALIZED FREE ENERGY PREDICTED BY IDOCK:   -3.82 KCAL/MOL
REMARK 922        TOTAL FREE ENERGY PREDICTED BY IDOCK:   -6.54 KCAL/MOL
REMARK 923 INTER-LIGAND FREE ENERGY PREDICTED BY IDOCK:   -5.52 KCAL/MOL
REMARK 924 INTRA-LIGAND FREE ENERGY PREDICTED BY IDOCK:   -1.02 KCAL/MOL
REMARK 927      BINDING AFFINITY PREDICTED BY RF-SCORE:    0.00 PKD
ROOT
HETATM    1  C   UNL     1     -10.528   4.649  65.774  1.00  0.00    -0.290 C  
HETATM    2  C   UNL     1      -9.774   4.138  66.984  1.00  0.00    -0.197 C  
ENDROOT
BRANCH   2   3
HETATM    3  O   UNL     1      -9.700   5.137  68.008  1.00  0.00    -0.134 OA 
BRANCH   3   4
HETATM    4  C   UNL     1     -10.899   5.922  67.987  1.00  0.00    -0.232 C  
BRANCH   4   5
HETATM    5  C   UNL     1     -11.205   6.631  69.315  1.00  0.00    -0.266 C  
BRANCH   5   6
HETATM    6  N   UNL     1     -10.148   6.700  70.348  1.00  0.00    -0.182 N  
HETATM    7 CL   UNL     1      -9.855   7.693  73.728  1.00  0.00    -0.300 Cl 
HETATM    8  C   UNL     1     -10.505   6.154  71.609  1.00  0.00    -0.222 C  
HETATM    9  C   UNL     1      -9.495   6.240  72.767  1.00  0.00    -0.147 C  
HETATM   10 CL   UNL     1      -9.605   4.789  73.796  1.00  0.00    -0.131 Cl 
HETATM   11  O   UNL     1     -11.617   5.640  71.789  1.00  0.00    -0.146 OA 
BRANCH   6  12
HETATM   12  C   UNL     1      -9.032   7.666  70.249  1.00  0.00    -0.146 C  
BRANCH  12  13
HETATM   13  C   UNL     1      -9.202   8.888  69.378  1.00  0.00    -0.146 A  
HETATM   14  C   UNL     1      -9.867  10.029  69.851  1.00  0.00    -0.266 A  
HETATM   15  C   UNL     1     -10.141  11.096  68.989  1.00  0.00    -0.173 A  
HETATM   16  C   UNL     1      -9.725  11.061  67.654  1.00  0.00    -0.168 A  
HETATM   17  C   UNL     1      -8.735   8.884  68.054  1.00  0.00    -0.133 A  
HETATM   18  C   UNL     1      -9.012   9.955  67.192  1.00  0.00    -0.150 A  
BRANCH  16  19
HETATM   19  O   UNL     1     -10.166  12.114  66.880  1.00  0.00    -0.207 OA 
BRANCH  19  20
HETATM   20  C   UNL     1      -9.530  13.333  66.922  1.00  0.00    -0.249 A  
HETATM   21  C   UNL     1     -10.337  14.467  66.778  1.00  0.00    -0.269 A  
HETATM   22  C   UNL     1      -9.778  15.745  66.866  1.00  0.00    -0.240 A  
HETATM   23  C   UNL     1      -8.403  15.881  67.101  1.00  0.00    -0.202 A  
HETATM   24  C   UNL     1      -7.599  14.746  67.284  1.00  0.00    -0.195 A  
HETATM   25  N   UNL     1      -7.800  17.216  67.165  1.00  0.00    -0.176 N  
HETATM   26  C   UNL     1      -8.171  13.476  67.214  1.00  0.00    -0.164 A  
HETATM   27  O   UNL     1      -8.551  18.195  67.067  1.00  0.00    -0.242 OA 
HETATM   28  O   UNL     1      -6.567  17.287  67.301  1.00  0.00    -0.141 OA 
ENDBRANCH  19  20
ENDBRANCH  16  19
ENDBRANCH  12  13
ENDBRANCH   6  12
ENDBRANCH   5   6
ENDBRANCH   4   5
ENDBRANCH   3   4
ENDBRANCH   2   3
TORSDOF 8
ENDMDL
MODEL      155
REMARK 921   NORMALIZED FREE ENERGY PREDICTED BY IDOCK:   -3.80 KCAL/MOL
REMARK 922        TOTAL FREE ENERGY PREDICTED BY IDOCK:   -6.51 KCAL/MOL
REMARK 923 INTER-LIGAND FREE ENERGY PREDICTED BY IDOCK:   -5.39 KCAL/MOL
REMARK 924 INTRA-LIGAND FREE ENERGY PREDICTED BY IDOCK:   -1.12 KCAL/MOL
REMARK 927      BINDING AFFINITY PREDICTED BY RF-SCORE:    0.00 PKD
ROOT
HETATM    1  C   UNL     1      -5.163  14.093  72.831  1.00  0.00    -0.272 C  
HETATM    2  C   UNL     1      -6.145  14.704  71.855  1.00  0.00     0.415 C  
ENDROOT
BRANCH   2   3
HETATM    3  O   UNL     1      -5.922  14.222  70.524  1.00  0.00    -0.156 OA 
BRANCH   3   4
HETATM    4  C   UNL     1      -5.406  15.289  69.718  1.00  0.00    -0.100 C  
BRANCH   4   5
HETATM    5  C   UNL     1      -6.137  16.626  69.909  1.00  0.00    -0.192 C  
BRANCH   5   6
HETATM    6  N   UNL     1      -7.109  17.062  68.882  1.00  0.00    -0.223 N  
HETATM    7 CL   UNL     1      -8.344  20.106  67.574  1.00  0.00    -0.377 Cl 
HETATM    8  C   UNL     1      -6.633  18.061  67.991  1.00  0.00    -0.196 C  
HETATM    9  C   UNL     1      -7.593  18.626  66.930  1.00  0.00    -0.221 C  
HETATM   10 CL   UNL     1      -6.710  18.998  65.428  1.00  0.00    -0.292 Cl 
HETATM   11  O   UNL     1      -5.476  18.493  68.078  1.00  0.00    -0.167 OA 
BRANCH   6  12
HETATM   12  C   UNL     1      -8.564  16.860  69.059  1.00  0.00    -0.148 C  
BRANCH  12  13
HETATM   13  C   UNL     1      -9.160  15.517  68.713  1.00  0.00    -0.207 A  
HETATM   14  C   UNL     1      -8.475  14.610  67.890  1.00  0.00    -0.158 A  
HETATM   15  C   UNL     1      -9.098  13.433  67.464  1.00  0.00    -0.215 A  
HETATM   16  C   UNL     1     -10.398  13.121  67.877  1.00  0.00    -0.231 A  
HETATM   17  C   UNL     1     -10.441  15.171  69.172  1.00  0.00    -0.252 A  
HETATM   18  C   UNL     1     -11.063  13.991  68.742  1.00  0.00    -0.287 A  
BRANCH  16  19
HETATM   19  O   UNL     1     -10.943  12.000  67.287  1.00  0.00    -0.237 OA 
BRANCH  19  20
HETATM   20  C   UNL     1     -10.905  10.781  67.923  1.00  0.00    -0.264 A  
HETATM   21  C   UNL     1     -10.104   9.793  67.339  1.00  0.00    -0.259 A  
HETATM   22  C   UNL     1      -9.964   8.545  67.953  1.00  0.00    -0.225 A  
HETATM   23  C   UNL     1     -10.632   8.293  69.160  1.00  0.00    -0.165 A  
HETATM   24  C   UNL     1     -11.404   9.294  69.767  1.00  0.00    -0.029 A  
HETATM   25  N   UNL     1     -10.518   6.977  69.797  1.00  0.00    -0.212 N  
HETATM   26  C   UNL     1     -11.520  10.542  69.156  1.00  0.00    -0.314 A  
HETATM   27  O   UNL     1      -9.774   6.141  69.269  1.00  0.00    -0.134 OA 
HETATM   28  O   UNL     1     -11.185   6.773  70.825  1.00  0.00    -0.267 OA 
ENDBRANCH  19  20
ENDBRANCH  16  19
ENDBRANCH  12  13
ENDBRANCH   6  12
ENDBRANCH   5   6
ENDBRANCH   4   5
ENDBRANCH   3   4
ENDBRANCH   2   3
TORSDOF 8
ENDMDL
MODEL      156
REMARK 921   NORMALIZED FREE ENERGY PREDICTED BY IDOCK:   -3.75 KCAL/MOL
REMARK 922        TOTAL FREE ENERGY PREDICTED BY IDOCK:   -6.43 KCAL/MOL
REMARK 923 INTER-LIGAND FREE ENERGY PREDICTED BY IDOCK:   -5.82 KCAL/MOL
REMARK 924 INTRA-LIGAND FREE ENERGY PREDICTED BY IDOCK:   -0.61 KCAL/MOL
REMARK 927      BINDING AFFINITY PREDICTED BY RF-SCORE:    0.00 PKD
ROOT
HETATM    1  C   UNL     1      -9.498  11.062  62.917  1.00  0.00    -0.378 C  
HETATM    2  C   UNL     1      -9.469  10.737  64.395  1.00  0.00    -0.256 C  
ENDROOT
BRANCH   2   3
HETATM    3  O   UNL     1      -8.226  11.132  64.988  1.00  0.00     0.092 OA 
BRANCH   3   4
HETATM    4  C   UNL     1      -8.334  11.035  66.414  1.00  0.00    -0.165 C  
BRANCH   4   5
HETATM    5  C   UNL     1      -8.530  12.386  67.119  1.00  0.00    -0.185 C  
BRANCH   5   6
HETATM    6  N   UNL     1      -9.907  12.857  67.388  1.00  0.00    -0.204 N  
HETATM    7 CL   UNL     1     -11.754  14.108  70.131  1.00  0.00    -0.353 Cl 
HETATM    8  C   UNL     1      -9.992  14.091  68.087  1.00  0.00    -0.242 C  
HETATM    9  C   UNL     1     -11.381  14.630  68.471  1.00  0.00    -0.284 C  
HETATM   10 CL   UNL     1     -11.406  16.410  68.374  1.00  0.00    -0.335 Cl 
HETATM   11  O   UNL     1      -8.972  14.714  68.407  1.00  0.00    -0.168 OA 
BRANCH   6  12
HETATM   12  C   UNL     1     -11.058  11.928  67.384  1.00  0.00    -0.279 C  
BRANCH  12  13
HETATM   13  C   UNL     1     -11.015  10.713  68.279  1.00  0.00    -0.314 A  
HETATM   14  C   UNL     1     -11.181  10.829  69.668  1.00  0.00    -0.355 A  
HETATM   15  C   UNL     1     -10.997   9.718  70.497  1.00  0.00    -0.384 A  
HETATM   16  C   UNL     1     -10.683   8.466  69.957  1.00  0.00    -0.236 A  
HETATM   17  C   UNL     1     -10.758   9.443  67.739  1.00  0.00    -0.290 A  
HETATM   18  C   UNL     1     -10.573   8.331  68.572  1.00  0.00    -0.143 A  
BRANCH  16  19
HETATM   19  O   UNL     1     -10.404   7.486  70.885  1.00  0.00    -0.201 OA 
BRANCH  19  20
HETATM   20  C   UNL     1      -9.695   6.362  70.530  1.00  0.00    -0.168 A  
HETATM   21  C   UNL     1      -8.310   6.404  70.731  1.00  0.00    -0.126 A  
HETATM   22  C   UNL     1      -7.523   5.283  70.451  1.00  0.00    -0.071 A  
HETATM   23  C   UNL     1      -8.133   4.117  69.968  1.00  0.00    -0.058 A  
HETATM   24  C   UNL     1      -9.524   4.060  69.802  1.00  0.00    -0.265 A  
HETATM   25  N   UNL     1      -7.313   2.946  69.641  1.00  0.00    -0.044 N  
HETATM   26  C   UNL     1     -10.302   5.177  70.104  1.00  0.00    -0.340 A  
HETATM   27  O   UNL     1      -6.098   3.010  69.865  1.00  0.00    -0.022 OA 
HETATM   28  O   UNL     1      -7.886   1.960  69.147  1.00  0.00    -0.046 OA 
ENDBRANCH  19  20
ENDBRANCH  16  19
ENDBRANCH  12  13
ENDBRANCH   6  12
ENDBRANCH   5   6
ENDBRANCH   4   5
ENDBRANCH   3   4
ENDBRANCH   2   3
TORSDOF 8
ENDMDL
MODEL      157
REMARK 921   NORMALIZED FREE ENERGY PREDICTED BY IDOCK:   -3.68 KCAL/MOL
REMARK 922        TOTAL FREE ENERGY PREDICTED BY IDOCK:   -6.34 KCAL/MOL
REMARK 923 INTER-LIGAND FREE ENERGY PREDICTED BY IDOCK:   -5.98 KCAL/MOL
REMARK 924 INTRA-LIGAND FREE ENERGY PREDICTED BY IDOCK:   -0.36 KCAL/MOL
REMARK 927      BINDING AFFINITY PREDICTED BY RF-SCORE:    0.00 PKD
ROOT
HETATM    1  C   UNL     1      -5.891  20.145  69.025  1.00  0.00    -0.322 C  
HETATM    2  C   UNL     1      -6.421  19.719  67.673  1.00  0.00    -0.218 C  
ENDROOT
BRANCH   2   3
HETATM    3  O   UNL     1      -6.752  18.325  67.661  1.00  0.00    -0.193 OA 
BRANCH   3   4
HETATM    4  C   UNL     1      -7.854  18.112  66.771  1.00  0.00    -0.235 C  
BRANCH   4   5
HETATM    5  C   UNL     1      -7.875  16.718  66.125  1.00  0.00    -0.209 C  
BRANCH   5   6
HETATM    6  N   UNL     1      -8.749  15.674  66.706  1.00  0.00    -0.247 N  
HETATM    7 CL   UNL     1     -11.907  15.490  68.285  1.00  0.00    -0.282 Cl 
HETATM    8  C   UNL     1     -10.106  15.729  66.289  1.00  0.00    -0.303 C  
HETATM    9  C   UNL     1     -11.106  14.727  66.891  1.00  0.00    -0.339 C  
HETATM   10 CL   UNL     1     -12.322  14.256  65.675  1.00  0.00    -0.428 Cl 
HETATM   11  O   UNL     1     -10.490  16.581  65.477  1.00  0.00    -0.477 OA 
BRANCH   6  12
HETATM   12  C   UNL     1      -8.386  14.967  67.953  1.00  0.00    -0.148 C  
BRANCH  12  13
HETATM   13  C   UNL     1      -8.142  13.479  67.902  1.00  0.00    -0.165 A  
HETATM   14  C   UNL     1      -8.724  12.683  66.904  1.00  0.00    -0.175 A  
HETATM   15  C   UNL     1      -8.606  11.290  66.951  1.00  0.00    -0.150 A  
HETATM   16  C   UNL     1      -7.876  10.668  67.970  1.00  0.00    -0.105 A  
HETATM   17  C   UNL     1      -7.362  12.853  68.888  1.00  0.00    -0.014 A  
HETATM   18  C   UNL     1      -7.246  11.457  68.933  1.00  0.00    -0.113 A  
BRANCH  16  19
HETATM   19  O   UNL     1      -7.942   9.291  67.975  1.00  0.00    -0.099 OA 
BRANCH  19  20
HETATM   20  C   UNL     1      -8.600   8.623  68.981  1.00  0.00    -0.129 A  
HETATM   21  C   UNL     1      -9.992   8.532  68.869  1.00  0.00    -0.197 A  
HETATM   22  C   UNL     1     -10.731   7.819  69.818  1.00  0.00    -0.236 A  
HETATM   23  C   UNL     1     -10.065   7.196  70.883  1.00  0.00    -0.193 A  
HETATM   24  C   UNL     1      -8.667   7.254  70.977  1.00  0.00    -0.140 A  
HETATM   25  N   UNL     1     -10.832   6.473  71.901  1.00  0.00    -0.230 N  
HETATM   26  C   UNL     1      -7.938   7.950  70.013  1.00  0.00    -0.111 A  
HETATM   27  O   UNL     1     -12.057   6.385  71.749  1.00  0.00    -0.340 OA 
HETATM   28  O   UNL     1     -10.208   5.999  72.867  1.00  0.00    -0.178 OA 
ENDBRANCH  19  20
ENDBRANCH  16  19
ENDBRANCH  12  13
ENDBRANCH   6  12
ENDBRANCH   5   6
ENDBRANCH   4   5
ENDBRANCH   3   4
ENDBRANCH   2   3
TORSDOF 8
ENDMDL
MODEL      158
REMARK 921   NORMALIZED FREE ENERGY PREDICTED BY IDOCK:   -3.67 KCAL/MOL
REMARK 922        TOTAL FREE ENERGY PREDICTED BY IDOCK:   -6.32 KCAL/MOL
REMARK 923 INTER-LIGAND FREE ENERGY PREDICTED BY IDOCK:   -5.51 KCAL/MOL
REMARK 924 INTRA-LIGAND FREE ENERGY PREDICTED BY IDOCK:   -0.81 KCAL/MOL
REMARK 927      BINDING AFFINITY PREDICTED BY RF-SCORE:    0.00 PKD
ROOT
HETATM    1  C   UNL     1      -8.791  11.409  63.136  1.00  0.00    -0.002 C  
HETATM    2  C   UNL     1     -10.277  11.264  62.884  1.00  0.00    -0.149 C  
ENDROOT
BRANCH   2   3
HETATM    3  O   UNL     1     -11.036  12.105  63.761  1.00  0.00    -0.360 OA 
BRANCH   3   4
HETATM    4  C   UNL     1     -10.187  13.142  64.269  1.00  0.00    -0.261 C  
BRANCH   4   5
HETATM    5  C   UNL     1     -10.376  13.428  65.766  1.00  0.00    -0.293 C  
BRANCH   5   6
HETATM    6  N   UNL     1      -9.455  12.795  66.736  1.00  0.00    -0.237 N  
HETATM    7 CL   UNL     1      -5.966  12.576  67.269  1.00  0.00    -0.147 Cl 
HETATM    8  C   UNL     1      -8.442  13.651  67.246  1.00  0.00    -0.194 C  
HETATM    9  C   UNL     1      -7.395  13.066  68.210  1.00  0.00    -0.116 C  
HETATM   10 CL   UNL     1      -6.931  14.277  69.433  1.00  0.00    -0.125 Cl 
HETATM   11  O   UNL     1      -8.381  14.840  66.906  1.00  0.00    -0.208 OA 
BRANCH   6  12
HETATM   12  C   UNL     1      -9.283  11.327  66.796  1.00  0.00    -0.175 C  
BRANCH  12  13
HETATM   13  C   UNL     1      -9.912  10.567  67.938  1.00  0.00    -0.193 A  
HETATM   14  C   UNL     1      -9.936   9.164  67.949  1.00  0.00    -0.228 A  
HETATM   15  C   UNL     1     -10.644   8.477  68.940  1.00  0.00    -0.166 A  
HETATM   16  C   UNL     1     -11.309   9.172  69.957  1.00  0.00    -0.090 A  
HETATM   17  C   UNL     1     -10.530  11.256  68.993  1.00  0.00    -0.221 A  
HETATM   18  C   UNL     1     -11.241  10.565  69.984  1.00  0.00    -0.386 A  
BRANCH  16  19
HETATM   19  O   UNL     1     -12.072   8.387  70.794  1.00  0.00    -0.203 OA 
BRANCH  19  20
HETATM   20  C   UNL     1     -11.492   7.397  71.554  1.00  0.00    -0.263 A  
HETATM   21  C   UNL     1     -10.158   7.595  71.929  1.00  0.00    -0.218 A  
HETATM   22  C   UNL     1      -9.512   6.666  72.749  1.00  0.00    -0.153 A  
HETATM   23  C   UNL     1     -10.212   5.535  73.193  1.00  0.00    -0.189 A  
HETATM   24  C   UNL     1     -11.560   5.355  72.850  1.00  0.00    -0.296 A  
HETATM   25  N   UNL     1      -9.535   4.538  74.028  1.00  0.00    -0.116 N  
HETATM   26  C   UNL     1     -12.200   6.298  72.048  1.00  0.00    -0.270 A  
HETATM   27  O   UNL     1      -8.366   4.765  74.367  1.00  0.00    -0.101 OA 
HETATM   28  O   UNL     1     -10.170   3.516  74.337  1.00  0.00    -0.147 OA 
ENDBRANCH  19  20
ENDBRANCH  16  19
ENDBRANCH  12  13
ENDBRANCH   6  12
ENDBRANCH   5   6
ENDBRANCH   4   5
ENDBRANCH   3   4
ENDBRANCH   2   3
TORSDOF 8
ENDMDL
MODEL      159
REMARK 921   NORMALIZED FREE ENERGY PREDICTED BY IDOCK:   -3.66 KCAL/MOL
REMARK 922        TOTAL FREE ENERGY PREDICTED BY IDOCK:   -6.30 KCAL/MOL
REMARK 923 INTER-LIGAND FREE ENERGY PREDICTED BY IDOCK:   -4.97 KCAL/MOL
REMARK 924 INTRA-LIGAND FREE ENERGY PREDICTED BY IDOCK:   -1.33 KCAL/MOL
REMARK 927      BINDING AFFINITY PREDICTED BY RF-SCORE:    0.00 PKD
ROOT
HETATM    1  C   UNL     1      -6.502  11.887  69.263  1.00  0.00    -0.111 C  
HETATM    2  C   UNL     1      -7.692  12.674  68.754  1.00  0.00     0.007 C  
ENDROOT
BRANCH   2   3
HETATM    3  O   UNL     1      -7.401  13.299  67.498  1.00  0.00    -0.148 OA 
BRANCH   3   4
HETATM    4  C   UNL     1      -7.444  14.722  67.661  1.00  0.00    -0.184 C  
BRANCH   4   5
HETATM    5  C   UNL     1      -7.929  15.479  66.415  1.00  0.00     0.194 C  
BRANCH   5   6
HETATM    6  N   UNL     1      -9.311  16.005  66.392  1.00  0.00    -0.271 N  
HETATM    7 CL   UNL     1     -11.879  16.713  68.718  1.00  0.00     0.185 Cl 
HETATM    8  C   UNL     1      -9.579  17.028  67.341  1.00  0.00    -0.246 C  
HETATM    9  C   UNL     1     -11.007  17.592  67.439  1.00  0.00    -0.050 C  
HETATM   10 CL   UNL     1     -10.964  19.332  67.819  1.00  0.00    -0.414 Cl 
HETATM   11  O   UNL     1      -8.691  17.446  68.095  1.00  0.00    -0.240 OA 
BRANCH   6  12
HETATM   12  C   UNL     1     -10.426  15.227  65.809  1.00  0.00    -0.349 C  
BRANCH  12  13
HETATM   13  C   UNL     1     -10.792  13.901  66.432  1.00  0.00    -0.291 A  
HETATM   14  C   UNL     1     -11.375  13.835  67.706  1.00  0.00    -0.331 A  
HETATM   15  C   UNL     1     -11.578  12.599  68.328  1.00  0.00    -0.377 A  
HETATM   16  C   UNL     1     -11.238  11.408  67.679  1.00  0.00    -0.283 A  
HETATM   17  C   UNL     1     -10.508  12.700  65.762  1.00  0.00    -0.299 A  
HETATM   18  C   UNL     1     -10.711  11.463  66.388  1.00  0.00    -0.325 A  
BRANCH  16  19
HETATM   19  O   UNL     1     -11.369  10.270  68.447  1.00  0.00    -0.256 OA 
BRANCH  19  20
HETATM   20  C   UNL     1     -10.263   9.652  68.982  1.00  0.00    -0.199 A  
HETATM   21  C   UNL     1      -9.979   9.925  70.325  1.00  0.00    -0.261 A  
HETATM   22  C   UNL     1      -8.907   9.293  70.962  1.00  0.00    -0.205 A  
HETATM   23  C   UNL     1      -8.119   8.383  70.243  1.00  0.00    -0.104 A  
HETATM   24  C   UNL     1      -8.424   8.079  68.909  1.00  0.00    -0.131 A  
HETATM   25  N   UNL     1      -6.973   7.738  70.892  1.00  0.00    -0.048 N  
HETATM   26  C   UNL     1      -9.509   8.700  68.290  1.00  0.00    -0.150 A  
HETATM   27  O   UNL     1      -6.775   7.979  72.090  1.00  0.00    -0.059 OA 
HETATM   28  O   UNL     1      -6.259   6.995  70.197  1.00  0.00    -0.027 OA 
ENDBRANCH  19  20
ENDBRANCH  16  19
ENDBRANCH  12  13
ENDBRANCH   6  12
ENDBRANCH   5   6
ENDBRANCH   4   5
ENDBRANCH   3   4
ENDBRANCH   2   3
TORSDOF 8
ENDMDL
MODEL      160
REMARK 921   NORMALIZED FREE ENERGY PREDICTED BY IDOCK:   -3.65 KCAL/MOL
REMARK 922        TOTAL FREE ENERGY PREDICTED BY IDOCK:   -6.30 KCAL/MOL
REMARK 923 INTER-LIGAND FREE ENERGY PREDICTED BY IDOCK:   -5.51 KCAL/MOL
REMARK 924 INTRA-LIGAND FREE ENERGY PREDICTED BY IDOCK:   -0.79 KCAL/MOL
REMARK 927      BINDING AFFINITY PREDICTED BY RF-SCORE:    0.00 PKD
ROOT
HETATM    1  C   UNL     1     -10.830  19.578  67.312  1.00  0.00    -0.557 C  
HETATM    2  C   UNL     1     -10.659  19.148  65.871  1.00  0.00    -0.415 C  
ENDROOT
BRANCH   2   3
HETATM    3  O   UNL     1      -9.793  18.011  65.769  1.00  0.00    -0.539 OA 
BRANCH   3   4
HETATM    4  C   UNL     1      -9.283  17.690  67.069  1.00  0.00    -0.250 C  
BRANCH   4   5
HETATM    5  C   UNL     1      -8.888  16.215  67.239  1.00  0.00    -0.186 C  
BRANCH   5   6
HETATM    6  N   UNL     1      -9.956  15.202  67.390  1.00  0.00    -0.226 N  
HETATM    7 CL   UNL     1     -10.613  12.374  69.407  1.00  0.00     0.091 Cl 
HETATM    8  C   UNL     1     -10.383  14.975  68.726  1.00  0.00    -0.240 C  
HETATM    9  C   UNL     1     -11.442  13.892  68.991  1.00  0.00    -0.299 C  
HETATM   10 CL   UNL     1     -12.514  14.385  70.327  1.00  0.00    -0.404 Cl 
HETATM   11  O   UNL     1      -9.896  15.615  69.667  1.00  0.00    -0.266 OA 
BRANCH   6  12
HETATM   12  C   UNL     1     -10.207  14.181  66.349  1.00  0.00    -0.290 C  
BRANCH  12  13
HETATM   13  C   UNL     1      -9.386  12.915  66.360  1.00  0.00    -0.192 A  
HETATM   14  C   UNL     1      -9.851  11.744  65.743  1.00  0.00    -0.267 A  
HETATM   15  C   UNL     1      -9.146  10.543  65.882  1.00  0.00    -0.192 A  
HETATM   16  C   UNL     1      -7.950  10.496  66.605  1.00  0.00    -0.125 A  
HETATM   17  C   UNL     1      -8.155  12.874  67.034  1.00  0.00    -0.057 A  
HETATM   18  C   UNL     1      -7.452  11.669  67.173  1.00  0.00    -0.146 A  
BRANCH  16  19
HETATM   19  O   UNL     1      -7.423   9.233  66.775  1.00  0.00    -0.086 OA 
BRANCH  19  20
HETATM   20  C   UNL     1      -7.466   8.611  68.001  1.00  0.00    -0.097 A  
HETATM   21  C   UNL     1      -8.559   8.916  68.820  1.00  0.00    -0.136 A  
HETATM   22  C   UNL     1      -8.710   8.283  70.058  1.00  0.00    -0.133 A  
HETATM   23  C   UNL     1      -7.757   7.341  70.470  1.00  0.00    -0.093 A  
HETATM   24  C   UNL     1      -6.682   7.006  69.634  1.00  0.00    -0.049 A  
HETATM   25  N   UNL     1      -7.888   6.694  71.779  1.00  0.00    -0.101 N  
HETATM   26  C   UNL     1      -6.553   7.628  68.393  1.00  0.00    -0.054 A  
HETATM   27  O   UNL     1      -8.885   6.964  72.461  1.00  0.00    -0.126 OA 
HETATM   28  O   UNL     1      -6.982   5.921  72.135  1.00  0.00    -0.074 OA 
ENDBRANCH  19  20
ENDBRANCH  16  19
ENDBRANCH  12  13
ENDBRANCH   6  12
ENDBRANCH   5   6
ENDBRANCH   4   5
ENDBRANCH   3   4
ENDBRANCH   2   3
TORSDOF 8
ENDMDL
MODEL      161
REMARK 921   NORMALIZED FREE ENERGY PREDICTED BY IDOCK:   -3.62 KCAL/MOL
REMARK 922        TOTAL FREE ENERGY PREDICTED BY IDOCK:   -6.24 KCAL/MOL
REMARK 923 INTER-LIGAND FREE ENERGY PREDICTED BY IDOCK:   -5.29 KCAL/MOL
REMARK 924 INTRA-LIGAND FREE ENERGY PREDICTED BY IDOCK:   -0.96 KCAL/MOL
REMARK 927      BINDING AFFINITY PREDICTED BY RF-SCORE:    0.00 PKD
ROOT
HETATM    1  C   UNL     1     -10.514  16.319  67.716  1.00  0.00    -0.295 C  
HETATM    2  C   UNL     1     -10.797  15.327  66.608  1.00  0.00    -0.310 C  
ENDROOT
BRANCH   2   3
HETATM    3  O   UNL     1     -10.588  13.981  67.051  1.00  0.00    -0.276 OA 
BRANCH   3   4
HETATM    4  C   UNL     1     -11.715  13.181  66.673  1.00  0.00    -0.375 C  
BRANCH   4   5
HETATM    5  C   UNL     1     -11.531  11.678  66.935  1.00  0.00    -0.247 C  
BRANCH   5   6
HETATM    6  N   UNL     1     -10.169  11.104  66.870  1.00  0.00    -0.214 N  
HETATM    7 CL   UNL     1      -8.623   8.169  65.649  1.00  0.00    -0.174 Cl 
HETATM    8  C   UNL     1      -9.789  10.601  65.597  1.00  0.00    -0.251 C  
HETATM    9  C   UNL     1      -8.416   9.924  65.447  1.00  0.00    -0.147 C  
HETATM   10 CL   UNL     1      -7.723  10.274  63.842  1.00  0.00    -0.135 Cl 
HETATM   11  O   UNL     1     -10.555  10.680  64.627  1.00  0.00    -0.296 OA 
BRANCH   6  12
HETATM   12  C   UNL     1      -9.465  10.644  68.087  1.00  0.00    -0.154 C  
BRANCH  12  13
HETATM   13  C   UNL     1     -10.067   9.519  68.894  1.00  0.00    -0.199 A  
HETATM   14  C   UNL     1     -10.017   9.525  70.296  1.00  0.00    -0.310 A  
HETATM   15  C   UNL     1     -10.451   8.413  71.024  1.00  0.00    -0.251 A  
HETATM   16  C   UNL     1     -10.975   7.292  70.372  1.00  0.00    -0.252 A  
HETATM   17  C   UNL     1     -10.649   8.416  68.249  1.00  0.00    -0.163 A  
HETATM   18  C   UNL     1     -11.082   7.302  68.981  1.00  0.00     0.006 A  
BRANCH  16  19
HETATM   19  O   UNL     1     -11.247   6.217  71.192  1.00  0.00    -0.291 OA 
BRANCH  19  20
HETATM   20  C   UNL     1     -10.227   5.477  71.743  1.00  0.00    -0.202 A  
HETATM   21  C   UNL     1      -9.235   5.024  70.866  1.00  0.00    -0.192 A  
HETATM   22  C   UNL     1      -8.134   4.315  71.353  1.00  0.00    -0.082 A  
HETATM   23  C   UNL     1      -8.031   4.062  72.728  1.00  0.00    -0.084 A  
HETATM   24  C   UNL     1      -9.003   4.548  73.614  1.00  0.00    -0.103 A  
HETATM   25  N   UNL     1      -6.895   3.293  73.247  1.00  0.00    -0.037 N  
HETATM   26  C   UNL     1     -10.088   5.272  73.119  1.00  0.00    -0.205 A  
HETATM   27  O   UNL     1      -6.022   2.939  72.445  1.00  0.00    -0.008 OA 
HETATM   28  O   UNL     1      -6.883   3.029  74.461  1.00  0.00    -0.036 OA 
ENDBRANCH  19  20
ENDBRANCH  16  19
ENDBRANCH  12  13
ENDBRANCH   6  12
ENDBRANCH   5   6
ENDBRANCH   4   5
ENDBRANCH   3   4
ENDBRANCH   2   3
TORSDOF 8
ENDMDL
MODEL      162
REMARK 921   NORMALIZED FREE ENERGY PREDICTED BY IDOCK:   -3.61 KCAL/MOL
REMARK 922        TOTAL FREE ENERGY PREDICTED BY IDOCK:   -6.24 KCAL/MOL
REMARK 923 INTER-LIGAND FREE ENERGY PREDICTED BY IDOCK:   -5.27 KCAL/MOL
REMARK 924 INTRA-LIGAND FREE ENERGY PREDICTED BY IDOCK:   -0.97 KCAL/MOL
REMARK 927      BINDING AFFINITY PREDICTED BY RF-SCORE:    0.00 PKD
ROOT
HETATM    1  C   UNL     1      -9.293  17.761  68.085  1.00  0.00    -0.281 C  
HETATM    2  C   UNL     1     -10.665  17.166  67.851  1.00  0.00    -0.355 C  
ENDROOT
BRANCH   2   3
HETATM    3  O   UNL     1     -10.581  15.762  67.578  1.00  0.00    -0.296 OA 
BRANCH   3   4
HETATM    4  C   UNL     1      -9.447  15.217  68.265  1.00  0.00    -0.201 C  
BRANCH   4   5
HETATM    5  C   UNL     1      -9.799  14.476  69.564  1.00  0.00     0.178 C  
BRANCH   5   6
HETATM    6  N   UNL     1     -11.132  13.845  69.687  1.00  0.00    -0.138 N  
HETATM    7 CL   UNL     1     -12.988  12.112  72.147  1.00  0.00    -0.396 Cl 
HETATM    8  C   UNL     1     -11.855  14.195  70.859  1.00  0.00    -0.223 C  
HETATM    9  C   UNL     1     -13.223  13.538  71.109  1.00  0.00    -0.147 C  
HETATM   10 CL   UNL     1     -14.330  14.689  71.900  1.00  0.00    -0.600 Cl 
HETATM   11  O   UNL     1     -11.387  14.993  71.681  1.00  0.00    -0.360 OA 
BRANCH   6  12
HETATM   12  C   UNL     1     -11.476  12.612  68.946  1.00  0.00    -0.306 C  
BRANCH  12  13
HETATM   13  C   UNL     1     -10.547  11.426  69.037  1.00  0.00    -0.224 A  
HETATM   14  C   UNL     1     -10.548  10.588  70.162  1.00  0.00    -0.163 A  
HETATM   15  C   UNL     1      -9.588   9.581  70.295  1.00  0.00    -0.314 A  
HETATM   16  C   UNL     1      -8.634   9.365  69.294  1.00  0.00    -0.143 A  
HETATM   17  C   UNL     1      -9.625  11.166  68.009  1.00  0.00    -0.181 A  
HETATM   18  C   UNL     1      -8.663  10.156  68.145  1.00  0.00    -0.122 A  
BRANCH  16  19
HETATM   19  O   UNL     1      -7.669   8.430  69.603  1.00  0.00    -0.090 OA 
BRANCH  19  20
HETATM   20  C   UNL     1      -8.014   7.219  70.155  1.00  0.00    -0.112 A  
HETATM   21  C   UNL     1      -9.060   6.523  69.538  1.00  0.00    -0.140 A  
HETATM   22  C   UNL     1      -9.435   5.258  70.001  1.00  0.00    -0.216 A  
HETATM   23  C   UNL     1      -8.754   4.693  71.088  1.00  0.00    -0.116 A  
HETATM   24  C   UNL     1      -7.681   5.372  71.684  1.00  0.00    -0.106 A  
HETATM   25  N   UNL     1      -9.159   3.381  71.602  1.00  0.00    -0.103 N  
HETATM   26  C   UNL     1      -7.302   6.624  71.200  1.00  0.00    -0.079 A  
HETATM   27  O   UNL     1     -10.065   2.782  71.009  1.00  0.00     0.038 OA 
HETATM   28  O   UNL     1      -8.577   2.951  72.613  1.00  0.00    -0.074 OA 
ENDBRANCH  19  20
ENDBRANCH  16  19
ENDBRANCH  12  13
ENDBRANCH   6  12
ENDBRANCH   5   6
ENDBRANCH   4   5
ENDBRANCH   3   4
ENDBRANCH   2   3
TORSDOF 8
ENDMDL
MODEL      163
REMARK 921   NORMALIZED FREE ENERGY PREDICTED BY IDOCK:   -3.59 KCAL/MOL
REMARK 922        TOTAL FREE ENERGY PREDICTED BY IDOCK:   -6.20 KCAL/MOL
REMARK 923 INTER-LIGAND FREE ENERGY PREDICTED BY IDOCK:   -5.71 KCAL/MOL
REMARK 924 INTRA-LIGAND FREE ENERGY PREDICTED BY IDOCK:   -0.49 KCAL/MOL
REMARK 927      BINDING AFFINITY PREDICTED BY RF-SCORE:    0.00 PKD
ROOT
HETATM    1  C   UNL     1     -12.797  15.839  71.646  1.00  0.00    -0.514 C  
HETATM    2  C   UNL     1     -12.758  14.433  72.206  1.00  0.00    -0.317 C  
ENDROOT
BRANCH   2   3
HETATM    3  O   UNL     1     -13.350  13.497  71.297  1.00  0.00    -0.266 OA 
BRANCH   3   4
HETATM    4  C   UNL     1     -12.315  12.713  70.689  1.00  0.00    -0.290 C  
BRANCH   4   5
HETATM    5  C   UNL     1     -11.427  13.500  69.712  1.00  0.00    -0.175 C  
BRANCH   5   6
HETATM    6  N   UNL     1     -11.327  13.039  68.310  1.00  0.00    -0.268 N  
HETATM    7 CL   UNL     1     -12.910  13.704  65.219  1.00  0.00    -0.480 Cl 
HETATM    8  C   UNL     1     -11.283  14.076  67.340  1.00  0.00    -0.311 C  
HETATM    9  C   UNL     1     -11.246  13.696  65.850  1.00  0.00    -0.304 C  
HETATM   10 CL   UNL     1     -10.245  14.855  64.937  1.00  0.00    -0.367 Cl 
HETATM   11  O   UNL     1     -11.301  15.267  67.679  1.00  0.00    -0.328 OA 
BRANCH   6  12
HETATM   12  C   UNL     1     -11.729  11.672  67.914  1.00  0.00    -0.259 C  
BRANCH  12  13
HETATM   13  C   UNL     1     -10.799  10.523  68.218  1.00  0.00    -0.293 A  
HETATM   14  C   UNL     1      -9.791  10.642  69.186  1.00  0.00    -0.217 A  
HETATM   15  C   UNL     1      -8.849   9.622  69.357  1.00  0.00    -0.183 A  
HETATM   16  C   UNL     1      -8.916   8.452  68.593  1.00  0.00    -0.140 A  
HETATM   17  C   UNL     1     -10.896   9.322  67.496  1.00  0.00    -0.182 A  
HETATM   18  C   UNL     1      -9.950   8.302  67.668  1.00  0.00    -0.245 A  
BRANCH  16  19
HETATM   19  O   UNL     1      -7.859   7.583  68.767  1.00  0.00    -0.116 OA 
BRANCH  19  20
HETATM   20  C   UNL     1      -7.358   6.865  67.707  1.00  0.00    -0.097 A  
HETATM   21  C   UNL     1      -7.769   5.532  67.601  1.00  0.00    -0.093 A  
HETATM   22  C   UNL     1      -7.352   4.749  66.521  1.00  0.00    -0.082 A  
HETATM   23  C   UNL     1      -6.519   5.311  65.543  1.00  0.00    -0.040 A  
HETATM   24  C   UNL     1      -6.137   6.658  65.627  1.00  0.00    -0.038 A  
HETATM   25  N   UNL     1      -6.050   4.491  64.423  1.00  0.00    -0.021 N  
HETATM   26  C   UNL     1      -6.575   7.435  66.698  1.00  0.00    -0.053 A  
HETATM   27  O   UNL     1      -6.463   3.327  64.346  1.00  0.00    -0.029 OA 
HETATM   28  O   UNL     1      -5.254   5.009  63.621  1.00  0.00    -0.009 OA 
ENDBRANCH  19  20
ENDBRANCH  16  19
ENDBRANCH  12  13
ENDBRANCH   6  12
ENDBRANCH   5   6
ENDBRANCH   4   5
ENDBRANCH   3   4
ENDBRANCH   2   3
TORSDOF 8
ENDMDL
MODEL      164
REMARK 921   NORMALIZED FREE ENERGY PREDICTED BY IDOCK:   -3.55 KCAL/MOL
REMARK 922        TOTAL FREE ENERGY PREDICTED BY IDOCK:   -6.15 KCAL/MOL
REMARK 923 INTER-LIGAND FREE ENERGY PREDICTED BY IDOCK:   -5.17 KCAL/MOL
REMARK 924 INTRA-LIGAND FREE ENERGY PREDICTED BY IDOCK:   -0.98 KCAL/MOL
REMARK 927      BINDING AFFINITY PREDICTED BY RF-SCORE:    0.00 PKD
ROOT
HETATM    1  C   UNL     1      -5.810  20.238  70.543  1.00  0.00    -0.371 C  
HETATM    2  C   UNL     1      -6.326  20.082  69.129  1.00  0.00    -0.325 C  
ENDROOT
BRANCH   2   3
HETATM    3  O   UNL     1      -6.935  18.799  68.939  1.00  0.00    -0.291 OA 
BRANCH   3   4
HETATM    4  C   UNL     1      -7.978  18.914  67.962  1.00  0.00    -0.286 C  
BRANCH   4   5
HETATM    5  C   UNL     1      -8.096  17.701  67.027  1.00  0.00    -0.222 C  
BRANCH   5   6
HETATM    6  N   UNL     1      -8.767  16.479  67.524  1.00  0.00    -0.181 N  
HETATM    7 CL   UNL     1     -11.878  15.605  68.958  1.00  0.00    -0.396 Cl 
HETATM    8  C   UNL     1     -10.095  16.291  67.053  1.00  0.00    -0.270 C  
HETATM    9  C   UNL     1     -10.899  15.085  67.567  1.00  0.00    -0.297 C  
HETATM   10 CL   UNL     1     -11.958  14.451  66.281  1.00  0.00    -0.407 Cl 
HETATM   11  O   UNL     1     -10.610  17.094  66.264  1.00  0.00    -0.285 OA 
BRANCH   6  12
HETATM   12  C   UNL     1      -8.314  15.792  68.753  1.00  0.00    -0.195 C  
BRANCH  12  13
HETATM   13  C   UNL     1      -7.470  14.547  68.621  1.00  0.00    -0.128 A  
HETATM   14  C   UNL     1      -7.519  13.757  67.463  1.00  0.00    -0.182 A  
HETATM   15  C   UNL     1      -6.842  12.534  67.413  1.00  0.00    -0.145 A  
HETATM   16  C   UNL     1      -6.076  12.095  68.497  1.00  0.00    -0.051 A  
HETATM   17  C   UNL     1      -6.652  14.130  69.684  1.00  0.00    -0.120 A  
HETATM   18  C   UNL     1      -5.976  12.903  69.630  1.00  0.00    -0.120 A  
BRANCH  16  19
HETATM   19  O   UNL     1      -5.565  10.820  68.371  1.00  0.00    -0.044 OA 
BRANCH  19  20
HETATM   20  C   UNL     1      -6.401   9.729  68.332  1.00  0.00    -0.054 A  
HETATM   21  C   UNL     1      -6.203   8.824  67.282  1.00  0.00    -0.056 A  
HETATM   22  C   UNL     1      -6.971   7.659  67.202  1.00  0.00    -0.080 A  
HETATM   23  C   UNL     1      -7.940   7.403  68.183  1.00  0.00    -0.123 A  
HETATM   24  C   UNL     1      -8.113   8.289  69.256  1.00  0.00    -0.116 A  
HETATM   25  N   UNL     1      -8.772   6.200  68.092  1.00  0.00    -0.115 N  
HETATM   26  C   UNL     1      -7.327   9.438  69.337  1.00  0.00    -0.078 A  
HETATM   27  O   UNL     1      -8.544   5.408  67.168  1.00  0.00    -0.110 OA 
HETATM   28  O   UNL     1      -9.667   6.051  68.940  1.00  0.00    -0.127 OA 
ENDBRANCH  19  20
ENDBRANCH  16  19
ENDBRANCH  12  13
ENDBRANCH   6  12
ENDBRANCH   5   6
ENDBRANCH   4   5
ENDBRANCH   3   4
ENDBRANCH   2   3
TORSDOF 8
ENDMDL
MODEL      165
REMARK 921   NORMALIZED FREE ENERGY PREDICTED BY IDOCK:   -3.54 KCAL/MOL
REMARK 922        TOTAL FREE ENERGY PREDICTED BY IDOCK:   -6.13 KCAL/MOL
REMARK 923 INTER-LIGAND FREE ENERGY PREDICTED BY IDOCK:   -5.22 KCAL/MOL
REMARK 924 INTRA-LIGAND FREE ENERGY PREDICTED BY IDOCK:   -0.90 KCAL/MOL
REMARK 927      BINDING AFFINITY PREDICTED BY RF-SCORE:    0.00 PKD
ROOT
HETATM    1  C   UNL     1     -11.036  16.587  68.613  1.00  0.00    -0.344 C  
HETATM    2  C   UNL     1     -10.841  16.036  67.216  1.00  0.00    -0.255 C  
ENDROOT
BRANCH   2   3
HETATM    3  O   UNL     1     -10.539  14.636  67.250  1.00  0.00    -0.277 OA 
BRANCH   3   4
HETATM    4  C   UNL     1     -11.763  13.893  67.315  1.00  0.00    -0.386 C  
BRANCH   4   5
HETATM    5  C   UNL     1     -11.585  12.378  67.126  1.00  0.00    -0.365 C  
BRANCH   5   6
HETATM    6  N   UNL     1     -10.336  11.877  66.511  1.00  0.00    -0.212 N  
HETATM    7 CL   UNL     1      -9.302   9.097  64.587  1.00  0.00    -0.043 Cl 
HETATM    8  C   UNL     1     -10.457  11.468  65.156  1.00  0.00    -0.286 C  
HETATM    9  C   UNL     1      -9.229  10.870  64.450  1.00  0.00    -0.198 C  
HETATM   10 CL   UNL     1      -9.205  11.346  62.733  1.00  0.00    -0.375 Cl 
HETATM   11  O   UNL     1     -11.536  11.565  64.555  1.00  0.00    -0.248 OA 
BRANCH   6  12
HETATM   12  C   UNL     1      -9.212  11.381  67.336  1.00  0.00    -0.164 C  
BRANCH  12  13
HETATM   13  C   UNL     1      -9.307  10.001  67.941  1.00  0.00    -0.151 A  
HETATM   14  C   UNL     1      -8.173   9.358  68.460  1.00  0.00    -0.113 A  
HETATM   15  C   UNL     1      -8.248   8.028  68.886  1.00  0.00    -0.125 A  
HETATM   16  C   UNL     1      -9.458   7.328  68.838  1.00  0.00    -0.143 A  
HETATM   17  C   UNL     1     -10.531   9.313  67.950  1.00  0.00    -0.290 A  
HETATM   18  C   UNL     1     -10.603   7.980  68.377  1.00  0.00    -0.150 A  
BRANCH  16  19
HETATM   19  O   UNL     1      -9.371   5.992  69.166  1.00  0.00    -0.124 OA 
BRANCH  19  20
HETATM   20  C   UNL     1      -9.058   5.053  68.211  1.00  0.00    -0.115 A  
HETATM   21  C   UNL     1      -9.790   5.102  67.019  1.00  0.00    -0.197 A  
HETATM   22  C   UNL     1      -9.496   4.220  65.975  1.00  0.00    -0.177 A  
HETATM   23  C   UNL     1      -8.461   3.288  66.131  1.00  0.00    -0.111 A  
HETATM   24  C   UNL     1      -7.701   3.262  67.310  1.00  0.00    -0.078 A  
HETATM   25  N   UNL     1      -8.164   2.338  65.055  1.00  0.00    -0.079 N  
HETATM   26  C   UNL     1      -7.990   4.160  68.337  1.00  0.00    -0.073 A  
HETATM   27  O   UNL     1      -8.810   2.434  64.003  1.00  0.00    -0.089 OA 
HETATM   28  O   UNL     1      -7.288   1.481  65.265  1.00  0.00    -0.050 OA 
ENDBRANCH  19  20
ENDBRANCH  16  19
ENDBRANCH  12  13
ENDBRANCH   6  12
ENDBRANCH   5   6
ENDBRANCH   4   5
ENDBRANCH   3   4
ENDBRANCH   2   3
TORSDOF 8
ENDMDL
MODEL      166
REMARK 921   NORMALIZED FREE ENERGY PREDICTED BY IDOCK:   -3.50 KCAL/MOL
REMARK 922        TOTAL FREE ENERGY PREDICTED BY IDOCK:   -6.07 KCAL/MOL
REMARK 923 INTER-LIGAND FREE ENERGY PREDICTED BY IDOCK:   -5.07 KCAL/MOL
REMARK 924 INTRA-LIGAND FREE ENERGY PREDICTED BY IDOCK:   -1.00 KCAL/MOL
REMARK 927      BINDING AFFINITY PREDICTED BY RF-SCORE:    0.00 PKD
ROOT
HETATM    1  C   UNL     1     -10.203  16.323  66.410  1.00  0.00    -0.322 C  
HETATM    2  C   UNL     1     -10.595  15.518  65.190  1.00  0.00    -0.431 C  
ENDROOT
BRANCH   2   3
HETATM    3  O   UNL     1     -10.167  14.155  65.309  1.00  0.00    -0.352 OA 
BRANCH   3   4
HETATM    4  C   UNL     1     -10.604  13.634  66.571  1.00  0.00    -0.282 C  
BRANCH   4   5
HETATM    5  C   UNL     1     -10.368  12.126  66.739  1.00  0.00    -0.213 C  
BRANCH   5   6
HETATM    6  N   UNL     1      -9.626  11.648  67.927  1.00  0.00    -0.175 N  
HETATM    7 CL   UNL     1      -7.025   9.361  68.641  1.00  0.00    -0.064 Cl 
HETATM    8  C   UNL     1      -8.213  11.628  67.784  1.00  0.00    -0.141 C  
HETATM    9  C   UNL     1      -7.359  11.083  68.942  1.00  0.00    -0.111 C  
HETATM   10 CL   UNL     1      -5.827  11.986  69.062  1.00  0.00    -0.060 Cl 
HETATM   11  O   UNL     1      -7.673  12.016  66.740  1.00  0.00    -0.117 OA 
BRANCH   6  12
HETATM   12  C   UNL     1     -10.277  10.813  68.961  1.00  0.00    -0.213 C  
BRANCH  12  13
HETATM   13  C   UNL     1     -10.520   9.352  68.671  1.00  0.00    -0.236 A  
HETATM   14  C   UNL     1     -10.699   8.426  69.709  1.00  0.00    -0.211 A  
HETATM   15  C   UNL     1     -10.781   7.058  69.431  1.00  0.00    -0.259 A  
HETATM   16  C   UNL     1     -10.724   6.592  68.113  1.00  0.00    -0.282 A  
HETATM   17  C   UNL     1     -10.522   8.884  67.347  1.00  0.00    -0.347 A  
HETATM   18  C   UNL     1     -10.604   7.512  67.071  1.00  0.00    -0.409 A  
BRANCH  16  19
HETATM   19  O   UNL     1     -10.688   5.219  67.983  1.00  0.00    -0.084 OA 
BRANCH  19  20
HETATM   20  C   UNL     1      -9.584   4.592  67.453  1.00  0.00    -0.167 A  
HETATM   21  C   UNL     1      -9.724   4.058  66.167  1.00  0.00    -0.198 A  
HETATM   22  C   UNL     1      -8.633   3.455  65.532  1.00  0.00    -0.112 A  
HETATM   23  C   UNL     1      -7.400   3.391  66.196  1.00  0.00    -0.072 A  
HETATM   24  C   UNL     1      -7.248   3.960  67.469  1.00  0.00    -0.067 A  
HETATM   25  N   UNL     1      -6.258   2.734  65.553  1.00  0.00    -0.023 N  
HETATM   26  C   UNL     1      -8.337   4.577  68.083  1.00  0.00    -0.095 A  
HETATM   27  O   UNL     1      -6.410   2.304  64.402  1.00  0.00    -0.018 OA 
HETATM   28  O   UNL     1      -5.205   2.635  66.206  1.00  0.00    -0.004 OA 
ENDBRANCH  19  20
ENDBRANCH  16  19
ENDBRANCH  12  13
ENDBRANCH   6  12
ENDBRANCH   5   6
ENDBRANCH   4   5
ENDBRANCH   3   4
ENDBRANCH   2   3
TORSDOF 8
ENDMDL
MODEL      167
REMARK 921   NORMALIZED FREE ENERGY PREDICTED BY IDOCK:   -3.50 KCAL/MOL
REMARK 922        TOTAL FREE ENERGY PREDICTED BY IDOCK:   -6.07 KCAL/MOL
REMARK 923 INTER-LIGAND FREE ENERGY PREDICTED BY IDOCK:   -4.93 KCAL/MOL
REMARK 924 INTRA-LIGAND FREE ENERGY PREDICTED BY IDOCK:   -1.13 KCAL/MOL
REMARK 927      BINDING AFFINITY PREDICTED BY RF-SCORE:    0.00 PKD
ROOT
HETATM    1  C   UNL     1      -8.099  15.150  68.331  1.00  0.00    -0.139 C  
HETATM    2  C   UNL     1      -8.621  15.256  69.748  1.00  0.00     0.012 C  
ENDROOT
BRANCH   2   3
HETATM    3  O   UNL     1      -9.929  15.839  69.776  1.00  0.00    -0.274 OA 
BRANCH   3   4
HETATM    4  C   UNL     1     -10.802  14.999  70.542  1.00  0.00    -0.123 C  
BRANCH   4   5
HETATM    5  C   UNL     1     -11.940  14.369  69.723  1.00  0.00    -0.332 C  
BRANCH   5   6
HETATM    6  N   UNL     1     -11.603  13.612  68.498  1.00  0.00    -0.312 N  
HETATM    7 CL   UNL     1     -12.797  13.339  65.181  1.00  0.00    -0.462 Cl 
HETATM    8  C   UNL     1     -11.522  14.392  67.314  1.00  0.00    -0.359 C  
HETATM    9  C   UNL     1     -11.243  13.684  65.977  1.00  0.00    -0.296 C  
HETATM   10 CL   UNL     1     -10.238  14.713  64.926  1.00  0.00    -0.399 Cl 
HETATM   11  O   UNL     1     -11.698  15.617  67.345  1.00  0.00    -0.090 OA 
BRANCH   6  12
HETATM   12  C   UNL     1     -11.818  12.151  68.408  1.00  0.00    -0.303 C  
BRANCH  12  13
HETATM   13  C   UNL     1     -10.721  11.224  68.872  1.00  0.00    -0.246 A  
HETATM   14  C   UNL     1     -11.018  10.004  69.498  1.00  0.00    -0.289 A  
HETATM   15  C   UNL     1      -9.996   9.224  70.048  1.00  0.00    -0.238 A  
HETATM   16  C   UNL     1      -8.659   9.626  69.953  1.00  0.00    -0.203 A  
HETATM   17  C   UNL     1      -9.373  11.593  68.728  1.00  0.00    -0.056 A  
HETATM   18  C   UNL     1      -8.351  10.809  69.282  1.00  0.00    -0.072 A  
BRANCH  16  19
HETATM   19  O   UNL     1      -7.764   8.837  70.645  1.00  0.00    -0.071 OA 
BRANCH  19  20
HETATM   20  C   UNL     1      -7.816   7.466  70.550  1.00  0.00    -0.097 A  
HETATM   21  C   UNL     1      -7.327   6.900  69.367  1.00  0.00    -0.091 A  
HETATM   22  C   UNL     1      -7.290   5.511  69.213  1.00  0.00    -0.070 A  
HETATM   23  C   UNL     1      -7.745   4.690  70.255  1.00  0.00    -0.057 A  
HETATM   24  C   UNL     1      -8.199   5.254  71.456  1.00  0.00    -0.117 A  
HETATM   25  N   UNL     1      -7.740   3.233  70.093  1.00  0.00    -0.044 N  
HETATM   26  C   UNL     1      -8.213   6.641  71.606  1.00  0.00    -0.111 A  
HETATM   27  O   UNL     1      -7.269   2.769  69.047  1.00  0.00    -0.044 OA 
HETATM   28  O   UNL     1      -8.221   2.548  71.011  1.00  0.00    -0.052 OA 
ENDBRANCH  19  20
ENDBRANCH  16  19
ENDBRANCH  12  13
ENDBRANCH   6  12
ENDBRANCH   5   6
ENDBRANCH   4   5
ENDBRANCH   3   4
ENDBRANCH   2   3
TORSDOF 8
ENDMDL
MODEL      168
REMARK 921   NORMALIZED FREE ENERGY PREDICTED BY IDOCK:   -3.50 KCAL/MOL
REMARK 922        TOTAL FREE ENERGY PREDICTED BY IDOCK:   -6.06 KCAL/MOL
REMARK 923 INTER-LIGAND FREE ENERGY PREDICTED BY IDOCK:   -6.07 KCAL/MOL
REMARK 924 INTRA-LIGAND FREE ENERGY PREDICTED BY IDOCK:    0.00 KCAL/MOL
REMARK 927      BINDING AFFINITY PREDICTED BY RF-SCORE:    0.00 PKD
ROOT
HETATM    1  C   UNL     1      -8.600  14.707  69.001  1.00  0.00    -0.097 C  
HETATM    2  C   UNL     1      -9.358  14.878  70.301  1.00  0.00     0.804 C  
ENDROOT
BRANCH   2   3
HETATM    3  O   UNL     1     -10.320  15.934  70.204  1.00  0.00    -0.283 OA 
BRANCH   3   4
HETATM    4  C   UNL     1     -11.638  15.379  70.296  1.00  0.00    -0.320 C  
BRANCH   4   5
HETATM    5  C   UNL     1     -12.405  15.363  68.965  1.00  0.00    -0.012 C  
BRANCH   5   6
HETATM    6  N   UNL     1     -11.660  15.089  67.716  1.00  0.00    -0.336 N  
HETATM    7 CL   UNL     1     -11.277  16.561  64.523  1.00  0.00    -0.265 Cl 
HETATM    8  C   UNL     1     -10.959  16.203  67.179  1.00  0.00    -0.144 C  
HETATM    9  C   UNL     1     -10.210  16.034  65.846  1.00  0.00    -0.365 C  
HETATM   10 CL   UNL     1      -8.716  17.006  65.845  1.00  0.00    -0.146 Cl 
HETATM   11  O   UNL     1     -10.968  17.299  67.755  1.00  0.00    -0.318 OA 
BRANCH   6  12
HETATM   12  C   UNL     1     -12.002  13.942  66.847  1.00  0.00    -0.433 C  
BRANCH  12  13
HETATM   13  C   UNL     1     -11.386  12.596  67.143  1.00  0.00    -0.373 A  
HETATM   14  C   UNL     1     -11.546  11.985  68.396  1.00  0.00    -0.368 A  
HETATM   15  C   UNL     1     -10.854  10.809  68.703  1.00  0.00    -0.260 A  
HETATM   16  C   UNL     1     -10.020  10.202  67.758  1.00  0.00    -0.168 A  
HETATM   17  C   UNL     1     -10.595  11.951  66.179  1.00  0.00    -0.295 A  
HETATM   18  C   UNL     1      -9.901  10.773  66.490  1.00  0.00    -0.246 A  
BRANCH  16  19
HETATM   19  O   UNL     1      -9.300   9.124  68.225  1.00  0.00    -0.135 OA 
BRANCH  19  20
HETATM   20  C   UNL     1      -9.696   8.450  69.357  1.00  0.00    -0.177 A  
HETATM   21  C   UNL     1      -9.556   9.128  70.573  1.00  0.00    -0.293 A  
HETATM   22  C   UNL     1      -9.990   8.537  71.763  1.00  0.00    -0.345 A  
HETATM   23  C   UNL     1     -10.567   7.259  71.728  1.00  0.00    -0.205 A  
HETATM   24  C   UNL     1     -10.743   6.594  70.506  1.00  0.00    -0.293 A  
HETATM   25  N   UNL     1     -10.996   6.617  72.974  1.00  0.00    -0.262 N  
HETATM   26  C   UNL     1     -10.326   7.202  69.322  1.00  0.00    -0.209 A  
HETATM   27  O   UNL     1     -10.887   7.262  74.025  1.00  0.00    -0.212 OA 
HETATM   28  O   UNL     1     -11.433   5.456  72.904  1.00  0.00    -0.309 OA 
ENDBRANCH  19  20
ENDBRANCH  16  19
ENDBRANCH  12  13
ENDBRANCH   6  12
ENDBRANCH   5   6
ENDBRANCH   4   5
ENDBRANCH   3   4
ENDBRANCH   2   3
TORSDOF 8
ENDMDL
MODEL      169
REMARK 921   NORMALIZED FREE ENERGY PREDICTED BY IDOCK:   -3.44 KCAL/MOL
REMARK 922        TOTAL FREE ENERGY PREDICTED BY IDOCK:   -5.98 KCAL/MOL
REMARK 923 INTER-LIGAND FREE ENERGY PREDICTED BY IDOCK:   -5.44 KCAL/MOL
REMARK 924 INTRA-LIGAND FREE ENERGY PREDICTED BY IDOCK:   -0.54 KCAL/MOL
REMARK 927      BINDING AFFINITY PREDICTED BY RF-SCORE:    0.00 PKD
ROOT
HETATM    1  C   UNL     1     -10.018  19.032  68.034  1.00  0.00    -0.436 C  
HETATM    2  C   UNL     1      -9.063  17.929  67.633  1.00  0.00    -0.250 C  
ENDROOT
BRANCH   2   3
HETATM    3  O   UNL     1      -9.731  16.663  67.566  1.00  0.00    -0.241 OA 
BRANCH   3   4
HETATM    4  C   UNL     1      -8.802  15.623  67.894  1.00  0.00    -0.171 C  
BRANCH   4   5
HETATM    5  C   UNL     1      -8.636  14.563  66.794  1.00  0.00    -0.131 C  
BRANCH   5   6
HETATM    6  N   UNL     1      -9.753  13.631  66.525  1.00  0.00    -0.285 N  
HETATM    7 CL   UNL     1     -13.171  13.832  65.641  1.00  0.00    -0.208 Cl 
HETATM    8  C   UNL     1     -10.490  13.903  65.341  1.00  0.00    -0.345 C  
HETATM    9  C   UNL     1     -11.712  13.029  65.012  1.00  0.00    -0.339 C  
HETATM   10 CL   UNL     1     -11.856  12.800  63.250  1.00  0.00    -0.572 Cl 
HETATM   11  O   UNL     1     -10.175  14.841  64.597  1.00  0.00    -0.270 OA 
BRANCH   6  12
HETATM   12  C   UNL     1     -10.359  12.819  67.603  1.00  0.00    -0.221 C  
BRANCH  12  13
HETATM   13  C   UNL     1      -9.789  11.451  67.891  1.00  0.00    -0.188 A  
HETATM   14  C   UNL     1     -10.531  10.288  67.637  1.00  0.00    -0.285 A  
HETATM   15  C   UNL     1     -10.048   9.039  68.040  1.00  0.00    -0.234 A  
HETATM   16  C   UNL     1      -8.803   8.921  68.667  1.00  0.00    -0.137 A  
HETATM   17  C   UNL     1      -8.515  11.321  68.467  1.00  0.00    -0.156 A  
HETATM   18  C   UNL     1      -8.034  10.068  68.871  1.00  0.00    -0.101 A  
BRANCH  16  19
HETATM   19  O   UNL     1      -8.500   7.657  69.127  1.00  0.00    -0.135 OA 
BRANCH  19  20
HETATM   20  C   UNL     1      -8.205   6.641  68.248  1.00  0.00    -0.114 A  
HETATM   21  C   UNL     1      -7.164   5.779  68.612  1.00  0.00    -0.082 A  
HETATM   22  C   UNL     1      -6.838   4.687  67.803  1.00  0.00    -0.056 A  
HETATM   23  C   UNL     1      -7.564   4.462  66.625  1.00  0.00    -0.089 A  
HETATM   24  C   UNL     1      -8.631   5.302  66.278  1.00  0.00    -0.116 A  
HETATM   25  N   UNL     1      -7.211   3.337  65.753  1.00  0.00    -0.069 N  
HETATM   26  C   UNL     1      -8.961   6.377  67.102  1.00  0.00    -0.109 A  
HETATM   27  O   UNL     1      -6.307   2.577  66.126  1.00  0.00    -0.024 OA 
HETATM   28  O   UNL     1      -7.831   3.219  64.683  1.00  0.00    -0.077 OA 
ENDBRANCH  19  20
ENDBRANCH  16  19
ENDBRANCH  12  13
ENDBRANCH   6  12
ENDBRANCH   5   6
ENDBRANCH   4   5
ENDBRANCH   3   4
ENDBRANCH   2   3
TORSDOF 8
ENDMDL
MODEL      170
REMARK 921   NORMALIZED FREE ENERGY PREDICTED BY IDOCK:   -3.44 KCAL/MOL
REMARK 922        TOTAL FREE ENERGY PREDICTED BY IDOCK:   -5.98 KCAL/MOL
REMARK 923 INTER-LIGAND FREE ENERGY PREDICTED BY IDOCK:   -5.11 KCAL/MOL
REMARK 924 INTRA-LIGAND FREE ENERGY PREDICTED BY IDOCK:   -0.87 KCAL/MOL
REMARK 927      BINDING AFFINITY PREDICTED BY RF-SCORE:    0.00 PKD
ROOT
HETATM    1  C   UNL     1      -9.849   3.315  64.900  1.00  0.00    -0.060 C  
HETATM    2  C   UNL     1      -8.608   4.145  64.649  1.00  0.00    -0.120 C  
ENDROOT
BRANCH   2   3
HETATM    3  O   UNL     1      -8.818   5.515  65.012  1.00  0.00    -0.136 OA 
BRANCH   3   4
HETATM    4  C   UNL     1      -7.583   6.072  65.478  1.00  0.00    -0.085 C  
BRANCH   4   5
HETATM    5  C   UNL     1      -7.688   6.771  66.843  1.00  0.00    -0.103 C  
BRANCH   5   6
HETATM    6  N   UNL     1      -6.646   6.509  67.861  1.00  0.00    -0.062 N  
HETATM    7 CL   UNL     1      -6.495   5.675  71.293  1.00  0.00    -0.042 Cl 
HETATM    8  C   UNL     1      -6.849   5.338  68.639  1.00  0.00    -0.055 C  
HETATM    9  C   UNL     1      -5.855   5.017  69.768  1.00  0.00    -0.017 C  
HETATM   10 CL   UNL     1      -5.627   3.256  69.915  1.00  0.00    -0.016 Cl 
HETATM   11  O   UNL     1      -7.821   4.598  68.436  1.00  0.00    -0.079 OA 
BRANCH   6  12
HETATM   12  C   UNL     1      -5.765   7.587  68.361  1.00  0.00    -0.027 C  
BRANCH  12  13
HETATM   13  C   UNL     1      -6.257   9.013  68.306  1.00  0.00    -0.054 A  
HETATM   14  C   UNL     1      -7.172   9.502  69.251  1.00  0.00    -0.063 A  
HETATM   15  C   UNL     1      -7.726  10.777  69.105  1.00  0.00    -0.138 A  
HETATM   16  C   UNL     1      -7.352  11.602  68.038  1.00  0.00    -0.089 A  
HETATM   17  C   UNL     1      -5.841   9.867  67.272  1.00  0.00    -0.050 A  
HETATM   18  C   UNL     1      -6.399  11.145  67.127  1.00  0.00    -0.083 A  
BRANCH  16  19
HETATM   19  O   UNL     1      -8.062  12.779  67.937  1.00  0.00    -0.134 OA 
BRANCH  19  20
HETATM   20  C   UNL     1      -9.171  12.864  67.127  1.00  0.00    -0.225 A  
HETATM   21  C   UNL     1      -9.387  14.089  66.486  1.00  0.00    -0.274 A  
HETATM   22  C   UNL     1     -10.459  14.241  65.601  1.00  0.00    -0.336 A  
HETATM   23  C   UNL     1     -11.314  13.156  65.361  1.00  0.00    -0.297 A  
HETATM   24  C   UNL     1     -11.076  11.917  65.973  1.00  0.00    -0.369 A  
HETATM   25  N   UNL     1     -12.459  13.313  64.459  1.00  0.00    -0.348 N  
HETATM   26  C   UNL     1      -9.993  11.771  66.839  1.00  0.00    -0.220 A  
HETATM   27  O   UNL     1     -12.597  14.401  63.884  1.00  0.00    -0.814 OA 
HETATM   28  O   UNL     1     -13.232  12.349  64.333  1.00  0.00    -0.816 OA 
ENDBRANCH  19  20
ENDBRANCH  16  19
ENDBRANCH  12  13
ENDBRANCH   6  12
ENDBRANCH   5   6
ENDBRANCH   4   5
ENDBRANCH   3   4
ENDBRANCH   2   3
TORSDOF 8
ENDMDL
MODEL      171
REMARK 921   NORMALIZED FREE ENERGY PREDICTED BY IDOCK:   -3.37 KCAL/MOL
REMARK 922        TOTAL FREE ENERGY PREDICTED BY IDOCK:   -5.89 KCAL/MOL
REMARK 923 INTER-LIGAND FREE ENERGY PREDICTED BY IDOCK:   -5.13 KCAL/MOL
REMARK 924 INTRA-LIGAND FREE ENERGY PREDICTED BY IDOCK:   -0.75 KCAL/MOL
REMARK 927      BINDING AFFINITY PREDICTED BY RF-SCORE:    0.00 PKD
ROOT
HETATM    1  C   UNL     1     -11.032   9.985  66.712  1.00  0.00    -0.017 C  
HETATM    2  C   UNL     1     -10.432   8.607  66.894  1.00  0.00    -0.258 C  
ENDROOT
BRANCH   2   3
HETATM    3  O   UNL     1      -9.006   8.641  66.758  1.00  0.00    -0.131 OA 
BRANCH   3   4
HETATM    4  C   UNL     1      -8.438   7.549  67.491  1.00  0.00    -0.119 C  
BRANCH   4   5
HETATM    5  C   UNL     1      -7.439   7.978  68.577  1.00  0.00    -0.102 C  
BRANCH   5   6
HETATM    6  N   UNL     1      -7.945   8.690  69.772  1.00  0.00    -0.093 N  
HETATM    7 CL   UNL     1     -11.027   9.962  70.947  1.00  0.00    -0.404 Cl 
HETATM    8  C   UNL     1      -9.128   8.144  70.338  1.00  0.00    -0.150 C  
HETATM    9  C   UNL     1      -9.768   8.855  71.543  1.00  0.00    -0.302 C  
HETATM   10 CL   UNL     1     -10.485   7.664  72.658  1.00  0.00    -0.311 Cl 
HETATM   11  O   UNL     1      -9.655   7.130  69.860  1.00  0.00    -0.163 OA 
BRANCH   6  12
HETATM   12  C   UNL     1      -7.568  10.092  70.054  1.00  0.00    -0.172 C  
BRANCH  12  13
HETATM   13  C   UNL     1      -7.916  11.157  69.043  1.00  0.00    -0.087 A  
HETATM   14  C   UNL     1      -9.124  11.865  69.122  1.00  0.00     0.453 A  
HETATM   15  C   UNL     1      -9.496  12.746  68.101  1.00  0.00    -0.219 A  
HETATM   16  C   UNL     1      -8.656  12.965  67.004  1.00  0.00    -0.169 A  
HETATM   17  C   UNL     1      -7.050  11.426  67.970  1.00  0.00    -0.074 A  
HETATM   18  C   UNL     1      -7.426  12.308  66.948  1.00  0.00     0.013 A  
BRANCH  16  19
HETATM   19  O   UNL     1      -9.192  13.755  66.009  1.00  0.00    -0.091 OA 
BRANCH  19  20
HETATM   20  C   UNL     1      -9.407  15.097  66.216  1.00  0.00    -0.313 A  
HETATM   21  C   UNL     1      -8.351  15.823  66.779  1.00  0.00    -0.309 A  
HETATM   22  C   UNL     1      -8.466  17.203  66.969  1.00  0.00    -0.233 A  
HETATM   23  C   UNL     1      -9.649  17.854  66.590  1.00  0.00    -0.309 A  
HETATM   24  C   UNL     1     -10.694  17.135  65.991  1.00  0.00    -0.113 A  
HETATM   25  N   UNL     1      -9.793  19.296  66.813  1.00  0.00    -0.329 N  
HETATM   26  C   UNL     1     -10.560  15.762  65.788  1.00  0.00    -0.369 A  
HETATM   27  O   UNL     1      -8.825  19.908  67.281  1.00  0.00    -0.308 OA 
HETATM   28  O   UNL     1     -10.885  19.817  66.531  1.00  0.00    -0.451 OA 
ENDBRANCH  19  20
ENDBRANCH  16  19
ENDBRANCH  12  13
ENDBRANCH   6  12
ENDBRANCH   5   6
ENDBRANCH   4   5
ENDBRANCH   3   4
ENDBRANCH   2   3
TORSDOF 8
ENDMDL
MODEL      172
REMARK 921   NORMALIZED FREE ENERGY PREDICTED BY IDOCK:   -3.32 KCAL/MOL
REMARK 922        TOTAL FREE ENERGY PREDICTED BY IDOCK:   -5.80 KCAL/MOL
REMARK 923 INTER-LIGAND FREE ENERGY PREDICTED BY IDOCK:   -5.39 KCAL/MOL
REMARK 924 INTRA-LIGAND FREE ENERGY PREDICTED BY IDOCK:   -0.42 KCAL/MOL
REMARK 927      BINDING AFFINITY PREDICTED BY RF-SCORE:    0.00 PKD
ROOT
HETATM    1  C   UNL     1      -6.306   8.843  71.323  1.00  0.00    -0.063 C  
HETATM    2  C   UNL     1      -6.163   7.337  71.257  1.00  0.00    -0.036 C  
ENDROOT
BRANCH   2   3
HETATM    3  O   UNL     1      -6.212   6.754  72.565  1.00  0.00    -0.048 OA 
BRANCH   3   4
HETATM    4  C   UNL     1      -7.104   7.517  73.387  1.00  0.00    -0.079 C  
BRANCH   4   5
HETATM    5  C   UNL     1      -7.794   6.698  74.489  1.00  0.00    -0.119 C  
BRANCH   5   6
HETATM    6  N   UNL     1      -9.056   5.994  74.171  1.00  0.00    -0.127 N  
HETATM    7 CL   UNL     1     -10.251   3.746  71.717  1.00  0.00    -0.163 Cl 
HETATM    8  C   UNL     1      -8.917   4.606  73.899  1.00  0.00    -0.106 C  
HETATM    9  C   UNL     1     -10.164   3.803  73.493  1.00  0.00    -0.144 C  
HETATM   10 CL   UNL     1     -10.078   2.148  74.150  1.00  0.00    -0.146 Cl 
HETATM   11  O   UNL     1      -7.811   4.053  73.961  1.00  0.00    -0.081 OA 
BRANCH   6  12
HETATM   12  C   UNL     1     -10.251   6.725  73.694  1.00  0.00    -0.326 C  
BRANCH  12  13
HETATM   13  C   UNL     1     -10.245   7.298  72.298  1.00  0.00    -0.225 A  
HETATM   14  C   UNL     1      -9.993   6.486  71.182  1.00  0.00    -0.202 A  
HETATM   15  C   UNL     1      -9.850   7.053  69.912  1.00  0.00    -0.173 A  
HETATM   16  C   UNL     1      -9.991   8.432  69.725  1.00  0.00    -0.191 A  
HETATM   17  C   UNL     1     -10.444   8.673  72.095  1.00  0.00    -0.411 A  
HETATM   18  C   UNL     1     -10.299   9.239  70.821  1.00  0.00    -0.348 A  
BRANCH  16  19
HETATM   19  O   UNL     1      -9.702   8.879  68.453  1.00  0.00    -0.155 OA 
BRANCH  19  20
HETATM   20  C   UNL     1      -9.884  10.199  68.112  1.00  0.00    -0.144 A  
HETATM   21  C   UNL     1     -10.896  10.475  67.186  1.00  0.00    -0.319 A  
HETATM   22  C   UNL     1     -11.184  11.796  66.830  1.00  0.00    -0.388 A  
HETATM   23  C   UNL     1     -10.452  12.841  67.410  1.00  0.00    -0.228 A  
HETATM   24  C   UNL     1      -9.464  12.570  68.367  1.00  0.00    -0.167 A  
HETATM   25  N   UNL     1     -10.725  14.228  67.021  1.00  0.00    -0.287 N  
HETATM   26  C   UNL     1      -9.198  11.250  68.730  1.00  0.00    -0.133 A  
HETATM   27  O   UNL     1     -11.650  14.434  66.224  1.00  0.00    -0.354 OA 
HETATM   28  O   UNL     1     -10.003  15.117  67.504  1.00  0.00    -0.225 OA 
ENDBRANCH  19  20
ENDBRANCH  16  19
ENDBRANCH  12  13
ENDBRANCH   6  12
ENDBRANCH   5   6
ENDBRANCH   4   5
ENDBRANCH   3   4
ENDBRANCH   2   3
TORSDOF 8
ENDMDL
MODEL      173
REMARK 921   NORMALIZED FREE ENERGY PREDICTED BY IDOCK:   -3.30 KCAL/MOL
REMARK 922        TOTAL FREE ENERGY PREDICTED BY IDOCK:   -5.77 KCAL/MOL
REMARK 923 INTER-LIGAND FREE ENERGY PREDICTED BY IDOCK:   -4.75 KCAL/MOL
REMARK 924 INTRA-LIGAND FREE ENERGY PREDICTED BY IDOCK:   -1.02 KCAL/MOL
REMARK 927      BINDING AFFINITY PREDICTED BY RF-SCORE:    0.00 PKD
ROOT
HETATM    1  C   UNL     1      -5.777  14.329  71.642  1.00  0.00    -0.164 C  
HETATM    2  C   UNL     1      -6.272  15.427  70.725  1.00  0.00     0.249 C  
ENDROOT
BRANCH   2   3
HETATM    3  O   UNL     1      -5.802  15.234  69.385  1.00  0.00    -0.097 OA 
BRANCH   3   4
HETATM    4  C   UNL     1      -5.176  16.440  68.929  1.00  0.00    -0.109 C  
BRANCH   4   5
HETATM    5  C   UNL     1      -5.990  17.712  69.212  1.00  0.00    -0.225 C  
BRANCH   5   6
HETATM    6  N   UNL     1      -7.000  18.149  68.223  1.00  0.00    -0.225 N  
HETATM    7 CL   UNL     1      -8.338  21.193  67.021  1.00  0.00     0.045 Cl 
HETATM    8  C   UNL     1      -6.571  19.178  67.343  1.00  0.00    -0.193 C  
HETATM    9  C   UNL     1      -7.573  19.746  66.323  1.00  0.00    -0.309 C  
HETATM   10 CL   UNL     1      -6.741  20.171  64.805  1.00  0.00    -0.289 Cl 
HETATM   11  O   UNL     1      -5.422  19.634  67.407  1.00  0.00    -0.165 OA 
BRANCH   6  12
HETATM   12  C   UNL     1      -8.444  17.911  68.435  1.00  0.00    -0.297 C  
BRANCH  12  13
HETATM   13  C   UNL     1      -8.982  16.510  68.273  1.00  0.00    -0.214 A  
HETATM   14  C   UNL     1      -9.187  15.955  67.001  1.00  0.00    -0.231 A  
HETATM   15  C   UNL     1      -9.817  14.714  66.864  1.00  0.00    -0.252 A  
HETATM   16  C   UNL     1     -10.221  13.988  67.991  1.00  0.00    -0.238 A  
HETATM   17  C   UNL     1      -9.336  15.751  69.401  1.00  0.00    -0.269 A  
HETATM   18  C   UNL     1      -9.968  14.508  69.261  1.00  0.00    -0.050 A  
BRANCH  16  19
HETATM   19  O   UNL     1     -10.942  12.845  67.718  1.00  0.00    -0.231 OA 
BRANCH  19  20
HETATM   20  C   UNL     1     -10.302  11.658  67.447  1.00  0.00    -0.205 A  
HETATM   21  C   UNL     1      -8.950  11.579  67.801  1.00  0.00    -0.160 A  
HETATM   22  C   UNL     1      -8.241  10.389  67.612  1.00  0.00    -0.110 A  
HETATM   23  C   UNL     1      -8.896   9.275  67.067  1.00  0.00    -0.123 A  
HETATM   24  C   UNL     1     -10.260   9.341  66.747  1.00  0.00    -0.325 A  
HETATM   25  N   UNL     1      -8.154   8.032  66.836  1.00  0.00    -0.107 N  
HETATM   26  C   UNL     1     -10.962  10.527  66.958  1.00  0.00    -0.247 A  
HETATM   27  O   UNL     1      -6.970   7.990  67.193  1.00  0.00    -0.071 OA 
HETATM   28  O   UNL     1      -8.755   7.095  66.283  1.00  0.00    -0.135 OA 
ENDBRANCH  19  20
ENDBRANCH  16  19
ENDBRANCH  12  13
ENDBRANCH   6  12
ENDBRANCH   5   6
ENDBRANCH   4   5
ENDBRANCH   3   4
ENDBRANCH   2   3
TORSDOF 8
ENDMDL
MODEL      174
REMARK 921   NORMALIZED FREE ENERGY PREDICTED BY IDOCK:   -3.29 KCAL/MOL
REMARK 922        TOTAL FREE ENERGY PREDICTED BY IDOCK:   -5.77 KCAL/MOL
REMARK 923 INTER-LIGAND FREE ENERGY PREDICTED BY IDOCK:   -5.26 KCAL/MOL
REMARK 924 INTRA-LIGAND FREE ENERGY PREDICTED BY IDOCK:   -0.50 KCAL/MOL
REMARK 927      BINDING AFFINITY PREDICTED BY RF-SCORE:    0.00 PKD
ROOT
HETATM    1  C   UNL     1      -5.373  17.826  71.631  1.00  0.00     0.251 C  
HETATM    2  C   UNL     1      -5.153  17.609  70.149  1.00  0.00    -0.215 C  
ENDROOT
BRANCH   2   3
HETATM    3  O   UNL     1      -6.323  17.948  69.396  1.00  0.00    -0.239 OA 
BRANCH   3   4
HETATM    4  C   UNL     1      -6.613  19.340  69.579  1.00  0.00    -0.288 C  
BRANCH   4   5
HETATM    5  C   UNL     1      -7.776  19.855  68.718  1.00  0.00    -0.166 C  
BRANCH   5   6
HETATM    6  N   UNL     1      -7.867  19.419  67.307  1.00  0.00    -0.253 N  
HETATM    7 CL   UNL     1      -7.280  20.792  64.102  1.00  0.00     0.365 Cl 
HETATM    8  C   UNL     1      -6.726  19.714  66.513  1.00  0.00    -0.189 C  
HETATM    9  C   UNL     1      -6.753  19.360  65.016  1.00  0.00    -0.083 C  
HETATM   10 CL   UNL     1      -5.135  18.851  64.469  1.00  0.00    -0.207 Cl 
HETATM   11  O   UNL     1      -5.735  20.271  67.004  1.00  0.00    -0.166 OA 
BRANCH   6  12
HETATM   12  C   UNL     1      -9.172  19.160  66.659  1.00  0.00    -0.334 C  
BRANCH  12  13
HETATM   13  C   UNL     1      -9.716  17.752  66.658  1.00  0.00    -0.314 A  
HETATM   14  C   UNL     1     -10.688  17.349  67.586  1.00  0.00    -0.310 A  
HETATM   15  C   UNL     1     -11.078  16.009  67.664  1.00  0.00    -0.243 A  
HETATM   16  C   UNL     1     -10.537  15.054  66.797  1.00  0.00    -0.301 A  
HETATM   17  C   UNL     1      -9.220  16.801  65.751  1.00  0.00    -0.001 A  
HETATM   18  C   UNL     1      -9.612  15.458  65.833  1.00  0.00    -0.386 A  
BRANCH  16  19
HETATM   19  O   UNL     1     -10.907  13.752  67.060  1.00  0.00    -0.281 OA 
BRANCH  19  20
HETATM   20  C   UNL     1     -10.240  12.699  66.479  1.00  0.00    -0.243 A  
HETATM   21  C   UNL     1     -10.820  12.147  65.330  1.00  0.00    -0.335 A  
HETATM   22  C   UNL     1     -10.176  11.113  64.644  1.00  0.00    -0.376 A  
HETATM   23  C   UNL     1      -8.946  10.634  65.116  1.00  0.00    -0.198 A  
HETATM   24  C   UNL     1      -8.346  11.211  66.245  1.00  0.00    -0.163 A  
HETATM   25  N   UNL     1      -8.278   9.528  64.423  1.00  0.00    -0.137 N  
HETATM   26  C   UNL     1      -8.986  12.257  66.909  1.00  0.00    -0.207 A  
HETATM   27  O   UNL     1      -8.803   9.090  63.393  1.00  0.00    -0.149 OA 
HETATM   28  O   UNL     1      -7.227   9.087  64.919  1.00  0.00    -0.093 OA 
ENDBRANCH  19  20
ENDBRANCH  16  19
ENDBRANCH  12  13
ENDBRANCH   6  12
ENDBRANCH   5   6
ENDBRANCH   4   5
ENDBRANCH   3   4
ENDBRANCH   2   3
TORSDOF 8
ENDMDL
MODEL      175
REMARK 921   NORMALIZED FREE ENERGY PREDICTED BY IDOCK:   -3.28 KCAL/MOL
REMARK 922        TOTAL FREE ENERGY PREDICTED BY IDOCK:   -5.75 KCAL/MOL
REMARK 923 INTER-LIGAND FREE ENERGY PREDICTED BY IDOCK:   -5.35 KCAL/MOL
REMARK 924 INTRA-LIGAND FREE ENERGY PREDICTED BY IDOCK:   -0.40 KCAL/MOL
REMARK 927      BINDING AFFINITY PREDICTED BY RF-SCORE:    0.00 PKD
ROOT
HETATM    1  C   UNL     1      -5.528  10.087  71.635  1.00  0.00    -0.012 C  
HETATM    2  C   UNL     1      -5.722  11.090  70.518  1.00  0.00    -0.133 C  
ENDROOT
BRANCH   2   3
HETATM    3  O   UNL     1      -6.587  10.572  69.500  1.00  0.00    -0.058 OA 
BRANCH   3   4
HETATM    4  C   UNL     1      -6.503  11.409  68.340  1.00  0.00    -0.050 C  
BRANCH   4   5
HETATM    5  C   UNL     1      -7.391  10.950  67.173  1.00  0.00    -0.105 C  
BRANCH   5   6
HETATM    6  N   UNL     1      -8.805  11.383  67.138  1.00  0.00    -0.153 N  
HETATM    7 CL   UNL     1     -10.703  14.007  65.718  1.00  0.00    -0.286 Cl 
HETATM    8  C   UNL     1      -9.303  11.703  65.847  1.00  0.00    -0.218 C  
HETATM    9  C   UNL     1     -10.743  12.228  65.717  1.00  0.00    -0.263 C  
HETATM   10 CL   UNL     1     -11.486  11.639  64.208  1.00  0.00    -0.367 Cl 
HETATM   11  O   UNL     1      -8.588  11.590  64.842  1.00  0.00     0.251 OA 
BRANCH   6  12
HETATM   12  C   UNL     1      -9.483  11.909  68.344  1.00  0.00    -0.189 C  
BRANCH  12  13
HETATM   13  C   UNL     1     -10.166  10.937  69.276  1.00  0.00    -0.190 A  
HETATM   14  C   UNL     1     -11.431  11.217  69.815  1.00  0.00    -0.388 A  
HETATM   15  C   UNL     1     -11.987  10.377  70.785  1.00  0.00    -0.462 A  
HETATM   16  C   UNL     1     -11.312   9.227  71.208  1.00  0.00    -0.353 A  
HETATM   17  C   UNL     1      -9.520   9.751  69.661  1.00  0.00    -0.237 A  
HETATM   18  C   UNL     1     -10.080   8.912  70.634  1.00  0.00    -0.262 A  
BRANCH  16  19
HETATM   19  O   UNL     1     -11.906   8.556  72.256  1.00  0.00    -0.358 OA 
BRANCH  19  20
HETATM   20  C   UNL     1     -11.473   7.304  72.626  1.00  0.00    -0.261 A  
HETATM   21  C   UNL     1     -10.195   7.224  73.192  1.00  0.00    -0.344 A  
HETATM   22  C   UNL     1      -9.702   5.998  73.648  1.00  0.00    -0.165 A  
HETATM   23  C   UNL     1     -10.499   4.850  73.535  1.00  0.00    -0.228 A  
HETATM   24  C   UNL     1     -11.794   4.935  73.004  1.00  0.00    -0.127 A  
HETATM   25  N   UNL     1      -9.981   3.553  73.981  1.00  0.00    -0.115 N  
HETATM   26  C   UNL     1     -12.284   6.167  72.571  1.00  0.00    -0.045 A  
HETATM   27  O   UNL     1      -8.861   3.528  74.507  1.00  0.00    -0.086 OA 
HETATM   28  O   UNL     1     -10.692   2.551  73.794  1.00  0.00    -0.142 OA 
ENDBRANCH  19  20
ENDBRANCH  16  19
ENDBRANCH  12  13
ENDBRANCH   6  12
ENDBRANCH   5   6
ENDBRANCH   4   5
ENDBRANCH   3   4
ENDBRANCH   2   3
TORSDOF 8
ENDMDL
MODEL      176
REMARK 921   NORMALIZED FREE ENERGY PREDICTED BY IDOCK:   -3.24 KCAL/MOL
REMARK 922        TOTAL FREE ENERGY PREDICTED BY IDOCK:   -5.70 KCAL/MOL
REMARK 923 INTER-LIGAND FREE ENERGY PREDICTED BY IDOCK:   -5.12 KCAL/MOL
REMARK 924 INTRA-LIGAND FREE ENERGY PREDICTED BY IDOCK:   -0.57 KCAL/MOL
REMARK 927      BINDING AFFINITY PREDICTED BY RF-SCORE:    0.00 PKD
ROOT
HETATM    1  C   UNL     1     -10.537  13.763  64.580  1.00  0.00    -0.405 C  
HETATM    2  C   UNL     1     -10.812  12.511  63.774  1.00  0.00    -0.446 C  
ENDROOT
BRANCH   2   3
HETATM    3  O   UNL     1     -11.209  11.426  64.620  1.00  0.00    -0.258 OA 
BRANCH   3   4
HETATM    4  C   UNL     1     -11.427  11.921  65.948  1.00  0.00    -0.278 C  
BRANCH   4   5
HETATM    5  C   UNL     1     -10.795  11.057  67.049  1.00  0.00    -0.279 C  
BRANCH   5   6
HETATM    6  N   UNL     1      -9.657  10.177  66.701  1.00  0.00    -0.176 N  
HETATM    7 CL   UNL     1      -6.858  10.253  64.541  1.00  0.00    -0.106 Cl 
HETATM    8  C   UNL     1      -8.387  10.814  66.693  1.00  0.00    -0.141 C  
HETATM    9  C   UNL     1      -7.151   9.998  66.278  1.00  0.00    -0.105 C  
HETATM   10 CL   UNL     1      -5.725  10.509  67.216  1.00  0.00    -0.041 Cl 
HETATM   11  O   UNL     1      -8.273  12.011  66.989  1.00  0.00    -0.167 OA 
BRANCH   6  12
HETATM   12  C   UNL     1      -9.855   8.913  65.959  1.00  0.00    -0.207 C  
BRANCH  12  13
HETATM   13  C   UNL     1      -9.777   7.607  66.712  1.00  0.00    -0.290 A  
HETATM   14  C   UNL     1      -8.568   6.904  66.823  1.00  0.00    -0.120 A  
HETATM   15  C   UNL     1      -8.541   5.630  67.399  1.00  0.00    -0.109 A  
HETATM   16  C   UNL     1      -9.708   5.051  67.909  1.00  0.00    -0.153 A  
HETATM   17  C   UNL     1     -10.934   7.045  67.278  1.00  0.00    -0.372 A  
HETATM   18  C   UNL     1     -10.903   5.768  67.855  1.00  0.00    -0.257 A  
BRANCH  16  19
HETATM   19  O   UNL     1      -9.571   3.746  68.333  1.00  0.00    -0.162 OA 
BRANCH  19  20
HETATM   20  C   UNL     1      -9.278   3.460  69.646  1.00  0.00    -0.154 A  
HETATM   21  C   UNL     1      -8.968   4.548  70.471  1.00  0.00    -0.155 A  
HETATM   22  C   UNL     1      -8.715   4.351  71.832  1.00  0.00    -0.131 A  
HETATM   23  C   UNL     1      -8.775   3.055  72.363  1.00  0.00    -0.079 A  
HETATM   24  C   UNL     1      -9.123   1.969  71.547  1.00  0.00    -0.152 A  
HETATM   25  N   UNL     1      -8.481   2.833  73.782  1.00  0.00    -0.072 N  
HETATM   26  C   UNL     1      -9.394   2.180  70.195  1.00  0.00    -0.173 A  
HETATM   27  O   UNL     1      -8.244   3.823  74.486  1.00  0.00    -0.084 OA 
HETATM   28  O   UNL     1      -8.473   1.660  74.193  1.00  0.00    -0.052 OA 
ENDBRANCH  19  20
ENDBRANCH  16  19
ENDBRANCH  12  13
ENDBRANCH   6  12
ENDBRANCH   5   6
ENDBRANCH   4   5
ENDBRANCH   3   4
ENDBRANCH   2   3
TORSDOF 8
ENDMDL
MODEL      177
REMARK 921   NORMALIZED FREE ENERGY PREDICTED BY IDOCK:   -3.24 KCAL/MOL
REMARK 922        TOTAL FREE ENERGY PREDICTED BY IDOCK:   -5.68 KCAL/MOL
REMARK 923 INTER-LIGAND FREE ENERGY PREDICTED BY IDOCK:   -5.32 KCAL/MOL
REMARK 924 INTRA-LIGAND FREE ENERGY PREDICTED BY IDOCK:   -0.36 KCAL/MOL
REMARK 927      BINDING AFFINITY PREDICTED BY RF-SCORE:    0.00 PKD
ROOT
HETATM    1  C   UNL     1      -5.216  18.702  71.674  1.00  0.00    -0.201 C  
HETATM    2  C   UNL     1      -5.318  18.331  70.209  1.00  0.00    -0.249 C  
ENDROOT
BRANCH   2   3
HETATM    3  O   UNL     1      -6.680  18.350  69.764  1.00  0.00    -0.105 OA 
BRANCH   3   4
HETATM    4  C   UNL     1      -7.211  19.670  69.931  1.00  0.00     0.085 C  
BRANCH   4   5
HETATM    5  C   UNL     1      -8.279  20.050  68.894  1.00  0.00     0.099 C  
BRANCH   5   6
HETATM    6  N   UNL     1      -8.192  19.471  67.535  1.00  0.00    -0.285 N  
HETATM    7 CL   UNL     1      -7.229  20.524  64.300  1.00  0.00     0.378 Cl 
HETATM    8  C   UNL     1      -6.965  19.709  66.859  1.00  0.00    -0.198 C  
HETATM    9  C   UNL     1      -6.805  19.204  65.415  1.00  0.00    -0.204 C  
HETATM   10 CL   UNL     1      -5.128  18.677  65.123  1.00  0.00    -0.189 Cl 
HETATM   11  O   UNL     1      -6.047  20.333  67.406  1.00  0.00    -0.190 OA 
BRANCH   6  12
HETATM   12  C   UNL     1      -9.405  19.120  66.764  1.00  0.00    -0.323 C  
BRANCH  12  13
HETATM   13  C   UNL     1      -9.781  17.665  66.622  1.00  0.00    -0.304 A  
HETATM   14  C   UNL     1     -10.257  17.154  65.405  1.00  0.00     0.043 A  
HETATM   15  C   UNL     1     -10.734  15.842  65.327  1.00  0.00    -0.442 A  
HETATM   16  C   UNL     1     -10.712  15.005  66.448  1.00  0.00    -0.322 A  
HETATM   17  C   UNL     1      -9.707  16.802  67.728  1.00  0.00    -0.248 A  
HETATM   18  C   UNL     1     -10.187  15.488  67.647  1.00  0.00    -0.255 A  
BRANCH  16  19
HETATM   19  O   UNL     1     -11.326  13.783  66.272  1.00  0.00    -0.310 OA 
BRANCH  19  20
HETATM   20  C   UNL     1     -11.029  12.722  67.097  1.00  0.00    -0.263 A  
HETATM   21  C   UNL     1      -9.794  12.096  66.894  1.00  0.00    -0.213 A  
HETATM   22  C   UNL     1      -9.390  11.048  67.726  1.00  0.00    -0.162 A  
HETATM   23  C   UNL     1     -10.233  10.630  68.766  1.00  0.00    -0.190 A  
HETATM   24  C   UNL     1     -11.454  11.281  68.995  1.00  0.00    -0.369 A  
HETATM   25  N   UNL     1      -9.834   9.512  69.625  1.00  0.00    -0.192 N  
HETATM   26  C   UNL     1     -11.837  12.339  68.171  1.00  0.00    -0.372 A  
HETATM   27  O   UNL     1      -8.720   9.006  69.437  1.00  0.00    -0.135 OA 
HETATM   28  O   UNL     1     -10.643   9.127  70.486  1.00  0.00    -0.204 OA 
ENDBRANCH  19  20
ENDBRANCH  16  19
ENDBRANCH  12  13
ENDBRANCH   6  12
ENDBRANCH   5   6
ENDBRANCH   4   5
ENDBRANCH   3   4
ENDBRANCH   2   3
TORSDOF 8
ENDMDL
MODEL      178
REMARK 921   NORMALIZED FREE ENERGY PREDICTED BY IDOCK:   -3.20 KCAL/MOL
REMARK 922        TOTAL FREE ENERGY PREDICTED BY IDOCK:   -5.62 KCAL/MOL
REMARK 923 INTER-LIGAND FREE ENERGY PREDICTED BY IDOCK:   -4.63 KCAL/MOL
REMARK 924 INTRA-LIGAND FREE ENERGY PREDICTED BY IDOCK:   -1.00 KCAL/MOL
REMARK 927      BINDING AFFINITY PREDICTED BY RF-SCORE:    0.00 PKD
ROOT
HETATM    1  C   UNL     1      -6.526  15.621  69.575  1.00  0.00    -0.173 C  
HETATM    2  C   UNL     1      -7.996  15.781  69.250  1.00  0.00    -0.239 C  
ENDROOT
BRANCH   2   3
HETATM    3  O   UNL     1      -8.519  14.605  68.621  1.00  0.00    -0.155 OA 
BRANCH   3   4
HETATM    4  C   UNL     1      -8.654  14.845  67.214  1.00  0.00    -0.213 C  
BRANCH   4   5
HETATM    5  C   UNL     1     -10.045  14.508  66.654  1.00  0.00    -0.272 C  
BRANCH   5   6
HETATM    6  N   UNL     1     -10.283  13.157  66.100  1.00  0.00    -0.284 N  
HETATM    7 CL   UNL     1     -11.890  11.726  63.295  1.00  0.00    -0.441 Cl 
HETATM    8  C   UNL     1      -9.994  13.016  64.717  1.00  0.00    -0.125 C  
HETATM    9  C   UNL     1     -10.273  11.665  64.035  1.00  0.00    -0.346 C  
HETATM   10 CL   UNL     1      -9.046  11.333  62.787  1.00  0.00    -0.345 Cl 
HETATM   11  O   UNL     1      -9.549  13.966  64.059  1.00  0.00     0.953 OA 
BRANCH   6  12
HETATM   12  C   UNL     1     -11.187  12.195  66.769  1.00  0.00    -0.322 C  
BRANCH  12  13
HETATM   13  C   UNL     1     -10.614  11.257  67.803  1.00  0.00    -0.239 A  
HETATM   14  C   UNL     1     -11.122  11.221  69.111  1.00  0.00    -0.312 A  
HETATM   15  C   UNL     1     -10.491  10.452  70.093  1.00  0.00    -0.185 A  
HETATM   16  C   UNL     1      -9.368   9.677  69.784  1.00  0.00    -0.218 A  
HETATM   17  C   UNL     1      -9.524  10.431  67.485  1.00  0.00    -0.167 A  
HETATM   18  C   UNL     1      -8.893   9.662  68.472  1.00  0.00    -0.124 A  
BRANCH  16  19
HETATM   19  O   UNL     1      -8.766   9.067  70.864  1.00  0.00    -0.195 OA 
BRANCH  19  20
HETATM   20  C   UNL     1      -8.858   7.707  71.046  1.00  0.00    -0.142 A  
HETATM   21  C   UNL     1      -7.664   6.981  70.967  1.00  0.00    -0.091 A  
HETATM   22  C   UNL     1      -7.660   5.602  71.197  1.00  0.00    -0.102 A  
HETATM   23  C   UNL     1      -8.863   4.953  71.509  1.00  0.00    -0.134 A  
HETATM   24  C   UNL     1     -10.054   5.685  71.626  1.00  0.00    -0.245 A  
HETATM   25  N   UNL     1      -8.877   3.503  71.721  1.00  0.00    -0.092 N  
HETATM   26  C   UNL     1     -10.042   7.063  71.415  1.00  0.00    -0.197 A  
HETATM   27  O   UNL     1      -7.797   2.901  71.676  1.00  0.00    -0.054 OA 
HETATM   28  O   UNL     1      -9.976   2.959  71.922  1.00  0.00    -0.170 OA 
ENDBRANCH  19  20
ENDBRANCH  16  19
ENDBRANCH  12  13
ENDBRANCH   6  12
ENDBRANCH   5   6
ENDBRANCH   4   5
ENDBRANCH   3   4
ENDBRANCH   2   3
TORSDOF 8
ENDMDL
MODEL      179
REMARK 921   NORMALIZED FREE ENERGY PREDICTED BY IDOCK:   -3.19 KCAL/MOL
REMARK 922        TOTAL FREE ENERGY PREDICTED BY IDOCK:   -5.62 KCAL/MOL
REMARK 923 INTER-LIGAND FREE ENERGY PREDICTED BY IDOCK:   -5.18 KCAL/MOL
REMARK 924 INTRA-LIGAND FREE ENERGY PREDICTED BY IDOCK:   -0.44 KCAL/MOL
REMARK 927      BINDING AFFINITY PREDICTED BY RF-SCORE:    0.00 PKD
ROOT
HETATM    1  C   UNL     1      -7.451  10.446  68.237  1.00  0.00    -0.090 C  
HETATM    2  C   UNL     1      -7.226  11.812  67.624  1.00  0.00    -0.111 C  
ENDROOT
BRANCH   2   3
HETATM    3  O   UNL     1      -6.222  12.542  68.339  1.00  0.00    -0.053 OA 
BRANCH   3   4
HETATM    4  C   UNL     1      -6.635  13.908  68.466  1.00  0.00    -0.098 C  
BRANCH   4   5
HETATM    5  C   UNL     1      -5.885  14.877  67.538  1.00  0.00     0.092 C  
BRANCH   5   6
HETATM    6  N   UNL     1      -6.480  16.203  67.260  1.00  0.00    -0.178 N  
HETATM    7 CL   UNL     1      -7.987  18.828  69.086  1.00  0.00    -0.167 Cl 
HETATM    8  C   UNL     1      -6.029  17.252  68.105  1.00  0.00    -0.135 C  
HETATM    9  C   UNL     1      -6.640  18.653  67.937  1.00  0.00    -0.213 C  
HETATM   10 CL   UNL     1      -5.412  19.908  68.245  1.00  0.00    -0.222 Cl 
HETATM   11  O   UNL     1      -5.180  17.043  68.981  1.00  0.00    -0.131 OA 
BRANCH   6  12
HETATM   12  C   UNL     1      -7.759  16.339  66.530  1.00  0.00    -0.225 C  
BRANCH  12  13
HETATM   13  C   UNL     1      -8.904  15.423  66.890  1.00  0.00    -0.281 A  
HETATM   14  C   UNL     1      -9.357  15.313  68.213  1.00  0.00    -0.194 A  
HETATM   15  C   UNL     1     -10.320  14.359  68.554  1.00  0.00    -0.248 A  
HETATM   16  C   UNL     1     -10.875  13.523  67.579  1.00  0.00    -0.264 A  
HETATM   17  C   UNL     1      -9.508  14.622  65.906  1.00  0.00    -0.238 A  
HETATM   18  C   UNL     1     -10.472  13.665  66.251  1.00  0.00    -0.291 A  
BRANCH  16  19
HETATM   19  O   UNL     1     -11.716  12.543  68.064  1.00  0.00    -0.327 OA 
BRANCH  19  20
HETATM   20  C   UNL     1     -11.303  11.234  68.136  1.00  0.00    -0.303 A  
HETATM   21  C   UNL     1     -11.593  10.548  69.321  1.00  0.00    -0.308 A  
HETATM   22  C   UNL     1     -11.259   9.197  69.453  1.00  0.00     0.065 A  
HETATM   23  C   UNL     1     -10.632   8.535  68.388  1.00  0.00    -0.111 A  
HETATM   24  C   UNL     1     -10.375   9.210  67.186  1.00  0.00    -0.337 A  
HETATM   25  N   UNL     1     -10.249   7.126  68.526  1.00  0.00    -0.169 N  
HETATM   26  C   UNL     1     -10.731  10.552  67.058  1.00  0.00    -0.310 A  
HETATM   27  O   UNL     1     -10.553   6.545  69.576  1.00  0.00    -0.206 OA 
HETATM   28  O   UNL     1      -9.629   6.601  67.586  1.00  0.00    -0.124 OA 
ENDBRANCH  19  20
ENDBRANCH  16  19
ENDBRANCH  12  13
ENDBRANCH   6  12
ENDBRANCH   5   6
ENDBRANCH   4   5
ENDBRANCH   3   4
ENDBRANCH   2   3
TORSDOF 8
ENDMDL
MODEL      180
REMARK 921   NORMALIZED FREE ENERGY PREDICTED BY IDOCK:   -3.19 KCAL/MOL
REMARK 922        TOTAL FREE ENERGY PREDICTED BY IDOCK:   -5.62 KCAL/MOL
REMARK 923 INTER-LIGAND FREE ENERGY PREDICTED BY IDOCK:   -4.59 KCAL/MOL
REMARK 924 INTRA-LIGAND FREE ENERGY PREDICTED BY IDOCK:   -1.03 KCAL/MOL
REMARK 927      BINDING AFFINITY PREDICTED BY RF-SCORE:    0.00 PKD
ROOT
HETATM    1  C   UNL     1     -12.140   6.880  71.892  1.00  0.00    -0.370 C  
HETATM    2  C   UNL     1     -10.966   7.262  72.768  1.00  0.00    -0.323 C  
ENDROOT
BRANCH   2   3
HETATM    3  O   UNL     1     -10.395   6.110  73.400  1.00  0.00    -0.207 OA 
BRANCH   3   4
HETATM    4  C   UNL     1     -10.269   5.058  72.434  1.00  0.00    -0.201 C  
BRANCH   4   5
HETATM    5  C   UNL     1      -9.227   5.336  71.340  1.00  0.00    -0.146 C  
BRANCH   5   6
HETATM    6  N   UNL     1      -8.812   4.228  70.451  1.00  0.00    -0.081 N  
HETATM    7 CL   UNL     1      -6.002   3.362  68.488  1.00  0.00    -0.023 Cl 
HETATM    8  C   UNL     1      -7.510   3.717  70.697  1.00  0.00    -0.041 C  
HETATM    9  C   UNL     1      -6.964   2.608  69.781  1.00  0.00    -0.033 C  
HETATM   10 CL   UNL     1      -5.949   1.476  70.712  1.00  0.00    -0.017 Cl 
HETATM   11  O   UNL     1      -6.812   4.168  71.615  1.00  0.00    -0.031 OA 
BRANCH   6  12
HETATM   12  C   UNL     1      -9.458   4.006  69.138  1.00  0.00    -0.178 C  
BRANCH  12  13
HETATM   13  C   UNL     1      -9.544   5.157  68.166  1.00  0.00    -0.173 A  
HETATM   14  C   UNL     1      -8.397   5.664  67.538  1.00  0.00    -0.100 A  
HETATM   15  C   UNL     1      -8.472   6.818  66.751  1.00  0.00    -0.117 A  
HETATM   16  C   UNL     1      -9.695   7.465  66.546  1.00  0.00    -0.156 A  
HETATM   17  C   UNL     1     -10.778   5.777  67.908  1.00  0.00    -0.295 A  
HETATM   18  C   UNL     1     -10.850   6.934  67.120  1.00  0.00    -0.447 A  
BRANCH  16  19
HETATM   19  O   UNL     1      -9.613   8.658  65.859  1.00  0.00    -0.220 OA 
BRANCH  19  20
HETATM   20  C   UNL     1      -8.989   9.750  66.417  1.00  0.00    -0.151 A  
HETATM   21  C   UNL     1      -7.712  10.057  65.934  1.00  0.00    -0.116 A  
HETATM   22  C   UNL     1      -7.033  11.184  66.406  1.00  0.00    -0.093 A  
HETATM   23  C   UNL     1      -7.642  12.004  67.366  1.00  0.00    -0.151 A  
HETATM   24  C   UNL     1      -8.937  11.719  67.823  1.00  0.00    -0.173 A  
HETATM   25  N   UNL     1      -6.927  13.171  67.891  1.00  0.00    -0.114 N  
HETATM   26  C   UNL     1      -9.613  10.603  67.330  1.00  0.00    -0.180 A  
HETATM   27  O   UNL     1      -5.814  13.430  67.415  1.00  0.00    -0.339 OA 
HETATM   28  O   UNL     1      -7.474  13.826  68.794  1.00  0.00    -0.115 OA 
ENDBRANCH  19  20
ENDBRANCH  16  19
ENDBRANCH  12  13
ENDBRANCH   6  12
ENDBRANCH   5   6
ENDBRANCH   4   5
ENDBRANCH   3   4
ENDBRANCH   2   3
TORSDOF 8
ENDMDL
MODEL      181
REMARK 921   NORMALIZED FREE ENERGY PREDICTED BY IDOCK:   -3.14 KCAL/MOL
REMARK 922        TOTAL FREE ENERGY PREDICTED BY IDOCK:   -5.55 KCAL/MOL
REMARK 923 INTER-LIGAND FREE ENERGY PREDICTED BY IDOCK:   -4.87 KCAL/MOL
REMARK 924 INTRA-LIGAND FREE ENERGY PREDICTED BY IDOCK:   -0.67 KCAL/MOL
REMARK 927      BINDING AFFINITY PREDICTED BY RF-SCORE:    0.00 PKD
ROOT
HETATM    1  C   UNL     1     -12.050  14.419  68.521  1.00  0.00    -0.278 C  
HETATM    2  C   UNL     1     -12.084  13.721  67.178  1.00  0.00    -0.378 C  
ENDROOT
BRANCH   2   3
HETATM    3  O   UNL     1     -11.379  12.475  67.223  1.00  0.00    -0.277 OA 
BRANCH   3   4
HETATM    4  C   UNL     1     -11.377  11.984  68.570  1.00  0.00    -0.272 C  
BRANCH   4   5
HETATM    5  C   UNL     1     -10.908  10.527  68.704  1.00  0.00    -0.237 C  
BRANCH   5   6
HETATM    6  N   UNL     1      -9.800  10.217  69.633  1.00  0.00    -0.224 N  
HETATM    7 CL   UNL     1      -6.728   8.468  69.548  1.00  0.00    -0.040 Cl 
HETATM    8  C   UNL     1      -8.498  10.459  69.116  1.00  0.00    -0.164 C  
HETATM    9  C   UNL     1      -7.279  10.103  69.984  1.00  0.00    -0.161 C  
HETATM   10 CL   UNL     1      -5.965  11.278  69.719  1.00  0.00    -0.088 Cl 
HETATM   11  O   UNL     1      -8.341  10.922  67.979  1.00  0.00    -0.116 OA 
BRANCH   6  12
HETATM   12  C   UNL     1      -9.982   9.295  70.775  1.00  0.00    -0.290 C  
BRANCH  12  13
HETATM   13  C   UNL     1     -10.010   7.809  70.514  1.00  0.00    -0.187 A  
HETATM   14  C   UNL     1      -9.145   6.937  71.190  1.00  0.00    -0.150 A  
HETATM   15  C   UNL     1      -9.083   5.585  70.836  1.00  0.00    -0.164 A  
HETATM   16  C   UNL     1      -9.908   5.071  69.829  1.00  0.00    -0.216 A  
HETATM   17  C   UNL     1     -10.877   7.276  69.545  1.00  0.00    -0.224 A  
HETATM   18  C   UNL     1     -10.813   5.921  69.192  1.00  0.00    -0.406 A  
BRANCH  16  19
HETATM   19  O   UNL     1      -9.661   3.758  69.489  1.00  0.00    -0.184 OA 
BRANCH  19  20
HETATM   20  C   UNL     1      -9.039   3.443  68.304  1.00  0.00    -0.155 A  
HETATM   21  C   UNL     1      -8.110   4.371  67.817  1.00  0.00    -0.095 A  
HETATM   22  C   UNL     1      -7.391   4.101  66.649  1.00  0.00    -0.076 A  
HETATM   23  C   UNL     1      -7.607   2.894  65.970  1.00  0.00    -0.077 A  
HETATM   24  C   UNL     1      -8.509   1.947  66.476  1.00  0.00    -0.101 A  
HETATM   25  N   UNL     1      -6.882   2.614  64.727  1.00  0.00    -0.043 N  
HETATM   26  C   UNL     1      -9.206   2.217  67.654  1.00  0.00    -0.207 A  
HETATM   27  O   UNL     1      -6.044   3.443  64.347  1.00  0.00    -0.021 OA 
HETATM   28  O   UNL     1      -7.158   1.566  64.120  1.00  0.00    -0.040 OA 
ENDBRANCH  19  20
ENDBRANCH  16  19
ENDBRANCH  12  13
ENDBRANCH   6  12
ENDBRANCH   5   6
ENDBRANCH   4   5
ENDBRANCH   3   4
ENDBRANCH   2   3
TORSDOF 8
ENDMDL
MODEL      182
REMARK 921   NORMALIZED FREE ENERGY PREDICTED BY IDOCK:   -3.14 KCAL/MOL
REMARK 922        TOTAL FREE ENERGY PREDICTED BY IDOCK:   -5.54 KCAL/MOL
REMARK 923 INTER-LIGAND FREE ENERGY PREDICTED BY IDOCK:   -5.34 KCAL/MOL
REMARK 924 INTRA-LIGAND FREE ENERGY PREDICTED BY IDOCK:   -0.20 KCAL/MOL
REMARK 927      BINDING AFFINITY PREDICTED BY RF-SCORE:    0.00 PKD
ROOT
HETATM    1  C   UNL     1      -5.836  14.635  69.728  1.00  0.00    -0.111 C  
HETATM    2  C   UNL     1      -7.169  15.320  69.945  1.00  0.00    -0.080 C  
ENDROOT
BRANCH   2   3
HETATM    3  O   UNL     1      -8.239  14.568  69.361  1.00  0.00    -0.018 OA 
BRANCH   3   4
HETATM    4  C   UNL     1      -9.021  15.432  68.527  1.00  0.00    -0.192 C  
BRANCH   4   5
HETATM    5  C   UNL     1     -10.529  15.144  68.568  1.00  0.00    -0.233 C  
BRANCH   5   6
HETATM    6  N   UNL     1     -11.025  13.858  68.029  1.00  0.00    -0.245 N  
HETATM    7 CL   UNL     1     -12.785  12.721  65.181  1.00  0.00    -0.522 Cl 
HETATM    8  C   UNL     1     -10.717  13.622  66.662  1.00  0.00    -0.280 C  
HETATM    9  C   UNL     1     -11.248  12.342  65.994  1.00  0.00    -0.335 C  
HETATM   10 CL   UNL     1     -10.069  11.726  64.807  1.00  0.00    -0.288 Cl 
HETATM   11  O   UNL     1     -10.056  14.439  66.008  1.00  0.00    -0.294 OA 
BRANCH   6  12
HETATM   12  C   UNL     1     -12.138  13.127  68.674  1.00  0.00    -0.187 C  
BRANCH  12  13
HETATM   13  C   UNL     1     -11.870  11.759  69.254  1.00  0.00    -0.389 A  
HETATM   14  C   UNL     1     -12.895  11.012  69.853  1.00  0.00     0.030 A  
HETATM   15  C   UNL     1     -12.604   9.812  70.510  1.00  0.00    -0.091 A  
HETATM   16  C   UNL     1     -11.296   9.317  70.550  1.00  0.00    -0.258 A  
HETATM   17  C   UNL     1     -10.570  11.228  69.246  1.00  0.00    -0.187 A  
HETATM   18  C   UNL     1     -10.281  10.026  69.907  1.00  0.00    -0.304 A  
BRANCH  16  19
HETATM   19  O   UNL     1     -11.122   8.196  71.335  1.00  0.00    -0.237 OA 
BRANCH  19  20
HETATM   20  C   UNL     1      -9.861   7.748  71.651  1.00  0.00    -0.163 A  
HETATM   21  C   UNL     1      -9.130   8.520  72.561  1.00  0.00    -0.284 A  
HETATM   22  C   UNL     1      -7.863   8.104  72.980  1.00  0.00    -0.207 A  
HETATM   23  C   UNL     1      -7.332   6.906  72.481  1.00  0.00    -0.085 A  
HETATM   24  C   UNL     1      -8.078   6.111  71.599  1.00  0.00    -0.110 A  
HETATM   25  N   UNL     1      -5.991   6.475  72.890  1.00  0.00    -0.042 N  
HETATM   26  C   UNL     1      -9.350   6.526  71.204  1.00  0.00    -0.167 A  
HETATM   27  O   UNL     1      -5.390   7.167  73.722  1.00  0.00    -0.045 OA 
HETATM   28  O   UNL     1      -5.531   5.447  72.367  1.00  0.00    -0.016 OA 
ENDBRANCH  19  20
ENDBRANCH  16  19
ENDBRANCH  12  13
ENDBRANCH   6  12
ENDBRANCH   5   6
ENDBRANCH   4   5
ENDBRANCH   3   4
ENDBRANCH   2   3
TORSDOF 8
ENDMDL
MODEL      183
REMARK 921   NORMALIZED FREE ENERGY PREDICTED BY IDOCK:   -3.11 KCAL/MOL
REMARK 922        TOTAL FREE ENERGY PREDICTED BY IDOCK:   -5.49 KCAL/MOL
REMARK 923 INTER-LIGAND FREE ENERGY PREDICTED BY IDOCK:   -5.23 KCAL/MOL
REMARK 924 INTRA-LIGAND FREE ENERGY PREDICTED BY IDOCK:   -0.26 KCAL/MOL
REMARK 927      BINDING AFFINITY PREDICTED BY RF-SCORE:    0.00 PKD
ROOT
HETATM    1  C   UNL     1      -5.207  19.193  71.450  1.00  0.00    -0.336 C  
HETATM    2  C   UNL     1      -5.297  19.263  69.940  1.00  0.00    -0.207 C  
ENDROOT
BRANCH   2   3
HETATM    3  O   UNL     1      -6.568  18.795  69.474  1.00  0.00    -0.268 OA 
BRANCH   3   4
HETATM    4  C   UNL     1      -7.609  19.504  70.157  1.00  0.00     0.677 C  
BRANCH   4   5
HETATM    5  C   UNL     1      -9.011  19.271  69.573  1.00  0.00     0.292 C  
BRANCH   5   6
HETATM    6  N   UNL     1      -9.137  18.894  68.148  1.00  0.00    -0.303 N  
HETATM    7 CL   UNL     1     -10.088  20.435  65.111  1.00  0.00     0.269 Cl 
HETATM    8  C   UNL     1      -8.544  19.805  67.232  1.00  0.00    -0.321 C  
HETATM    9  C   UNL     1      -8.681  19.534  65.724  1.00  0.00     0.120 C  
HETATM   10 CL   UNL     1      -7.208  20.048  64.864  1.00  0.00     0.016 Cl 
HETATM   11  O   UNL     1      -7.948  20.813  67.633  1.00  0.00    -0.242 OA 
BRANCH   6  12
HETATM   12  C   UNL     1     -10.183  17.956  67.685  1.00  0.00    -0.365 C  
BRANCH  12  13
HETATM   13  C   UNL     1      -9.869  16.480  67.642  1.00  0.00    -0.247 A  
HETATM   14  C   UNL     1     -10.314  15.674  66.583  1.00  0.00    -0.290 A  
HETATM   15  C   UNL     1     -10.138  14.288  66.627  1.00  0.00    -0.274 A  
HETATM   16  C   UNL     1      -9.484  13.683  67.706  1.00  0.00    -0.221 A  
HETATM   17  C   UNL     1      -9.161  15.875  68.693  1.00  0.00    -0.209 A  
HETATM   18  C   UNL     1      -8.987  14.485  68.735  1.00  0.00    -0.157 A  
BRANCH  16  19
HETATM   19  O   UNL     1      -9.488  12.305  67.691  1.00  0.00    -0.179 OA 
BRANCH  19  20
HETATM   20  C   UNL     1     -10.200  11.593  68.628  1.00  0.00    -0.206 A  
HETATM   21  C   UNL     1      -9.532  10.534  69.253  1.00  0.00    -0.191 A  
HETATM   22  C   UNL     1     -10.164   9.797  70.258  1.00  0.00    -0.346 A  
HETATM   23  C   UNL     1     -11.473  10.128  70.635  1.00  0.00    -0.349 A  
HETATM   24  C   UNL     1     -12.131  11.213  70.037  1.00  0.00    -0.437 A  
HETATM   25  N   UNL     1     -12.157   9.342  71.667  1.00  0.00    -0.365 N  
HETATM   26  C   UNL     1     -11.483  11.954  69.050  1.00  0.00    -0.355 A  
HETATM   27  O   UNL     1     -11.522   8.436  72.220  1.00  0.00    -0.342 OA 
HETATM   28  O   UNL     1     -13.341   9.624  71.917  1.00  0.00    -0.393 OA 
ENDBRANCH  19  20
ENDBRANCH  16  19
ENDBRANCH  12  13
ENDBRANCH   6  12
ENDBRANCH   5   6
ENDBRANCH   4   5
ENDBRANCH   3   4
ENDBRANCH   2   3
TORSDOF 8
ENDMDL
MODEL      184
REMARK 921   NORMALIZED FREE ENERGY PREDICTED BY IDOCK:   -3.09 KCAL/MOL
REMARK 922        TOTAL FREE ENERGY PREDICTED BY IDOCK:   -5.47 KCAL/MOL
REMARK 923 INTER-LIGAND FREE ENERGY PREDICTED BY IDOCK:   -4.47 KCAL/MOL
REMARK 924 INTRA-LIGAND FREE ENERGY PREDICTED BY IDOCK:   -1.01 KCAL/MOL
REMARK 927      BINDING AFFINITY PREDICTED BY RF-SCORE:    0.00 PKD
ROOT
HETATM    1  C   UNL     1      -8.077   9.803  65.071  1.00  0.00    -0.134 C  
HETATM    2  C   UNL     1      -9.343   9.284  65.719  1.00  0.00    -0.244 C  
ENDROOT
BRANCH   2   3
HETATM    3  O   UNL     1      -9.168   7.945  66.198  1.00  0.00    -0.187 OA 
BRANCH   3   4
HETATM    4  C   UNL     1     -10.374   7.517  66.845  1.00  0.00    -0.309 C  
BRANCH   4   5
HETATM    5  C   UNL     1     -10.158   6.951  68.257  1.00  0.00    -0.167 C  
BRANCH   5   6
HETATM    6  N   UNL     1      -9.913   7.892  69.373  1.00  0.00    -0.185 N  
HETATM    7 CL   UNL     1     -10.725   8.146  72.805  1.00  0.00    -0.423 Cl 
HETATM    8  C   UNL     1      -9.464   7.288  70.578  1.00  0.00    -0.165 C  
HETATM    9  C   UNL     1      -9.246   8.176  71.815  1.00  0.00    -0.174 C  
HETATM   10 CL   UNL     1      -7.864   7.582  72.771  1.00  0.00    -0.111 Cl 
HETATM   11  O   UNL     1      -9.275   6.066  70.647  1.00  0.00    -0.148 OA 
BRANCH   6  12
HETATM   12  C   UNL     1     -10.533   9.234  69.404  1.00  0.00    -0.219 C  
BRANCH  12  13
HETATM   13  C   UNL     1      -9.709  10.427  68.984  1.00  0.00    -0.216 A  
HETATM   14  C   UNL     1     -10.318  11.640  68.628  1.00  0.00    -0.229 A  
HETATM   15  C   UNL     1      -9.554  12.688  68.106  1.00  0.00    -0.219 A  
HETATM   16  C   UNL     1      -8.168  12.561  67.963  1.00  0.00    -0.166 A  
HETATM   17  C   UNL     1      -8.312  10.326  68.893  1.00  0.00    -0.136 A  
HETATM   18  C   UNL     1      -7.548  11.378  68.369  1.00  0.00    -0.123 A  
BRANCH  16  19
HETATM   19  O   UNL     1      -7.551  13.613  67.321  1.00  0.00    -0.152 OA 
BRANCH  19  20
HETATM   20  C   UNL     1      -8.288  14.658  66.813  1.00  0.00    -0.043 A  
HETATM   21  C   UNL     1      -8.966  14.421  65.612  1.00  0.00     0.819 A  
HETATM   22  C   UNL     1      -9.784  15.411  65.058  1.00  0.00     0.165 A  
HETATM   23  C   UNL     1      -9.921  16.640  65.718  1.00  0.00    -0.243 A  
HETATM   24  C   UNL     1      -9.273  16.865  66.941  1.00  0.00    -0.253 A  
HETATM   25  N   UNL     1     -10.751  17.696  65.131  1.00  0.00     0.033 N  
HETATM   26  C   UNL     1      -8.475  15.864  67.494  1.00  0.00    -0.181 A  
HETATM   27  O   UNL     1     -11.362  17.438  64.086  1.00  0.00    -0.582 OA 
HETATM   28  O   UNL     1     -10.785  18.795  65.711  1.00  0.00    -0.475 OA 
ENDBRANCH  19  20
ENDBRANCH  16  19
ENDBRANCH  12  13
ENDBRANCH   6  12
ENDBRANCH   5   6
ENDBRANCH   4   5
ENDBRANCH   3   4
ENDBRANCH   2   3
TORSDOF 8
ENDMDL
MODEL      185
REMARK 921   NORMALIZED FREE ENERGY PREDICTED BY IDOCK:   -2.91 KCAL/MOL
REMARK 922        TOTAL FREE ENERGY PREDICTED BY IDOCK:   -5.20 KCAL/MOL
REMARK 923 INTER-LIGAND FREE ENERGY PREDICTED BY IDOCK:   -4.70 KCAL/MOL
REMARK 924 INTRA-LIGAND FREE ENERGY PREDICTED BY IDOCK:   -0.50 KCAL/MOL
REMARK 927      BINDING AFFINITY PREDICTED BY RF-SCORE:    0.00 PKD
ROOT
HETATM    1  C   UNL     1     -13.708   8.453  71.828  1.00  0.00    -0.432 C  
HETATM    2  C   UNL     1     -13.192   9.873  71.735  1.00  0.00    -0.434 C  
ENDROOT
BRANCH   2   3
HETATM    3  O   UNL     1     -11.762   9.899  71.643  1.00  0.00    -0.372 OA 
BRANCH   3   4
HETATM    4  C   UNL     1     -11.294   8.609  71.231  1.00  0.00    -0.281 C  
BRANCH   4   5
HETATM    5  C   UNL     1      -9.936   8.637  70.512  1.00  0.00    -0.189 C  
BRANCH   5   6
HETATM    6  N   UNL     1      -9.864   8.182  69.106  1.00  0.00    -0.178 N  
HETATM    7 CL   UNL     1      -7.418   6.909  66.892  1.00  0.00    -0.082 Cl 
HETATM    8  C   UNL     1      -9.208   6.936  68.912  1.00  0.00    -0.132 C  
HETATM    9  C   UNL     1      -9.023   6.412  67.477  1.00  0.00    -0.116 C  
HETATM   10 CL   UNL     1      -9.159   4.635  67.443  1.00  0.00    -0.126 Cl 
HETATM   11  O   UNL     1      -8.766   6.292  69.873  1.00  0.00    -0.138 OA 
BRANCH   6  12
HETATM   12  C   UNL     1     -10.002   9.128  67.977  1.00  0.00    -0.178 C  
BRANCH  12  13
HETATM   13  C   UNL     1      -9.113  10.347  67.937  1.00  0.00    -0.132 A  
HETATM   14  C   UNL     1      -8.552  10.797  66.732  1.00  0.00    -0.136 A  
HETATM   15  C   UNL     1      -7.619  11.839  66.731  1.00  0.00    -0.072 A  
HETATM   16  C   UNL     1      -7.257  12.475  67.923  1.00  0.00    -0.115 A  
HETATM   17  C   UNL     1      -8.789  11.029  69.122  1.00  0.00    -0.003 A  
HETATM   18  C   UNL     1      -7.853  12.072  69.118  1.00  0.00     0.247 A  
BRANCH  16  19
HETATM   19  O   UNL     1      -6.237  13.396  67.803  1.00  0.00    -0.136 OA 
BRANCH  19  20
HETATM   20  C   UNL     1      -6.508  14.744  67.774  1.00  0.00    -0.164 A  
HETATM   21  C   UNL     1      -5.440  15.605  68.054  1.00  0.00    -0.135 A  
HETATM   22  C   UNL     1      -5.615  16.990  67.988  1.00  0.00    -0.124 A  
HETATM   23  C   UNL     1      -6.870  17.510  67.639  1.00  0.00    -0.163 A  
HETATM   24  C   UNL     1      -7.931  16.649  67.321  1.00  0.00    -0.193 A  
HETATM   25  N   UNL     1      -7.074  18.961  67.597  1.00  0.00    -0.214 N  
HETATM   26  C   UNL     1      -7.739  15.269  67.370  1.00  0.00    -0.225 A  
HETATM   27  O   UNL     1      -6.098  19.689  67.818  1.00  0.00    -0.200 OA 
HETATM   28  O   UNL     1      -8.220  19.377  67.355  1.00  0.00    -0.276 OA 
ENDBRANCH  19  20
ENDBRANCH  16  19
ENDBRANCH  12  13
ENDBRANCH   6  12
ENDBRANCH   5   6
ENDBRANCH   4   5
ENDBRANCH   3   4
ENDBRANCH   2   3
TORSDOF 8
ENDMDL
MODEL      186
REMARK 921   NORMALIZED FREE ENERGY PREDICTED BY IDOCK:   -2.82 KCAL/MOL
REMARK 922        TOTAL FREE ENERGY PREDICTED BY IDOCK:   -5.08 KCAL/MOL
REMARK 923 INTER-LIGAND FREE ENERGY PREDICTED BY IDOCK:   -4.75 KCAL/MOL
REMARK 924 INTRA-LIGAND FREE ENERGY PREDICTED BY IDOCK:   -0.33 KCAL/MOL
REMARK 927      BINDING AFFINITY PREDICTED BY RF-SCORE:    0.00 PKD
ROOT
HETATM    1  C   UNL     1      -5.304  17.054  67.184  1.00  0.00    -0.182 C  
HETATM    2  C   UNL     1      -5.324  16.278  68.484  1.00  0.00    -0.102 C  
ENDROOT
BRANCH   2   3
HETATM    3  O   UNL     1      -6.204  16.886  69.437  1.00  0.00    -0.200 OA 
BRANCH   3   4
HETATM    4  C   UNL     1      -7.455  16.187  69.435  1.00  0.00    -0.181 C  
BRANCH   4   5
HETATM    5  C   UNL     1      -8.344  16.500  68.222  1.00  0.00    -0.190 C  
BRANCH   5   6
HETATM    6  N   UNL     1      -8.894  15.377  67.431  1.00  0.00    -0.176 N  
HETATM    7 CL   UNL     1     -10.603  12.342  68.038  1.00  0.00    -0.221 Cl 
HETATM    8  C   UNL     1     -10.222  15.000  67.769  1.00  0.00    -0.236 C  
HETATM    9  C   UNL     1     -10.857  13.798  67.048  1.00  0.00    -0.284 C  
HETATM   10 CL   UNL     1     -12.601  14.070  66.804  1.00  0.00    -0.234 Cl 
HETATM   11  O   UNL     1     -10.853  15.606  68.645  1.00  0.00    -0.249 OA 
BRANCH   6  12
HETATM   12  C   UNL     1      -8.012  14.425  66.722  1.00  0.00     0.305 C  
BRANCH  12  13
HETATM   13  C   UNL     1      -7.558  13.178  67.443  1.00  0.00    -0.137 A  
HETATM   14  C   UNL     1      -7.617  11.921  66.825  1.00  0.00    -0.034 A  
HETATM   15  C   UNL     1      -7.329  10.761  67.551  1.00  0.00    -0.092 A  
HETATM   16  C   UNL     1      -6.941  10.836  68.893  1.00  0.00    -0.077 A  
HETATM   17  C   UNL     1      -7.112  13.251  68.773  1.00  0.00    -0.100 A  
HETATM   18  C   UNL     1      -6.824  12.087  69.498  1.00  0.00     0.021 A  
BRANCH  16  19
HETATM   19  O   UNL     1      -6.809   9.619  69.529  1.00  0.00    -0.050 OA 
BRANCH  19  20
HETATM   20  C   UNL     1      -7.798   9.149  70.361  1.00  0.00    -0.133 A  
HETATM   21  C   UNL     1      -7.380   8.468  71.510  1.00  0.00    -0.112 A  
HETATM   22  C   UNL     1      -8.320   8.009  72.438  1.00  0.00    -0.205 A  
HETATM   23  C   UNL     1      -9.684   8.238  72.207  1.00  0.00    -0.292 A  
HETATM   24  C   UNL     1     -10.102   8.953  71.076  1.00  0.00    -0.324 A  
HETATM   25  N   UNL     1     -10.680   7.734  73.157  1.00  0.00    -0.385 N  
HETATM   26  C   UNL     1      -9.155   9.424  70.167  1.00  0.00    -0.262 A  
HETATM   27  O   UNL     1     -10.271   7.167  74.178  1.00  0.00    -0.309 OA 
HETATM   28  O   UNL     1     -11.880   7.894  72.876  1.00  0.00    -0.307 OA 
ENDBRANCH  19  20
ENDBRANCH  16  19
ENDBRANCH  12  13
ENDBRANCH   6  12
ENDBRANCH   5   6
ENDBRANCH   4   5
ENDBRANCH   3   4
ENDBRANCH   2   3
TORSDOF 8
ENDMDL
MODEL      187
REMARK 921   NORMALIZED FREE ENERGY PREDICTED BY IDOCK:   -2.68 KCAL/MOL
REMARK 922        TOTAL FREE ENERGY PREDICTED BY IDOCK:   -4.87 KCAL/MOL
REMARK 923 INTER-LIGAND FREE ENERGY PREDICTED BY IDOCK:   -6.23 KCAL/MOL
REMARK 924 INTRA-LIGAND FREE ENERGY PREDICTED BY IDOCK:    1.37 KCAL/MOL
REMARK 927      BINDING AFFINITY PREDICTED BY RF-SCORE:    0.00 PKD
ROOT
HETATM    1  C   UNL     1      -5.486   8.216  67.703  1.00  0.00    -0.034 C  
HETATM    2  C   UNL     1      -6.712   8.490  68.547  1.00  0.00    -0.060 C  
ENDROOT
BRANCH   2   3
HETATM    3  O   UNL     1      -7.225   7.282  69.123  1.00  0.00    -0.080 OA 
BRANCH   3   4
HETATM    4  C   UNL     1      -8.444   6.926  68.460  1.00  0.00    -0.123 C  
BRANCH   4   5
HETATM    5  C   UNL     1      -9.566   7.964  68.613  1.00  0.00    -0.155 C  
BRANCH   5   6
HETATM    6  N   UNL     1      -9.423   9.274  67.941  1.00  0.00    -0.136 N  
HETATM    7 CL   UNL     1      -7.266  10.779  65.578  1.00  0.00    -0.041 Cl 
HETATM    8  C   UNL     1      -9.242   9.210  66.533  1.00  0.00    -0.175 C  
HETATM    9  C   UNL     1      -9.017  10.518  65.755  1.00  0.00    -0.180 C  
HETATM   10 CL   UNL     1      -9.782  10.424  64.148  1.00  0.00    -0.377 Cl 
HETATM   11  O   UNL     1      -9.239   8.123  65.940  1.00  0.00    -0.171 OA 
BRANCH   6  12
HETATM   12  C   UNL     1      -9.009  10.484  68.685  1.00  0.00    -0.162 C  
BRANCH  12  13
HETATM   13  C   UNL     1      -9.693  11.795  68.380  1.00  0.00    -0.197 A  
HETATM   14  C   UNL     1      -8.951  12.958  68.125  1.00  0.00    -0.202 A  
HETATM   15  C   UNL     1      -9.595  14.191  67.985  1.00  0.00    -0.218 A  
HETATM   16  C   UNL     1     -10.989  14.283  68.059  1.00  0.00    -0.249 A  
HETATM   17  C   UNL     1     -11.094  11.884  68.394  1.00  0.00    -0.292 A  
HETATM   18  C   UNL     1     -11.737  13.122  68.254  1.00  0.00    -0.384 A  
BRANCH  16  19
HETATM   19  O   UNL     1     -11.489  15.568  68.032  1.00  0.00    -0.342 OA 
BRANCH  19  20
HETATM   20  C   UNL     1     -10.682  16.630  67.698  1.00  0.00    -0.306 A  
HETATM   21  C   UNL     1     -10.143  16.628  66.407  1.00  0.00    -0.325 A  
HETATM   22  C   UNL     1      -9.359  17.699  65.968  1.00  0.00    -0.070 A  
HETATM   23  C   UNL     1      -9.119  18.776  66.833  1.00  0.00    -0.300 A  
HETATM   24  C   UNL     1      -9.690  18.799  68.114  1.00  0.00    -0.384 A  
HETATM   25  N   UNL     1      -8.273  19.890  66.395  1.00  0.00    -0.332 N  
HETATM   26  C   UNL     1     -10.487  17.734  68.533  1.00  0.00    -0.332 A  
HETATM   27  O   UNL     1      -7.843  19.869  65.235  1.00  0.00    -0.277 OA 
HETATM   28  O   UNL     1      -8.027  20.787  67.219  1.00  0.00    -0.329 OA 
ENDBRANCH  19  20
ENDBRANCH  16  19
ENDBRANCH  12  13
ENDBRANCH   6  12
ENDBRANCH   5   6
ENDBRANCH   4   5
ENDBRANCH   3   4
ENDBRANCH   2   3
TORSDOF 8
ENDMDL
MODEL      188
REMARK 921   NORMALIZED FREE ENERGY PREDICTED BY IDOCK:   -2.58 KCAL/MOL
REMARK 922        TOTAL FREE ENERGY PREDICTED BY IDOCK:   -4.72 KCAL/MOL
REMARK 923 INTER-LIGAND FREE ENERGY PREDICTED BY IDOCK:   -5.52 KCAL/MOL
REMARK 924 INTRA-LIGAND FREE ENERGY PREDICTED BY IDOCK:    0.80 KCAL/MOL
REMARK 927      BINDING AFFINITY PREDICTED BY RF-SCORE:    0.00 PKD
ROOT
HETATM    1  C   UNL     1      -5.749   8.739  68.323  1.00  0.00    -0.039 C  
HETATM    2  C   UNL     1      -7.235   8.629  68.059  1.00  0.00    -0.087 C  
ENDROOT
BRANCH   2   3
HETATM    3  O   UNL     1      -7.555   7.396  67.403  1.00  0.00    -0.106 OA 
BRANCH   3   4
HETATM    4  C   UNL     1      -8.925   7.065  67.667  1.00  0.00    -0.117 C  
BRANCH   4   5
HETATM    5  C   UNL     1      -9.802   8.274  68.027  1.00  0.00    -0.169 C  
BRANCH   5   6
HETATM    6  N   UNL     1      -9.913   8.678  69.446  1.00  0.00    -0.192 N  
HETATM    7 CL   UNL     1     -12.473   9.143  71.840  1.00  0.00    -0.432 Cl 
HETATM    8  C   UNL     1     -10.730   7.836  70.247  1.00  0.00    -0.236 C  
HETATM    9  C   UNL     1     -10.961   8.212  71.720  1.00  0.00    -0.261 C  
HETATM   10 CL   UNL     1     -11.070   6.745  72.727  1.00  0.00    -0.291 Cl 
HETATM   11  O   UNL     1     -11.271   6.831  69.768  1.00  0.00    -0.301 OA 
BRANCH   6  12
HETATM   12  C   UNL     1      -9.627  10.063  69.881  1.00  0.00    -0.192 C  
BRANCH  12  13
HETATM   13  C   UNL     1      -9.919  11.199  68.931  1.00  0.00    -0.188 A  
HETATM   14  C   UNL     1     -10.496  10.963  67.674  1.00  0.00    -0.244 A  
HETATM   15  C   UNL     1     -10.629  12.005  66.750  1.00  0.00    -0.260 A  
HETATM   16  C   UNL     1     -10.225  13.304  67.074  1.00  0.00    -0.244 A  
HETATM   17  C   UNL     1      -9.570  12.516  69.271  1.00  0.00     0.767 A  
HETATM   18  C   UNL     1      -9.704  13.558  68.343  1.00  0.00    -0.207 A  
BRANCH  16  19
HETATM   19  O   UNL     1     -10.292  14.210  66.036  1.00  0.00    -0.290 OA 
BRANCH  19  20
HETATM   20  C   UNL     1      -9.677  15.436  66.132  1.00  0.00    -0.318 A  
HETATM   21  C   UNL     1     -10.506  16.562  66.061  1.00  0.00    -0.320 A  
HETATM   22  C   UNL     1      -9.968  17.843  66.208  1.00  0.00    -0.333 A  
HETATM   23  C   UNL     1      -8.591  17.992  66.429  1.00  0.00    -0.228 A  
HETATM   24  C   UNL     1      -7.765  16.864  66.538  1.00  0.00    -0.326 A  
HETATM   25  N   UNL     1      -8.012  19.332  66.553  1.00  0.00    -0.280 N  
HETATM   26  C   UNL     1      -8.315  15.589  66.410  1.00  0.00    -0.153 A  
HETATM   27  O   UNL     1      -8.781  20.301  66.519  1.00  0.00    -0.277 OA 
HETATM   28  O   UNL     1      -6.778  19.420  66.673  1.00  0.00    -0.192 OA 
ENDBRANCH  19  20
ENDBRANCH  16  19
ENDBRANCH  12  13
ENDBRANCH   6  12
ENDBRANCH   5   6
ENDBRANCH   4   5
ENDBRANCH   3   4
ENDBRANCH   2   3
TORSDOF 8
ENDMDL
MODEL      189
REMARK 921   NORMALIZED FREE ENERGY PREDICTED BY IDOCK:   -2.46 KCAL/MOL
REMARK 922        TOTAL FREE ENERGY PREDICTED BY IDOCK:   -4.55 KCAL/MOL
REMARK 923 INTER-LIGAND FREE ENERGY PREDICTED BY IDOCK:   -3.78 KCAL/MOL
REMARK 924 INTRA-LIGAND FREE ENERGY PREDICTED BY IDOCK:   -0.77 KCAL/MOL
REMARK 927      BINDING AFFINITY PREDICTED BY RF-SCORE:    0.00 PKD
ROOT
HETATM    1  C   UNL     1      -5.156   9.775  72.610  1.00  0.00    -0.041 C  
HETATM    2  C   UNL     1      -5.128  11.089  71.860  1.00  0.00     0.073 C  
ENDROOT
BRANCH   2   3
HETATM    3  O   UNL     1      -5.769  10.971  70.584  1.00  0.00    -0.120 OA 
BRANCH   3   4
HETATM    4  C   UNL     1      -5.286  12.006  69.718  1.00  0.00    -0.081 C  
BRANCH   4   5
HETATM    5  C   UNL     1      -5.996  12.064  68.357  1.00  0.00    -0.050 C  
BRANCH   5   6
HETATM    6  N   UNL     1      -7.305  12.748  68.263  1.00  0.00    -0.108 N  
HETATM    7 CL   UNL     1      -8.699  15.866  69.175  1.00  0.00    -0.246 Cl 
HETATM    8  C   UNL     1      -7.254  14.077  67.764  1.00  0.00    -0.165 C  
HETATM    9  C   UNL     1      -8.556  14.893  67.693  1.00  0.00    -0.174 C  
HETATM   10 CL   UNL     1      -8.544  15.959  66.265  1.00  0.00    -0.365 Cl 
HETATM   11  O   UNL     1      -6.180  14.585  67.416  1.00  0.00    -0.333 OA 
BRANCH   6  12
HETATM   12  C   UNL     1      -8.471  12.300  69.057  1.00  0.00     0.398 C  
BRANCH  12  13
HETATM   13  C   UNL     1      -9.184  11.033  68.653  1.00  0.00    -0.186 A  
HETATM   14  C   UNL     1     -10.480  10.752  69.110  1.00  0.00    -0.243 A  
HETATM   15  C   UNL     1     -11.071   9.513  68.844  1.00  0.00    -0.050 A  
HETATM   16  C   UNL     1     -10.398   8.547  68.088  1.00  0.00    -0.206 A  
HETATM   17  C   UNL     1      -8.537  10.082  67.846  1.00  0.00    -0.121 A  
HETATM   18  C   UNL     1      -9.132   8.841  67.581  1.00  0.00    -0.145 A  
BRANCH  16  19
HETATM   19  O   UNL     1     -11.034   7.326  68.006  1.00  0.00    -0.127 OA 
BRANCH  19  20
HETATM   20  C   UNL     1     -10.525   6.223  68.649  1.00  0.00    -0.231 A  
HETATM   21  C   UNL     1     -11.009   5.968  69.937  1.00  0.00    -0.458 A  
HETATM   22  C   UNL     1     -10.587   4.834  70.638  1.00  0.00     0.046 A  
HETATM   23  C   UNL     1      -9.674   3.955  70.038  1.00  0.00    -0.172 A  
HETATM   24  C   UNL     1      -9.217   4.188  68.733  1.00  0.00    -0.206 A  
HETATM   25  N   UNL     1      -9.200   2.779  70.775  1.00  0.00    -0.121 N  
HETATM   26  C   UNL     1      -9.661   5.311  68.036  1.00  0.00    -0.179 A  
HETATM   27  O   UNL     1      -9.677   2.569  71.897  1.00  0.00    -0.130 OA 
HETATM   28  O   UNL     1      -8.336   2.068  70.234  1.00  0.00    -0.041 OA 
ENDBRANCH  19  20
ENDBRANCH  16  19
ENDBRANCH  12  13
ENDBRANCH   6  12
ENDBRANCH   5   6
ENDBRANCH   4   5
ENDBRANCH   3   4
ENDBRANCH   2   3
TORSDOF 8
ENDMDL
MODEL      190
REMARK 921   NORMALIZED FREE ENERGY PREDICTED BY IDOCK:   -2.37 KCAL/MOL
REMARK 922        TOTAL FREE ENERGY PREDICTED BY IDOCK:   -4.42 KCAL/MOL
REMARK 923 INTER-LIGAND FREE ENERGY PREDICTED BY IDOCK:   -3.63 KCAL/MOL
REMARK 924 INTRA-LIGAND FREE ENERGY PREDICTED BY IDOCK:   -0.79 KCAL/MOL
REMARK 927      BINDING AFFINITY PREDICTED BY RF-SCORE:    0.00 PKD
ROOT
HETATM    1  C   UNL     1     -10.054   3.024  65.481  1.00  0.00     0.526 C  
HETATM    2  C   UNL     1      -8.727   3.635  65.081  1.00  0.00    -0.116 C  
ENDROOT
BRANCH   2   3
HETATM    3  O   UNL     1      -8.553   4.928  65.673  1.00  0.00    -0.123 OA 
BRANCH   3   4
HETATM    4  C   UNL     1      -7.842   4.786  66.910  1.00  0.00    -0.099 C  
BRANCH   4   5
HETATM    5  C   UNL     1      -8.531   5.459  68.107  1.00  0.00    -0.097 C  
BRANCH   5   6
HETATM    6  N   UNL     1      -8.162   5.033  69.475  1.00  0.00    -0.084 N  
HETATM    7 CL   UNL     1      -9.805   4.329  72.526  1.00  0.00    -0.199 Cl 
HETATM    8  C   UNL     1      -8.935   3.962  69.998  1.00  0.00    -0.100 C  
HETATM    9  C   UNL     1      -8.672   3.492  71.439  1.00  0.00    -0.085 C  
HETATM   10 CL   UNL     1      -8.896   1.728  71.568  1.00  0.00    -0.098 Cl 
HETATM   11  O   UNL     1      -9.824   3.428  69.321  1.00  0.00    -0.033 OA 
BRANCH   6  12
HETATM   12  C   UNL     1      -7.423   5.928  70.392  1.00  0.00    -0.089 C  
BRANCH  12  13
HETATM   13  C   UNL     1      -7.548   7.421  70.208  1.00  0.00    -0.088 A  
HETATM   14  C   UNL     1      -8.399   8.184  71.022  1.00  0.00    -0.129 A  
HETATM   15  C   UNL     1      -8.612   9.539  70.749  1.00  0.00    -0.096 A  
HETATM   16  C   UNL     1      -7.953  10.167  69.686  1.00  0.00    -0.173 A  
HETATM   17  C   UNL     1      -6.845   8.070  69.180  1.00  0.00    -0.052 A  
HETATM   18  C   UNL     1      -7.061   9.428  68.908  1.00  0.00    -0.068 A  
BRANCH  16  19
HETATM   19  O   UNL     1      -8.345  11.467  69.446  1.00  0.00     0.153 OA 
BRANCH  19  20
HETATM   20  C   UNL     1      -9.076  11.786  68.326  1.00  0.00    -0.187 A  
HETATM   21  C   UNL     1     -10.212  11.006  68.075  1.00  0.00    -0.201 A  
HETATM   22  C   UNL     1     -11.042  11.301  66.990  1.00  0.00    -0.356 A  
HETATM   23  C   UNL     1     -10.729  12.383  66.156  1.00  0.00    -0.260 A  
HETATM   24  C   UNL     1      -9.613  13.189  66.428  1.00  0.00    -0.259 A  
HETATM   25  N   UNL     1     -11.576  12.682  64.997  1.00  0.00    -0.330 N  
HETATM   26  C   UNL     1      -8.803  12.898  67.525  1.00  0.00    -0.192 A  
HETATM   27  O   UNL     1     -12.589  11.992  64.828  1.00  0.00    -0.412 OA 
HETATM   28  O   UNL     1     -11.219  13.604  64.244  1.00  0.00    -0.379 OA 
ENDBRANCH  19  20
ENDBRANCH  16  19
ENDBRANCH  12  13
ENDBRANCH   6  12
ENDBRANCH   5   6
ENDBRANCH   4   5
ENDBRANCH   3   4
ENDBRANCH   2   3
TORSDOF 8
ENDMDL
MODEL      191
REMARK 921   NORMALIZED FREE ENERGY PREDICTED BY IDOCK:   -2.26 KCAL/MOL
REMARK 922        TOTAL FREE ENERGY PREDICTED BY IDOCK:   -4.25 KCAL/MOL
REMARK 923 INTER-LIGAND FREE ENERGY PREDICTED BY IDOCK:   -5.24 KCAL/MOL
REMARK 924 INTRA-LIGAND FREE ENERGY PREDICTED BY IDOCK:    0.99 KCAL/MOL
REMARK 927      BINDING AFFINITY PREDICTED BY RF-SCORE:    0.00 PKD
ROOT
HETATM    1  C   UNL     1     -11.977   6.215  71.096  1.00  0.00    -0.014 C  
HETATM    2  C   UNL     1     -11.879   7.062  72.346  1.00  0.00    -0.176 C  
ENDROOT
BRANCH   2   3
HETATM    3  O   UNL     1     -10.927   6.518  73.268  1.00  0.00    -0.259 OA 
BRANCH   3   4
HETATM    4  C   UNL     1      -9.879   5.872  72.534  1.00  0.00    -0.161 C  
BRANCH   4   5
HETATM    5  C   UNL     1      -9.462   6.614  71.255  1.00  0.00    -0.162 C  
BRANCH   5   6
HETATM    6  N   UNL     1      -8.040   6.978  71.073  1.00  0.00    -0.104 N  
HETATM    7 CL   UNL     1      -5.983   9.813  71.558  1.00  0.00    -0.009 Cl 
HETATM    8  C   UNL     1      -7.440   7.630  72.184  1.00  0.00    -0.073 C  
HETATM    9  C   UNL     1      -5.983   8.107  72.064  1.00  0.00    -0.045 C  
HETATM   10 CL   UNL     1      -5.143   7.938  73.627  1.00  0.00    -0.041 Cl 
HETATM   11  O   UNL     1      -8.080   7.836  73.223  1.00  0.00    -0.121 OA 
BRANCH   6  12
HETATM   12  C   UNL     1      -7.442   7.111  69.726  1.00  0.00    -0.097 C  
BRANCH  12  13
HETATM   13  C   UNL     1      -8.139   7.974  68.702  1.00  0.00    -0.125 A  
HETATM   14  C   UNL     1      -8.133   9.373  68.806  1.00  0.00    -0.103 A  
HETATM   15  C   UNL     1      -8.900  10.151  67.933  1.00  0.00    -0.125 A  
HETATM   16  C   UNL     1      -9.657   9.553  66.920  1.00  0.00    -0.165 A  
HETATM   17  C   UNL     1      -8.853   7.384  67.646  1.00  0.00    -0.127 A  
HETATM   18  C   UNL     1      -9.622   8.166  66.774  1.00  0.00    -0.281 A  
BRANCH  16  19
HETATM   19  O   UNL     1     -10.465  10.417  66.211  1.00  0.00    -0.222 OA 
BRANCH  19  20
HETATM   20  C   UNL     1     -10.608  11.727  66.603  1.00  0.00    -0.240 A  
HETATM   21  C   UNL     1      -9.792  12.667  65.962  1.00  0.00    -0.260 A  
HETATM   22  C   UNL     1      -9.916  14.027  66.260  1.00  0.00    -0.317 A  
HETATM   23  C   UNL     1     -10.864  14.442  67.206  1.00  0.00    -0.290 A  
HETATM   24  C   UNL     1     -11.708  13.506  67.822  1.00  0.00    -0.394 A  
HETATM   25  N   UNL     1     -10.981  15.862  67.549  1.00  0.00    -0.310 N  
HETATM   26  C   UNL     1     -11.590  12.154  67.502  1.00  0.00    -0.413 A  
HETATM   27  O   UNL     1     -10.267  16.666  66.936  1.00  0.00    -0.280 OA 
HETATM   28  O   UNL     1     -11.782  16.176  68.446  1.00  0.00    -0.320 OA 
ENDBRANCH  19  20
ENDBRANCH  16  19
ENDBRANCH  12  13
ENDBRANCH   6  12
ENDBRANCH   5   6
ENDBRANCH   4   5
ENDBRANCH   3   4
ENDBRANCH   2   3
TORSDOF 8
ENDMDL
MODEL      192
REMARK 921   NORMALIZED FREE ENERGY PREDICTED BY IDOCK:   -2.14 KCAL/MOL
REMARK 922        TOTAL FREE ENERGY PREDICTED BY IDOCK:   -4.07 KCAL/MOL
REMARK 923 INTER-LIGAND FREE ENERGY PREDICTED BY IDOCK:   -3.78 KCAL/MOL
REMARK 924 INTRA-LIGAND FREE ENERGY PREDICTED BY IDOCK:   -0.29 KCAL/MOL
REMARK 927      BINDING AFFINITY PREDICTED BY RF-SCORE:    0.00 PKD
ROOT
HETATM    1  C   UNL     1     -11.452  16.195  64.558  1.00  0.00    -0.233 C  
HETATM    2  C   UNL     1     -12.138  14.846  64.596  1.00  0.00    -0.378 C  
ENDROOT
BRANCH   2   3
HETATM    3  O   UNL     1     -11.922  14.189  65.851  1.00  0.00    -0.376 OA 
BRANCH   3   4
HETATM    4  C   UNL     1     -11.253  15.090  66.743  1.00  0.00    -0.322 C  
BRANCH   4   5
HETATM    5  C   UNL     1      -9.720  14.998  66.691  1.00  0.00    -0.258 C  
BRANCH   5   6
HETATM    6  N   UNL     1      -8.977  14.743  67.945  1.00  0.00    -0.168 N  
HETATM    7 CL   UNL     1      -5.684  13.887  68.905  1.00  0.00    -0.080 Cl 
HETATM    8  C   UNL     1      -7.734  15.422  68.053  1.00  0.00    -0.125 C  
HETATM    9  C   UNL     1      -6.857  15.168  69.292  1.00  0.00    -0.153 C  
HETATM   10 CL   UNL     1      -5.997  16.657  69.760  1.00  0.00    -0.215 Cl 
HETATM   11  O   UNL     1      -7.344  16.185  67.160  1.00  0.00    -0.173 OA 
BRANCH   6  12
HETATM   12  C   UNL     1      -9.240  13.544  68.770  1.00  0.00     0.082 C  
BRANCH  12  13
HETATM   13  C   UNL     1      -8.689  12.214  68.317  1.00  0.00    -0.178 A  
HETATM   14  C   UNL     1      -8.498  11.934  66.955  1.00  0.00    -0.177 A  
HETATM   15  C   UNL     1      -8.122  10.652  66.543  1.00  0.00    -0.140 A  
HETATM   16  C   UNL     1      -7.894   9.637  67.479  1.00  0.00    -0.095 A  
HETATM   17  C   UNL     1      -8.402  11.209  69.254  1.00  0.00     0.099 A  
HETATM   18  C   UNL     1      -8.027   9.924  68.838  1.00  0.00    -0.096 A  
BRANCH  16  19
HETATM   19  O   UNL     1      -7.655   8.391  66.939  1.00  0.00    -0.089 OA 
BRANCH  19  20
HETATM   20  C   UNL     1      -7.662   7.268  67.733  1.00  0.00    -0.112 A  
HETATM   21  C   UNL     1      -8.912   6.703  68.011  1.00  0.00    -0.117 A  
HETATM   22  C   UNL     1      -9.003   5.528  68.761  1.00  0.00    -0.120 A  
HETATM   23  C   UNL     1      -7.831   4.918  69.232  1.00  0.00    -0.075 A  
HETATM   24  C   UNL     1      -6.576   5.461  68.923  1.00  0.00    -0.051 A  
HETATM   25  N   UNL     1      -7.917   3.702  70.047  1.00  0.00    -0.047 N  
HETATM   26  C   UNL     1      -6.496   6.623  68.156  1.00  0.00    -0.053 A  
HETATM   27  O   UNL     1      -9.037   3.215  70.242  1.00  0.00    -0.096 OA 
HETATM   28  O   UNL     1      -6.859   3.238  70.505  1.00  0.00    -0.032 OA 
ENDBRANCH  19  20
ENDBRANCH  16  19
ENDBRANCH  12  13
ENDBRANCH   6  12
ENDBRANCH   5   6
ENDBRANCH   4   5
ENDBRANCH   3   4
ENDBRANCH   2   3
TORSDOF 8
ENDMDL
MODEL      193
REMARK 921   NORMALIZED FREE ENERGY PREDICTED BY IDOCK:   -2.02 KCAL/MOL
REMARK 922        TOTAL FREE ENERGY PREDICTED BY IDOCK:   -3.90 KCAL/MOL
REMARK 923 INTER-LIGAND FREE ENERGY PREDICTED BY IDOCK:   -5.53 KCAL/MOL
REMARK 924 INTRA-LIGAND FREE ENERGY PREDICTED BY IDOCK:    1.64 KCAL/MOL
REMARK 927      BINDING AFFINITY PREDICTED BY RF-SCORE:    0.00 PKD
ROOT
HETATM    1  C   UNL     1      -5.173   9.018  67.844  1.00  0.00    -0.034 C  
HETATM    2  C   UNL     1      -6.581   8.698  67.389  1.00  0.00    -0.058 C  
ENDROOT
BRANCH   2   3
HETATM    3  O   UNL     1      -6.624   7.459  66.670  1.00  0.00    -0.050 OA 
BRANCH   3   4
HETATM    4  C   UNL     1      -7.980   7.176  66.304  1.00  0.00    -0.110 C  
BRANCH   4   5
HETATM    5  C   UNL     1      -8.978   8.276  66.700  1.00  0.00    -0.150 C  
BRANCH   5   6
HETATM    6  N   UNL     1      -9.462   8.331  68.097  1.00  0.00    -0.137 N  
HETATM    7 CL   UNL     1     -11.306   6.279  70.308  1.00  0.00    -0.450 Cl 
HETATM    8  C   UNL     1      -9.203   7.166  68.868  1.00  0.00    -0.137 C  
HETATM    9  C   UNL     1      -9.728   7.102  70.312  1.00  0.00    -0.175 C  
HETATM   10 CL   UNL     1      -8.583   6.216  71.351  1.00  0.00    -0.128 Cl 
HETATM   11  O   UNL     1      -8.590   6.206  68.384  1.00  0.00    -0.113 OA 
BRANCH   6  12
HETATM   12  C   UNL     1     -10.529   9.269  68.509  1.00  0.00    -0.206 C  
BRANCH  12  13
HETATM   13  C   UNL     1     -10.537  10.663  67.928  1.00  0.00    -0.266 A  
HETATM   14  C   UNL     1      -9.454  11.141  67.175  1.00  0.00    -0.187 A  
HETATM   15  C   UNL     1      -9.413  12.477  66.765  1.00  0.00    -0.231 A  
HETATM   16  C   UNL     1     -10.464  13.350  67.065  1.00  0.00    -0.257 A  
HETATM   17  C   UNL     1     -11.615  11.528  68.176  1.00  0.00    -0.378 A  
HETATM   18  C   UNL     1     -11.571  12.867  67.765  1.00  0.00    -0.391 A  
BRANCH  16  19
HETATM   19  O   UNL     1     -10.245  14.666  66.717  1.00  0.00    -0.261 OA 
BRANCH  19  20
HETATM   20  C   UNL     1      -9.168  15.357  67.222  1.00  0.00    -0.207 A  
HETATM   21  C   UNL     1      -8.304  15.942  66.288  1.00  0.00    -0.235 A  
HETATM   22  C   UNL     1      -7.218  16.710  66.718  1.00  0.00    -0.272 A  
HETATM   23  C   UNL     1      -7.002  16.890  68.091  1.00  0.00    -0.162 A  
HETATM   24  C   UNL     1      -7.888  16.337  69.027  1.00  0.00    -0.235 A  
HETATM   25  N   UNL     1      -5.848  17.668  68.554  1.00  0.00    -0.168 N  
HETATM   26  C   UNL     1      -8.980  15.590  68.587  1.00  0.00    -0.194 A  
HETATM   27  O   UNL     1      -5.127  18.197  67.699  1.00  0.00    -0.137 OA 
HETATM   28  O   UNL     1      -5.654  17.740  69.779  1.00  0.00    -0.202 OA 
ENDBRANCH  19  20
ENDBRANCH  16  19
ENDBRANCH  12  13
ENDBRANCH   6  12
ENDBRANCH   5   6
ENDBRANCH   4   5
ENDBRANCH   3   4
ENDBRANCH   2   3
TORSDOF 8
ENDMDL
MODEL      194
REMARK 921   NORMALIZED FREE ENERGY PREDICTED BY IDOCK:   -1.93 KCAL/MOL
REMARK 922        TOTAL FREE ENERGY PREDICTED BY IDOCK:   -3.77 KCAL/MOL
REMARK 923 INTER-LIGAND FREE ENERGY PREDICTED BY IDOCK:   -3.70 KCAL/MOL
REMARK 924 INTRA-LIGAND FREE ENERGY PREDICTED BY IDOCK:   -0.07 KCAL/MOL
REMARK 927      BINDING AFFINITY PREDICTED BY RF-SCORE:    0.00 PKD
ROOT
HETATM    1  C   UNL     1      -5.280  17.069  67.173  1.00  0.00    -0.178 C  
HETATM    2  C   UNL     1      -5.239  16.310  68.483  1.00  0.00    -0.102 C  
ENDROOT
BRANCH   2   3
HETATM    3  O   UNL     1      -6.150  16.871  69.435  1.00  0.00    -0.191 OA 
BRANCH   3   4
HETATM    4  C   UNL     1      -7.328  16.057  69.494  1.00  0.00    -0.146 C  
BRANCH   4   5
HETATM    5  C   UNL     1      -8.263  16.221  68.285  1.00  0.00    -0.173 C  
BRANCH   5   6
HETATM    6  N   UNL     1      -8.813  15.010  67.639  1.00  0.00    -0.174 N  
HETATM    7 CL   UNL     1     -10.364  11.991  68.631  1.00  0.00    -0.223 Cl 
HETATM    8  C   UNL     1     -10.103  14.622  68.090  1.00  0.00    -0.224 C  
HETATM    9  C   UNL     1     -10.731  13.337  67.525  1.00  0.00    -0.250 C  
HETATM   10 CL   UNL     1     -12.495  13.526  67.362  1.00  0.00    -0.103 Cl 
HETATM   11  O   UNL     1     -10.706  15.288  68.942  1.00  0.00    -0.229 OA 
BRANCH   6  12
HETATM   12  C   UNL     1      -7.936  14.023  66.970  1.00  0.00     0.055 C  
BRANCH  12  13
HETATM   13  C   UNL     1      -7.332  12.911  67.793  1.00  0.00    -0.134 A  
HETATM   14  C   UNL     1      -7.370  11.580  67.351  1.00  0.00    -0.123 A  
HETATM   15  C   UNL     1      -6.935  10.545  68.186  1.00  0.00    -0.073 A  
HETATM   16  C   UNL     1      -6.422  10.820  69.458  1.00  0.00    -0.089 A  
HETATM   17  C   UNL     1      -6.762  13.185  69.046  1.00  0.00    -0.103 A  
HETATM   18  C   UNL     1      -6.328  12.146  69.881  1.00  0.00    -0.074 A  
BRANCH  16  19
HETATM   19  O   UNL     1      -6.148   9.709  70.227  1.00  0.00    -0.049 OA 
BRANCH  19  20
HETATM   20  C   UNL     1      -6.915   8.572  70.119  1.00  0.00    -0.043 A  
HETATM   21  C   UNL     1      -8.210   8.637  70.646  1.00  0.00    -0.147 A  
HETATM   22  C   UNL     1      -9.075   7.545  70.526  1.00  0.00    -0.156 A  
HETATM   23  C   UNL     1      -8.635   6.386  69.872  1.00  0.00    -0.138 A  
HETATM   24  C   UNL     1      -7.351   6.333  69.310  1.00  0.00    -0.092 A  
HETATM   25  N   UNL     1      -9.522   5.224  69.768  1.00  0.00    -0.142 N  
HETATM   26  C   UNL     1      -6.504   7.436  69.417  1.00  0.00    -0.036 A  
HETATM   27  O   UNL     1     -10.671   5.331  70.216  1.00  0.00    -0.265 OA 
HETATM   28  O   UNL     1      -9.065   4.193  69.246  1.00  0.00    -0.103 OA 
ENDBRANCH  19  20
ENDBRANCH  16  19
ENDBRANCH  12  13
ENDBRANCH   6  12
ENDBRANCH   5   6
ENDBRANCH   4   5
ENDBRANCH   3   4
ENDBRANCH   2   3
TORSDOF 8
ENDMDL
MODEL      195
REMARK 921   NORMALIZED FREE ENERGY PREDICTED BY IDOCK:   -1.91 KCAL/MOL
REMARK 922        TOTAL FREE ENERGY PREDICTED BY IDOCK:   -3.73 KCAL/MOL
REMARK 923 INTER-LIGAND FREE ENERGY PREDICTED BY IDOCK:   -3.83 KCAL/MOL
REMARK 924 INTRA-LIGAND FREE ENERGY PREDICTED BY IDOCK:    0.09 KCAL/MOL
REMARK 927      BINDING AFFINITY PREDICTED BY RF-SCORE:    0.00 PKD
ROOT
HETATM    1  C   UNL     1      -5.130   9.759  72.503  1.00  0.00    -0.050 C  
HETATM    2  C   UNL     1      -5.190  11.011  71.655  1.00  0.00     0.054 C  
ENDROOT
BRANCH   2   3
HETATM    3  O   UNL     1      -5.790  10.746  70.381  1.00  0.00    -0.091 OA 
BRANCH   3   4
HETATM    4  C   UNL     1      -5.475  11.816  69.482  1.00  0.00    -0.066 C  
BRANCH   4   5
HETATM    5  C   UNL     1      -6.079  11.651  68.078  1.00  0.00    -0.047 C  
BRANCH   5   6
HETATM    6  N   UNL     1      -7.516  11.944  67.881  1.00  0.00    -0.105 N  
HETATM    7 CL   UNL     1      -9.828  14.448  68.821  1.00  0.00    -0.232 Cl 
HETATM    8  C   UNL     1      -7.807  13.274  67.474  1.00  0.00    -0.171 C  
HETATM    9  C   UNL     1      -9.277  13.693  67.307  1.00  0.00    -0.232 C  
HETATM   10 CL   UNL     1      -9.446  14.845  65.958  1.00  0.00    -0.332 Cl 
HETATM   11  O   UNL     1      -6.899  14.093  67.280  1.00  0.00    -0.226 OA 
BRANCH   6  12
HETATM   12  C   UNL     1      -8.568  11.116  68.510  1.00  0.00    -0.157 C  
BRANCH  12  13
HETATM   13  C   UNL     1      -8.965   9.818  67.850  1.00  0.00    -0.119 A  
HETATM   14  C   UNL     1     -10.305   9.406  67.809  1.00  0.00    -0.291 A  
HETATM   15  C   UNL     1     -10.640   8.138  67.322  1.00  0.00    -0.344 A  
HETATM   16  C   UNL     1      -9.653   7.275  66.834  1.00  0.00    -0.174 A  
HETATM   17  C   UNL     1      -7.986   8.972  67.305  1.00  0.00    -0.099 A  
HETATM   18  C   UNL     1      -8.325   7.701  66.819  1.00  0.00    -0.125 A  
BRANCH  16  19
HETATM   19  O   UNL     1     -10.097   6.012  66.503  1.00  0.00    -0.170 OA 
BRANCH  19  20
HETATM   20  C   UNL     1      -9.374   5.215  65.646  1.00  0.00    -0.138 A  
HETATM   21  C   UNL     1      -9.908   3.953  65.363  1.00  0.00    -0.167 A  
HETATM   22  C   UNL     1      -9.266   3.103  64.456  1.00  0.00    -0.139 A  
HETATM   23  C   UNL     1      -8.084   3.527  63.834  1.00  0.00    -0.089 A  
HETATM   24  C   UNL     1      -7.568   4.807  64.087  1.00  0.00    -0.072 A  
HETATM   25  N   UNL     1      -7.386   2.633  62.906  1.00  0.00    -0.047 N  
HETATM   26  C   UNL     1      -8.227   5.653  64.978  1.00  0.00    -0.137 A  
HETATM   27  O   UNL     1      -7.907   1.539  62.654  1.00  0.00    -0.048 OA 
HETATM   28  O   UNL     1      -6.303   3.021  62.434  1.00  0.00    -0.013 OA 
ENDBRANCH  19  20
ENDBRANCH  16  19
ENDBRANCH  12  13
ENDBRANCH   6  12
ENDBRANCH   5   6
ENDBRANCH   4   5
ENDBRANCH   3   4
ENDBRANCH   2   3
TORSDOF 8
ENDMDL
MODEL      196
REMARK 921   NORMALIZED FREE ENERGY PREDICTED BY IDOCK:   -1.72 KCAL/MOL
REMARK 922        TOTAL FREE ENERGY PREDICTED BY IDOCK:   -3.46 KCAL/MOL
REMARK 923 INTER-LIGAND FREE ENERGY PREDICTED BY IDOCK:   -3.96 KCAL/MOL
REMARK 924 INTRA-LIGAND FREE ENERGY PREDICTED BY IDOCK:    0.50 KCAL/MOL
REMARK 927      BINDING AFFINITY PREDICTED BY RF-SCORE:    0.00 PKD
ROOT
HETATM    1  C   UNL     1      -7.679   9.024  70.756  1.00  0.00    -0.144 C  
HETATM    2  C   UNL     1      -7.724  10.244  69.861  1.00  0.00    -0.126 C  
ENDROOT
BRANCH   2   3
HETATM    3  O   UNL     1      -6.465  10.458  69.212  1.00  0.00    -0.045 OA 
BRANCH   3   4
HETATM    4  C   UNL     1      -5.947  11.737  69.602  1.00  0.00    -0.112 C  
BRANCH   4   5
HETATM    5  C   UNL     1      -5.456  12.597  68.427  1.00  0.00    -0.058 C  
BRANCH   5   6
HETATM    6  N   UNL     1      -6.236  13.794  68.044  1.00  0.00    -0.126 N  
HETATM    7 CL   UNL     1      -8.566  15.989  69.548  1.00  0.00    -0.140 Cl 
HETATM    8  C   UNL     1      -6.179  14.869  68.972  1.00  0.00    -0.097 C  
HETATM    9  C   UNL     1      -7.011  16.133  68.694  1.00  0.00    -0.141 C  
HETATM   10 CL   UNL     1      -6.143  17.584  69.255  1.00  0.00    -0.220 Cl 
HETATM   11  O   UNL     1      -5.494  14.787  70.000  1.00  0.00    -0.100 OA 
BRANCH   6  12
HETATM   12  C   UNL     1      -7.348  13.716  67.071  1.00  0.00     0.380 C  
BRANCH  12  13
HETATM   13  C   UNL     1      -8.668  13.136  67.519  1.00  0.00    -0.201 A  
HETATM   14  C   UNL     1      -9.481  13.813  68.441  1.00  0.00    -0.198 A  
HETATM   15  C   UNL     1     -10.629  13.201  68.953  1.00  0.00    -0.159 A  
HETATM   16  C   UNL     1     -11.007  11.922  68.531  1.00  0.00    -0.235 A  
HETATM   17  C   UNL     1      -9.084  11.878  67.055  1.00  0.00    -0.191 A  
HETATM   18  C   UNL     1     -10.235  11.267  67.571  1.00  0.00    -0.217 A  
BRANCH  16  19
HETATM   19  O   UNL     1     -12.083  11.381  69.203  1.00  0.00    -0.324 OA 
BRANCH  19  20
HETATM   20  C   UNL     1     -11.991  10.145  69.798  1.00  0.00    -0.037 A  
HETATM   21  C   UNL     1     -12.910   9.869  70.817  1.00  0.00    -0.290 A  
HETATM   22  C   UNL     1     -12.923   8.614  71.434  1.00  0.00    -0.285 A  
HETATM   23  C   UNL     1     -12.008   7.635  71.021  1.00  0.00    -0.273 A  
HETATM   24  C   UNL     1     -11.113   7.896  69.974  1.00  0.00    -0.165 A  
HETATM   25  N   UNL     1     -11.992   6.326  71.682  1.00  0.00    -0.276 N  
HETATM   26  C   UNL     1     -11.123   9.144  69.353  1.00  0.00    -0.027 A  
HETATM   27  O   UNL     1     -12.841   6.108  72.555  1.00  0.00     0.042 OA 
HETATM   28  O   UNL     1     -11.117   5.515  71.335  1.00  0.00    -0.196 OA 
ENDBRANCH  19  20
ENDBRANCH  16  19
ENDBRANCH  12  13
ENDBRANCH   6  12
ENDBRANCH   5   6
ENDBRANCH   4   5
ENDBRANCH   3   4
ENDBRANCH   2   3
TORSDOF 8
ENDMDL
MODEL      197
REMARK 921   NORMALIZED FREE ENERGY PREDICTED BY IDOCK:   -1.46 KCAL/MOL
REMARK 922        TOTAL FREE ENERGY PREDICTED BY IDOCK:   -3.07 KCAL/MOL
REMARK 923 INTER-LIGAND FREE ENERGY PREDICTED BY IDOCK:   -2.67 KCAL/MOL
REMARK 924 INTRA-LIGAND FREE ENERGY PREDICTED BY IDOCK:   -0.40 KCAL/MOL
REMARK 927      BINDING AFFINITY PREDICTED BY RF-SCORE:    0.00 PKD
ROOT
HETATM    1  C   UNL     1      -5.348  10.962  72.539  1.00  0.00     0.528 C  
HETATM    2  C   UNL     1      -5.582  12.393  72.105  1.00  0.00     0.815 C  
ENDROOT
BRANCH   2   3
HETATM    3  O   UNL     1      -5.780  12.480  70.689  1.00  0.00    -0.172 OA 
BRANCH   3   4
HETATM    4  C   UNL     1      -5.128  13.656  70.194  1.00  0.00    -0.093 C  
BRANCH   4   5
HETATM    5  C   UNL     1      -5.289  13.871  68.681  1.00  0.00    -0.088 C  
BRANCH   5   6
HETATM    6  N   UNL     1      -6.582  14.372  68.165  1.00  0.00    -0.114 N  
HETATM    7 CL   UNL     1      -8.705  17.151  68.687  1.00  0.00    -0.271 Cl 
HETATM    8  C   UNL     1      -6.586  15.742  67.788  1.00  0.00    -0.159 C  
HETATM    9  C   UNL     1      -7.903  16.372  67.302  1.00  0.00    -0.166 C  
HETATM   10 CL   UNL     1      -7.583  17.577  66.029  1.00  0.00    -0.308 Cl 
HETATM   11  O   UNL     1      -5.560  16.428  67.870  1.00  0.00    -0.105 OA 
BRANCH   6  12
HETATM   12  C   UNL     1      -7.856  13.685  68.471  1.00  0.00    -0.131 C  
BRANCH  12  13
HETATM   13  C   UNL     1      -8.200  12.422  67.718  1.00  0.00    -0.163 A  
HETATM   14  C   UNL     1      -9.490  11.875  67.771  1.00  0.00    -0.184 A  
HETATM   15  C   UNL     1      -9.756  10.632  67.187  1.00  0.00    -0.199 A  
HETATM   16  C   UNL     1      -8.753   9.931  66.509  1.00  0.00    -0.128 A  
HETATM   17  C   UNL     1      -7.213  11.742  66.986  1.00  0.00    -0.134 A  
HETATM   18  C   UNL     1      -7.482  10.496  66.403  1.00  0.00    -0.133 A  
BRANCH  16  19
HETATM   19  O   UNL     1      -9.109   8.666  66.091  1.00  0.00    -0.174 OA 
BRANCH  19  20
HETATM   20  C   UNL     1      -9.244   7.639  66.994  1.00  0.00    -0.138 A  
HETATM   21  C   UNL     1      -9.030   6.343  66.509  1.00  0.00    -0.153 A  
HETATM   22  C   UNL     1      -9.091   5.247  67.374  1.00  0.00    -0.112 A  
HETATM   23  C   UNL     1      -9.367   5.457  68.733  1.00  0.00    -0.128 A  
HETATM   24  C   UNL     1      -9.544   6.757  69.229  1.00  0.00    -0.144 A  
HETATM   25  N   UNL     1      -9.464   4.312  69.644  1.00  0.00    -0.170 N  
HETATM   26  C   UNL     1      -9.461   7.844  68.360  1.00  0.00    -0.150 A  
HETATM   27  O   UNL     1      -9.235   3.186  69.184  1.00  0.00    -0.130 OA 
HETATM   28  O   UNL     1      -9.783   4.538  70.823  1.00  0.00    -0.168 OA 
ENDBRANCH  19  20
ENDBRANCH  16  19
ENDBRANCH  12  13
ENDBRANCH   6  12
ENDBRANCH   5   6
ENDBRANCH   4   5
ENDBRANCH   3   4
ENDBRANCH   2   3
TORSDOF 8
ENDMDL
MODEL      198
REMARK 921   NORMALIZED FREE ENERGY PREDICTED BY IDOCK:   -1.39 KCAL/MOL
REMARK 922        TOTAL FREE ENERGY PREDICTED BY IDOCK:   -2.98 KCAL/MOL
REMARK 923 INTER-LIGAND FREE ENERGY PREDICTED BY IDOCK:   -5.80 KCAL/MOL
REMARK 924 INTRA-LIGAND FREE ENERGY PREDICTED BY IDOCK:    2.82 KCAL/MOL
REMARK 927      BINDING AFFINITY PREDICTED BY RF-SCORE:    0.00 PKD
ROOT
HETATM    1  C   UNL     1     -11.305   6.983  69.529  1.00  0.00    -0.138 C  
HETATM    2  C   UNL     1     -11.405   8.068  70.580  1.00  0.00    -0.252 C  
ENDROOT
BRANCH   2   3
HETATM    3  O   UNL     1     -10.597   7.759  71.722  1.00  0.00    -0.210 OA 
BRANCH   3   4
HETATM    4  C   UNL     1      -9.559   6.852  71.332  1.00  0.00    -0.166 C  
BRANCH   4   5
HETATM    5  C   UNL     1      -9.062   7.054  69.892  1.00  0.00    -0.141 C  
BRANCH   5   6
HETATM    6  N   UNL     1      -7.843   7.861  69.664  1.00  0.00    -0.103 N  
HETATM    7 CL   UNL     1      -6.742  11.165  70.274  1.00  0.00     0.006 Cl 
HETATM    8  C   UNL     1      -7.391   8.597  70.792  1.00  0.00    -0.070 C  
HETATM    9  C   UNL     1      -6.170   9.519  70.634  1.00  0.00    -0.077 C  
HETATM   10 CL   UNL     1      -5.200   9.527  72.130  1.00  0.00    -0.076 Cl 
HETATM   11  O   UNL     1      -7.981   8.524  71.878  1.00  0.00    -0.130 OA 
BRANCH   6  12
HETATM   12  C   UNL     1      -7.423   8.261  68.303  1.00  0.00    -0.097 C  
BRANCH  12  13
HETATM   13  C   UNL     1      -8.335   9.149  67.492  1.00  0.00    -0.116 A  
HETATM   14  C   UNL     1      -8.183  10.544  67.499  1.00  0.00    -0.114 A  
HETATM   15  C   UNL     1      -9.120  11.361  66.859  1.00  0.00    -0.178 A  
HETATM   16  C   UNL     1     -10.202  10.803  66.169  1.00  0.00    -0.250 A  
HETATM   17  C   UNL     1      -9.389   8.594  66.749  1.00  0.00    -0.229 A  
HETATM   18  C   UNL     1     -10.327   9.415  66.108  1.00  0.00    -0.162 A  
BRANCH  16  19
HETATM   19  O   UNL     1     -11.119  11.715  65.691  1.00  0.00    -0.300 OA 
BRANCH  19  20
HETATM   20  C   UNL     1     -10.923  13.066  65.863  1.00  0.00    -0.271 A  
HETATM   21  C   UNL     1     -11.576  13.661  66.948  1.00  0.00    -0.397 A  
HETATM   22  C   UNL     1     -11.384  15.018  67.228  1.00  0.00    -0.337 A  
HETATM   23  C   UNL     1     -10.531  15.775  66.413  1.00  0.00    -0.303 A  
HETATM   24  C   UNL     1      -9.846  15.172  65.349  1.00  0.00    -0.309 A  
HETATM   25  N   UNL     1     -10.347  17.205  66.679  1.00  0.00    -0.323 N  
HETATM   26  C   UNL     1     -10.030  13.814  65.091  1.00  0.00    -0.240 A  
HETATM   27  O   UNL     1     -10.914  17.688  67.667  1.00  0.00    -0.296 OA 
HETATM   28  O   UNL     1      -9.641  17.853  65.888  1.00  0.00    -0.525 OA 
ENDBRANCH  19  20
ENDBRANCH  16  19
ENDBRANCH  12  13
ENDBRANCH   6  12
ENDBRANCH   5   6
ENDBRANCH   4   5
ENDBRANCH   3   4
ENDBRANCH   2   3
TORSDOF 8
ENDMDL
MODEL      199
REMARK 921   NORMALIZED FREE ENERGY PREDICTED BY IDOCK:   -1.37 KCAL/MOL
REMARK 922        TOTAL FREE ENERGY PREDICTED BY IDOCK:   -2.95 KCAL/MOL
REMARK 923 INTER-LIGAND FREE ENERGY PREDICTED BY IDOCK:   -2.82 KCAL/MOL
REMARK 924 INTRA-LIGAND FREE ENERGY PREDICTED BY IDOCK:   -0.12 KCAL/MOL
REMARK 927      BINDING AFFINITY PREDICTED BY RF-SCORE:    0.00 PKD
ROOT
HETATM    1  C   UNL     1     -12.856  15.887  70.001  1.00  0.00     0.396 C  
HETATM    2  C   UNL     1     -13.602  15.288  71.175  1.00  0.00    -0.469 C  
ENDROOT
BRANCH   2   3
HETATM    3  O   UNL     1     -14.181  14.024  70.830  1.00  0.00     0.352 OA 
BRANCH   3   4
HETATM    4  C   UNL     1     -13.984  13.106  71.912  1.00  0.00    -0.035 C  
BRANCH   4   5
HETATM    5  C   UNL     1     -12.551  12.561  72.016  1.00  0.00     0.161 C  
BRANCH   5   6
HETATM    6  N   UNL     1     -12.062  11.634  70.972  1.00  0.00    -0.226 N  
HETATM    7 CL   UNL     1     -12.209  11.350  67.451  1.00  0.00     0.478 Cl 
HETATM    8  C   UNL     1     -11.423  12.259  69.867  1.00  0.00    -0.114 C  
HETATM    9  C   UNL     1     -10.940  11.383  68.698  1.00  0.00    -0.220 C  
HETATM   10 CL   UNL     1      -9.431  12.039  68.013  1.00  0.00    -0.193 Cl 
HETATM   11  O   UNL     1     -11.278  13.488  69.827  1.00  0.00    -0.143 OA 
BRANCH   6  12
HETATM   12  C   UNL     1     -12.607  10.266  70.834  1.00  0.00    -0.371 C  
BRANCH  12  13
HETATM   13  C   UNL     1     -11.725   9.092  71.186  1.00  0.00    -0.380 A  
HETATM   14  C   UNL     1     -11.356   8.146  70.219  1.00  0.00    -0.132 A  
HETATM   15  C   UNL     1     -10.659   6.992  70.588  1.00  0.00    -0.246 A  
HETATM   16  C   UNL     1     -10.285   6.777  71.919  1.00  0.00    -0.189 A  
HETATM   17  C   UNL     1     -11.296   8.900  72.510  1.00  0.00    -0.011 A  
HETATM   18  C   UNL     1     -10.598   7.742  72.877  1.00  0.00    -0.428 A  
BRANCH  16  19
HETATM   19  O   UNL     1      -9.717   5.546  72.172  1.00  0.00    -0.155 OA 
BRANCH  19  20
HETATM   20  C   UNL     1      -9.001   4.889  71.199  1.00  0.00    -0.136 A  
HETATM   21  C   UNL     1      -9.693   3.927  70.453  1.00  0.00    -0.245 A  
HETATM   22  C   UNL     1      -9.055   3.255  69.407  1.00  0.00    -0.201 A  
HETATM   23  C   UNL     1      -7.717   3.552  69.111  1.00  0.00    -0.051 A  
HETATM   24  C   UNL     1      -7.034   4.542  69.833  1.00  0.00    -0.045 A  
HETATM   25  N   UNL     1      -7.028   2.831  68.036  1.00  0.00    -0.048 N  
HETATM   26  C   UNL     1      -7.686   5.221  70.861  1.00  0.00    -0.093 A  
HETATM   27  O   UNL     1      -7.683   2.013  67.377  1.00  0.00    -0.059 OA 
HETATM   28  O   UNL     1      -5.823   3.073  67.858  1.00  0.00    -0.022 OA 
ENDBRANCH  19  20
ENDBRANCH  16  19
ENDBRANCH  12  13
ENDBRANCH   6  12
ENDBRANCH   5   6
ENDBRANCH   4   5
ENDBRANCH   3   4
ENDBRANCH   2   3
TORSDOF 8
ENDMDL
MODEL      200
REMARK 921   NORMALIZED FREE ENERGY PREDICTED BY IDOCK:   -0.65 KCAL/MOL
REMARK 922        TOTAL FREE ENERGY PREDICTED BY IDOCK:   -1.89 KCAL/MOL
REMARK 923 INTER-LIGAND FREE ENERGY PREDICTED BY IDOCK:   -0.70 KCAL/MOL
REMARK 924 INTRA-LIGAND FREE ENERGY PREDICTED BY IDOCK:   -1.19 KCAL/MOL
REMARK 927      BINDING AFFINITY PREDICTED BY RF-SCORE:    0.00 PKD
ROOT
HETATM    1  C   UNL     1     -12.556  20.329  67.778  1.00  0.00     4.638 C  
HETATM    2  C   UNL     1     -11.119  19.931  67.517  1.00  0.00     0.094 C  
ENDROOT
BRANCH   2   3
HETATM    3  O   UNL     1     -11.013  18.532  67.229  1.00  0.00    -0.365 OA 
BRANCH   3   4
HETATM    4  C   UNL     1     -10.293  18.357  66.002  1.00  0.00    -0.375 C  
BRANCH   4   5
HETATM    5  C   UNL     1      -8.767  18.448  66.155  1.00  0.00    -0.104 C  
BRANCH   5   6
HETATM    6  N   UNL     1      -8.147  17.980  67.415  1.00  0.00    -0.221 N  
HETATM    7 CL   UNL     1      -5.128  18.479  69.187  1.00  0.00    -0.188 Cl 
HETATM    8  C   UNL     1      -7.596  19.005  68.229  1.00  0.00    -0.297 C  
HETATM    9  C   UNL     1      -6.870  18.611  69.527  1.00  0.00    -0.097 C  
HETATM   10 CL   UNL     1      -7.151  19.833  70.793  1.00  0.00     0.419 Cl 
HETATM   11  O   UNL     1      -7.672  20.195  67.894  1.00  0.00    -0.295 OA 
BRANCH   6  12
HETATM   12  C   UNL     1      -7.698  16.580  67.582  1.00  0.00    -0.149 C  
BRANCH  12  13
HETATM   13  C   UNL     1      -8.724  15.520  67.900  1.00  0.00    -0.163 A  
HETATM   14  C   UNL     1      -8.831  14.358  67.121  1.00  0.00    -0.244 A  
HETATM   15  C   UNL     1      -9.876  13.454  67.340  1.00  0.00    -0.227 A  
HETATM   16  C   UNL     1     -10.809  13.672  68.359  1.00  0.00    -0.256 A  
HETATM   17  C   UNL     1      -9.628  15.703  68.959  1.00  0.00    -0.243 A  
HETATM   18  C   UNL     1     -10.675  14.796  69.174  1.00  0.00    -0.258 A  
BRANCH  16  19
HETATM   19  O   UNL     1     -11.858  12.778  68.387  1.00  0.00    -0.314 OA 
BRANCH  19  20
HETATM   20  C   UNL     1     -11.762  11.603  69.096  1.00  0.00    -0.326 A  
HETATM   21  C   UNL     1     -11.489  10.445  68.359  1.00  0.00    -0.227 A  
HETATM   22  C   UNL     1     -11.318   9.220  69.010  1.00  0.00     0.246 A  
HETATM   23  C   UNL     1     -11.422   9.161  70.407  1.00  0.00    -0.194 A  
HETATM   24  C   UNL     1     -11.658  10.326  71.150  1.00  0.00    -0.385 A  
HETATM   25  N   UNL     1     -11.276   7.876  71.097  1.00  0.00    -0.256 N  
HETATM   26  C   UNL     1     -11.806  11.547  70.492  1.00  0.00    -0.363 A  
HETATM   27  O   UNL     1     -11.001   6.881  70.414  1.00  0.00    -0.247 OA 
HETATM   28  O   UNL     1     -11.449   7.858  72.327  1.00  0.00    -0.299 OA 
ENDBRANCH  19  20
ENDBRANCH  16  19
ENDBRANCH  12  13
ENDBRANCH   6  12
ENDBRANCH   5   6
ENDBRANCH   4   5
ENDBRANCH   3   4
ENDBRANCH   2   3
TORSDOF 8
ENDMDL
MODEL      201
REMARK 921   NORMALIZED FREE ENERGY PREDICTED BY IDOCK:   -0.55 KCAL/MOL
REMARK 922        TOTAL FREE ENERGY PREDICTED BY IDOCK:   -1.74 KCAL/MOL
REMARK 923 INTER-LIGAND FREE ENERGY PREDICTED BY IDOCK:   -1.95 KCAL/MOL
REMARK 924 INTRA-LIGAND FREE ENERGY PREDICTED BY IDOCK:    0.21 KCAL/MOL
REMARK 927      BINDING AFFINITY PREDICTED BY RF-SCORE:    0.00 PKD
ROOT
HETATM    1  C   UNL     1     -11.208  16.484  64.329  1.00  0.00     0.274 C  
HETATM    2  C   UNL     1     -11.730  15.150  63.838  1.00  0.00     0.291 C  
ENDROOT
BRANCH   2   3
HETATM    3  O   UNL     1     -11.450  14.106  64.778  1.00  0.00    -0.350 OA 
BRANCH   3   4
HETATM    4  C   UNL     1     -10.909  14.683  65.973  1.00  0.00    -0.318 C  
BRANCH   4   5
HETATM    5  C   UNL     1      -9.375  14.781  65.981  1.00  0.00    -0.214 C  
BRANCH   5   6
HETATM    6  N   UNL     1      -8.626  14.149  67.089  1.00  0.00    -0.218 N  
HETATM    7 CL   UNL     1      -5.345  12.975  67.693  1.00  0.00    -0.108 Cl 
HETATM    8  C   UNL     1      -7.364  14.737  67.372  1.00  0.00    -0.185 C  
HETATM    9  C   UNL     1      -6.481  14.108  68.463  1.00  0.00    -0.096 C  
HETATM   10 CL   UNL     1      -5.578  15.372  69.338  1.00  0.00    -0.098 Cl 
HETATM   11  O   UNL     1      -6.965  15.723  66.738  1.00  0.00    -0.218 OA 
BRANCH   6  12
HETATM   12  C   UNL     1      -8.911  12.764  67.526  1.00  0.00    -0.187 C  
BRANCH  12  13
HETATM   13  C   UNL     1      -8.017  11.649  67.039  1.00  0.00    -0.164 A  
HETATM   14  C   UNL     1      -7.509  11.645  65.731  1.00  0.00     0.726 A  
HETATM   15  C   UNL     1      -6.801  10.539  65.251  1.00  0.00    -0.050 A  
HETATM   16  C   UNL     1      -6.554   9.435  66.074  1.00  0.00    -0.073 A  
HETATM   17  C   UNL     1      -7.715  10.564  67.878  1.00  0.00    -0.092 A  
HETATM   18  C   UNL     1      -7.007   9.456  67.394  1.00  0.00    -0.085 A  
BRANCH  16  19
HETATM   19  O   UNL     1      -5.960   8.362  65.445  1.00  0.00    -0.044 OA 
BRANCH  19  20
HETATM   20  C   UNL     1      -6.573   7.131  65.423  1.00  0.00    -0.047 A  
HETATM   21  C   UNL     1      -7.682   6.997  64.580  1.00  0.00    -0.113 A  
HETATM   22  C   UNL     1      -8.328   5.764  64.455  1.00  0.00    -0.091 A  
HETATM   23  C   UNL     1      -7.854   4.662  65.181  1.00  0.00    -0.090 A  
HETATM   24  C   UNL     1      -6.719   4.784  65.996  1.00  0.00    -0.050 A  
HETATM   25  N   UNL     1      -8.542   3.371  65.082  1.00  0.00    -0.109 N  
HETATM   26  C   UNL     1      -6.071   6.014  66.098  1.00  0.00    -0.032 A  
HETATM   27  O   UNL     1      -9.497   3.283  64.300  1.00  0.00    -0.129 OA 
HETATM   28  O   UNL     1      -8.133   2.442  65.798  1.00  0.00    -0.081 OA 
ENDBRANCH  19  20
ENDBRANCH  16  19
ENDBRANCH  12  13
ENDBRANCH   6  12
ENDBRANCH   5   6
ENDBRANCH   4   5
ENDBRANCH   3   4
ENDBRANCH   2   3
TORSDOF 8
ENDMDL
MODEL      202
REMARK 921   NORMALIZED FREE ENERGY PREDICTED BY IDOCK:   -0.14 KCAL/MOL
REMARK 922        TOTAL FREE ENERGY PREDICTED BY IDOCK:   -1.14 KCAL/MOL
REMARK 923 INTER-LIGAND FREE ENERGY PREDICTED BY IDOCK:   -1.44 KCAL/MOL
REMARK 924 INTRA-LIGAND FREE ENERGY PREDICTED BY IDOCK:    0.31 KCAL/MOL
REMARK 927      BINDING AFFINITY PREDICTED BY RF-SCORE:    0.00 PKD
ROOT
HETATM    1  C   UNL     1     -13.585  15.790  69.647  1.00  0.00     2.079 C  
HETATM    2  C   UNL     1     -13.783  15.363  71.086  1.00  0.00    -0.417 C  
ENDROOT
BRANCH   2   3
HETATM    3  O   UNL     1     -14.206  13.997  71.167  1.00  0.00    -0.075 OA 
BRANCH   3   4
HETATM    4  C   UNL     1     -13.529  13.359  72.258  1.00  0.00    -0.586 C  
BRANCH   4   5
HETATM    5  C   UNL     1     -12.058  13.023  71.970  1.00  0.00     1.210 C  
BRANCH   5   6
HETATM    6  N   UNL     1     -11.703  12.434  70.660  1.00  0.00     0.069 N  
HETATM    7 CL   UNL     1     -12.362  13.065  67.244  1.00  0.00    -0.158 Cl 
HETATM    8  C   UNL     1     -11.253  13.366  69.686  1.00  0.00    -0.048 C  
HETATM    9  C   UNL     1     -10.924  12.858  68.272  1.00  0.00    -0.256 C  
HETATM   10 CL   UNL     1      -9.552  13.767  67.588  1.00  0.00    -0.214 Cl 
HETATM   11  O   UNL     1     -11.150  14.570  69.955  1.00  0.00    -0.220 OA 
BRANCH   6  12
HETATM   12  C   UNL     1     -12.223  11.116  70.238  1.00  0.00    -0.352 C  
BRANCH  12  13
HETATM   13  C   UNL     1     -11.262   9.958  70.117  1.00  0.00    -0.347 A  
HETATM   14  C   UNL     1     -11.117   9.258  68.910  1.00  0.00     0.042 A  
HETATM   15  C   UNL     1     -10.331   8.103  68.853  1.00  0.00    -0.225 A  
HETATM   16  C   UNL     1      -9.647   7.646  69.984  1.00  0.00    -0.164 A  
HETATM   17  C   UNL     1     -10.527   9.528  71.234  1.00  0.00    -0.320 A  
HETATM   18  C   UNL     1      -9.741   8.369  71.174  1.00  0.00    -0.236 A  
BRANCH  16  19
HETATM   19  O   UNL     1      -9.013   6.431  69.829  1.00  0.00    -0.140 OA 
BRANCH  19  20
HETATM   20  C   UNL     1      -8.881   5.860  68.585  1.00  0.00    -0.111 A  
HETATM   21  C   UNL     1      -7.785   6.273  67.818  1.00  0.00    -0.102 A  
HETATM   22  C   UNL     1      -7.546   5.699  66.565  1.00  0.00    -0.092 A  
HETATM   23  C   UNL     1      -8.413   4.707  66.085  1.00  0.00    -0.114 A  
HETATM   24  C   UNL     1      -9.489   4.265  66.868  1.00  0.00    -0.205 A  
HETATM   25  N   UNL     1      -8.189   4.121  64.760  1.00  0.00    -0.100 N  
HETATM   26  C   UNL     1      -9.706   4.830  68.125  1.00  0.00    -0.201 A  
HETATM   27  O   UNL     1      -7.191   4.486  64.127  1.00  0.00    -0.053 OA 
HETATM   28  O   UNL     1      -9.023   3.299  64.344  1.00  0.00    -0.110 OA 
ENDBRANCH  19  20
ENDBRANCH  16  19
ENDBRANCH  12  13
ENDBRANCH   6  12
ENDBRANCH   5   6
ENDBRANCH   4   5
ENDBRANCH   3   4
ENDBRANCH   2   3
TORSDOF 8
ENDMDL
MODEL      203
REMARK 921   NORMALIZED FREE ENERGY PREDICTED BY IDOCK:    0.13 KCAL/MOL
REMARK 922        TOTAL FREE ENERGY PREDICTED BY IDOCK:   -0.74 KCAL/MOL
REMARK 923 INTER-LIGAND FREE ENERGY PREDICTED BY IDOCK:   -1.38 KCAL/MOL
REMARK 924 INTRA-LIGAND FREE ENERGY PREDICTED BY IDOCK:    0.64 KCAL/MOL
REMARK 927      BINDING AFFINITY PREDICTED BY RF-SCORE:    0.00 PKD
ROOT
HETATM    1  C   UNL     1      -8.802  10.173  65.722  1.00  0.00    -0.177 C  
HETATM    2  C   UNL     1      -8.834   8.691  65.412  1.00  0.00    -0.155 C  
ENDROOT
BRANCH   2   3
HETATM    3  O   UNL     1      -7.983   7.957  66.301  1.00  0.00    -0.097 OA 
BRANCH   3   4
HETATM    4  C   UNL     1      -7.991   8.588  67.588  1.00  0.00    -0.107 C  
BRANCH   4   5
HETATM    5  C   UNL     1      -9.198   8.211  68.461  1.00  0.00    -0.136 C  
BRANCH   5   6
HETATM    6  N   UNL     1      -8.998   7.273  69.588  1.00  0.00    -0.141 N  
HETATM    7 CL   UNL     1      -9.846   3.937  70.394  1.00  0.00    -0.241 Cl 
HETATM    8  C   UNL     1      -8.536   5.981  69.218  1.00  0.00    -0.115 C  
HETATM    9  C   UNL     1      -8.362   4.915  70.313  1.00  0.00    -0.084 C  
HETATM   10 CL   UNL     1      -6.965   3.871  69.948  1.00  0.00    -0.041 Cl 
HETATM   11  O   UNL     1      -8.300   5.704  68.035  1.00  0.00    -0.101 OA 
BRANCH   6  12
HETATM   12  C   UNL     1      -9.672   7.473  70.890  1.00  0.00    -0.173 C  
BRANCH  12  13
HETATM   13  C   UNL     1     -10.667   8.600  71.028  1.00  0.00    -0.284 A  
HETATM   14  C   UNL     1     -11.978   8.359  71.465  1.00  0.00    -0.344 A  
HETATM   15  C   UNL     1     -12.927   9.387  71.453  1.00  0.00    -0.421 A  
HETATM   16  C   UNL     1     -12.578  10.678  71.043  1.00  0.00    -0.416 A  
HETATM   17  C   UNL     1     -10.308   9.910  70.674  1.00  0.00    -0.258 A  
HETATM   18  C   UNL     1     -11.261  10.938  70.662  1.00  0.00     0.058 A  
BRANCH  16  19
HETATM   19  O   UNL     1     -13.631  11.564  70.956  1.00  0.00     0.420 OA 
BRANCH  19  20
HETATM   20  C   UNL     1     -13.589  12.772  71.612  1.00  0.00     0.012 A  
HETATM   21  C   UNL     1     -12.642  12.898  72.635  1.00  0.00     0.812 A  
HETATM   22  C   UNL     1     -12.494  14.111  73.314  1.00  0.00     0.041 A  
HETATM   23  C   UNL     1     -13.302  15.201  72.960  1.00  0.00    -0.484 A  
HETATM   24  C   UNL     1     -14.224  15.089  71.909  1.00  0.00    -0.649 A  
HETATM   25  N   UNL     1     -13.177  16.469  73.685  1.00  0.00    -0.115 N  
HETATM   26  C   UNL     1     -14.349  13.879  71.226  1.00  0.00     0.323 A  
HETATM   27  O   UNL     1     -12.305  16.552  74.559  1.00  0.00    -0.710 OA 
HETATM   28  O   UNL     1     -13.963  17.384  73.388  1.00  0.00     2.200 OA 
ENDBRANCH  19  20
ENDBRANCH  16  19
ENDBRANCH  12  13
ENDBRANCH   6  12
ENDBRANCH   5   6
ENDBRANCH   4   5
ENDBRANCH   3   4
ENDBRANCH   2   3
TORSDOF 8
ENDMDL
MODEL      204
REMARK 921   NORMALIZED FREE ENERGY PREDICTED BY IDOCK:    0.50 KCAL/MOL
REMARK 922        TOTAL FREE ENERGY PREDICTED BY IDOCK:   -0.20 KCAL/MOL
REMARK 923 INTER-LIGAND FREE ENERGY PREDICTED BY IDOCK:   -0.74 KCAL/MOL
REMARK 924 INTRA-LIGAND FREE ENERGY PREDICTED BY IDOCK:    0.54 KCAL/MOL
REMARK 927      BINDING AFFINITY PREDICTED BY RF-SCORE:    0.00 PKD
ROOT
HETATM    1  C   UNL     1      -5.990  13.022  69.848  1.00  0.00    -0.136 C  
HETATM    2  C   UNL     1      -7.442  13.024  70.277  1.00  0.00     2.279 C  
ENDROOT
BRANCH   2   3
HETATM    3  O   UNL     1      -8.316  12.881  69.151  1.00  0.00     0.335 OA 
BRANCH   3   4
HETATM    4  C   UNL     1      -9.165  14.033  69.067  1.00  0.00     0.153 C  
BRANCH   4   5
HETATM    5  C   UNL     1     -10.532  13.755  68.424  1.00  0.00    -0.252 C  
BRANCH   5   6
HETATM    6  N   UNL     1     -10.629  12.718  67.372  1.00  0.00    -0.228 N  
HETATM    7 CL   UNL     1     -12.740  11.953  64.641  1.00  0.00    -0.028 Cl 
HETATM    8  C   UNL     1     -10.820  13.217  66.055  1.00  0.00    -0.272 C  
HETATM    9  C   UNL     1     -10.999  12.214  64.902  1.00  0.00    -0.309 C  
HETATM   10 CL   UNL     1     -10.248  12.840  63.412  1.00  0.00     0.035 Cl 
HETATM   11  O   UNL     1     -10.870  14.434  65.835  1.00  0.00    -0.292 OA 
BRANCH   6  12
HETATM   12  C   UNL     1     -10.990  11.320  67.693  1.00  0.00    -0.259 C  
BRANCH  12  13
HETATM   13  C   UNL     1      -9.886  10.303  67.854  1.00  0.00    -0.181 A  
HETATM   14  C   UNL     1     -10.174   8.935  67.980  1.00  0.00    -0.262 A  
HETATM   15  C   UNL     1      -9.154   8.022  68.269  1.00  0.00    -0.135 A  
HETATM   16  C   UNL     1      -7.828   8.448  68.401  1.00  0.00    -0.113 A  
HETATM   17  C   UNL     1      -8.546  10.716  67.928  1.00  0.00    -0.124 A  
HETATM   18  C   UNL     1      -7.527   9.799  68.219  1.00  0.00    -0.080 A  
BRANCH  16  19
HETATM   19  O   UNL     1      -6.943   7.474  68.811  1.00  0.00    -0.073 OA 
BRANCH  19  20
HETATM   20  C   UNL     1      -7.396   6.260  69.270  1.00  0.00    -0.092 A  
HETATM   21  C   UNL     1      -8.174   6.280  70.434  1.00  0.00    -0.121 A  
HETATM   22  C   UNL     1      -8.722   5.096  70.935  1.00  0.00    -0.142 A  
HETATM   23  C   UNL     1      -8.487   3.889  70.262  1.00  0.00    -0.060 A  
HETATM   24  C   UNL     1      -7.741   3.872  69.075  1.00  0.00    -0.053 A  
HETATM   25  N   UNL     1      -9.031   2.636  70.796  1.00  0.00    -0.084 N  
HETATM   26  C   UNL     1      -7.215   5.062  68.573  1.00  0.00    -0.062 A  
HETATM   27  O   UNL     1      -9.742   2.699  71.807  1.00  0.00    -0.137 OA 
HETATM   28  O   UNL     1      -8.737   1.582  70.209  1.00  0.00    -0.046 OA 
ENDBRANCH  19  20
ENDBRANCH  16  19
ENDBRANCH  12  13
ENDBRANCH   6  12
ENDBRANCH   5   6
ENDBRANCH   4   5
ENDBRANCH   3   4
ENDBRANCH   2   3
TORSDOF 8
ENDMDL
MODEL      205
REMARK 921   NORMALIZED FREE ENERGY PREDICTED BY IDOCK:    0.86 KCAL/MOL
REMARK 922        TOTAL FREE ENERGY PREDICTED BY IDOCK:    0.33 KCAL/MOL
REMARK 923 INTER-LIGAND FREE ENERGY PREDICTED BY IDOCK:   -0.16 KCAL/MOL
REMARK 924 INTRA-LIGAND FREE ENERGY PREDICTED BY IDOCK:    0.49 KCAL/MOL
REMARK 927      BINDING AFFINITY PREDICTED BY RF-SCORE:    0.00 PKD
ROOT
HETATM    1  C   UNL     1      -5.995  13.019  69.863  1.00  0.00    -0.136 C  
HETATM    2  C   UNL     1      -7.443  13.002  70.304  1.00  0.00     2.279 C  
ENDROOT
BRANCH   2   3
HETATM    3  O   UNL     1      -8.326  12.883  69.182  1.00  0.00     0.335 OA 
BRANCH   3   4
HETATM    4  C   UNL     1      -9.191  14.024  69.141  1.00  0.00     0.279 C  
BRANCH   4   5
HETATM    5  C   UNL     1     -10.551  13.754  68.479  1.00  0.00    -0.253 C  
BRANCH   5   6
HETATM    6  N   UNL     1     -10.624  12.777  67.370  1.00  0.00    -0.228 N  
HETATM    7 CL   UNL     1     -12.741  12.094  64.622  1.00  0.00    -0.319 Cl 
HETATM    8  C   UNL     1     -10.850  13.343  66.087  1.00  0.00    -0.281 C  
HETATM    9  C   UNL     1     -11.007  12.403  64.880  1.00  0.00    -0.302 C  
HETATM   10 CL   UNL     1     -10.298  13.141  63.420  1.00  0.00     0.593 Cl 
HETATM   11  O   UNL     1     -10.945  14.569  65.939  1.00  0.00    -0.307 OA 
BRANCH   6  12
HETATM   12  C   UNL     1     -10.931  11.351  67.614  1.00  0.00    -0.250 C  
BRANCH  12  13
HETATM   13  C   UNL     1      -9.789  10.369  67.721  1.00  0.00    -0.193 A  
HETATM   14  C   UNL     1      -9.670   9.294  66.827  1.00  0.00    -0.260 A  
HETATM   15  C   UNL     1      -8.691   8.315  67.024  1.00  0.00    -0.132 A  
HETATM   16  C   UNL     1      -7.791   8.408  68.091  1.00  0.00    -0.111 A  
HETATM   17  C   UNL     1      -8.846  10.488  68.754  1.00  0.00    -0.158 A  
HETATM   18  C   UNL     1      -7.866   9.505  68.950  1.00  0.00    -0.080 A  
BRANCH  16  19
HETATM   19  O   UNL     1      -6.962   7.318  68.249  1.00  0.00    -0.071 OA 
BRANCH  19  20
HETATM   20  C   UNL     1      -7.097   6.209  67.447  1.00  0.00    -0.070 A  
HETATM   21  C   UNL     1      -6.113   6.016  66.470  1.00  0.00    -0.032 A  
HETATM   22  C   UNL     1      -6.145   4.883  65.652  1.00  0.00    -0.030 A  
HETATM   23  C   UNL     1      -7.170   3.942  65.819  1.00  0.00    -0.071 A  
HETATM   24  C   UNL     1      -8.135   4.113  66.822  1.00  0.00    -0.101 A  
HETATM   25  N   UNL     1      -7.231   2.765  64.946  1.00  0.00    -0.060 N  
HETATM   26  C   UNL     1      -8.082   5.237  67.646  1.00  0.00    -0.100 A  
HETATM   27  O   UNL     1      -6.324   2.612  64.117  1.00  0.00    -0.021 OA 
HETATM   28  O   UNL     1      -8.198   1.996  65.080  1.00  0.00    -0.078 OA 
ENDBRANCH  19  20
ENDBRANCH  16  19
ENDBRANCH  12  13
ENDBRANCH   6  12
ENDBRANCH   5   6
ENDBRANCH   4   5
ENDBRANCH   3   4
ENDBRANCH   2   3
TORSDOF 8
ENDMDL
MODEL      206
REMARK 921   NORMALIZED FREE ENERGY PREDICTED BY IDOCK:    1.26 KCAL/MOL
REMARK 922        TOTAL FREE ENERGY PREDICTED BY IDOCK:    0.92 KCAL/MOL
REMARK 923 INTER-LIGAND FREE ENERGY PREDICTED BY IDOCK:   -0.12 KCAL/MOL
REMARK 924 INTRA-LIGAND FREE ENERGY PREDICTED BY IDOCK:    1.04 KCAL/MOL
REMARK 927      BINDING AFFINITY PREDICTED BY RF-SCORE:    0.00 PKD
ROOT
HETATM    1  C   UNL     1     -14.030  15.773  69.747  1.00  0.00     2.795 C  
HETATM    2  C   UNL     1     -13.715  15.837  71.227  1.00  0.00     0.029 C  
ENDROOT
BRANCH   2   3
HETATM    3  O   UNL     1     -14.313  14.742  71.931  1.00  0.00    -0.472 OA 
BRANCH   3   4
HETATM    4  C   UNL     1     -13.560  14.483  73.123  1.00  0.00     0.007 C  
BRANCH   4   5
HETATM    5  C   UNL     1     -12.294  13.643  72.893  1.00  0.00     0.679 C  
BRANCH   5   6
HETATM    6  N   UNL     1     -11.870  13.357  71.505  1.00  0.00     0.627 N  
HETATM    7 CL   UNL     1     -11.814  15.028  68.390  1.00  0.00    -0.328 Cl 
HETATM    8  C   UNL     1     -11.076  14.368  70.900  1.00  0.00     0.378 C  
HETATM    9  C   UNL     1     -10.642  14.191  69.435  1.00  0.00    -0.036 C  
HETATM   10 CL   UNL     1      -9.013  14.868  69.183  1.00  0.00    -0.173 Cl 
HETATM   11  O   UNL     1     -10.757  15.387  71.526  1.00  0.00    -0.121 OA 
BRANCH   6  12
HETATM   12  C   UNL     1     -12.592  12.379  70.661  1.00  0.00    -0.153 C  
BRANCH  12  13
HETATM   13  C   UNL     1     -11.939  11.050  70.367  1.00  0.00    -0.459 A  
HETATM   14  C   UNL     1     -11.353  10.790  69.120  1.00  0.00    -0.348 A  
HETATM   15  C   UNL     1     -10.880   9.509  68.814  1.00  0.00    -0.173 A  
HETATM   16  C   UNL     1     -10.948   8.477  69.756  1.00  0.00    -0.127 A  
HETATM   17  C   UNL     1     -11.952  10.026  71.329  1.00  0.00    -0.483 A  
HETATM   18  C   UNL     1     -11.478   8.744  71.019  1.00  0.00    -0.337 A  
BRANCH  16  19
HETATM   19  O   UNL     1     -10.567   7.237  69.289  1.00  0.00    -0.218 OA 
BRANCH  19  20
HETATM   20  C   UNL     1      -9.902   6.352  70.104  1.00  0.00    -0.167 A  
HETATM   21  C   UNL     1     -10.620   5.229  70.530  1.00  0.00    -0.272 A  
HETATM   22  C   UNL     1     -10.000   4.251  71.313  1.00  0.00    -0.230 A  
HETATM   23  C   UNL     1      -8.652   4.405  71.668  1.00  0.00    -0.113 A  
HETATM   24  C   UNL     1      -7.920   5.511  71.212  1.00  0.00    -0.111 A  
HETATM   25  N   UNL     1      -8.001   3.402  72.516  1.00  0.00    -0.067 N  
HETATM   26  C   UNL     1      -8.544   6.470  70.413  1.00  0.00    -0.146 A  
HETATM   27  O   UNL     1      -8.658   2.406  72.843  1.00  0.00    -0.068 OA 
HETATM   28  O   UNL     1      -6.828   3.616  72.867  1.00  0.00    -0.036 OA 
ENDBRANCH  19  20
ENDBRANCH  16  19
ENDBRANCH  12  13
ENDBRANCH   6  12
ENDBRANCH   5   6
ENDBRANCH   4   5
ENDBRANCH   3   4
ENDBRANCH   2   3
TORSDOF 8
ENDMDL
MODEL      207
REMARK 921   NORMALIZED FREE ENERGY PREDICTED BY IDOCK:    2.89 KCAL/MOL
REMARK 922        TOTAL FREE ENERGY PREDICTED BY IDOCK:    3.31 KCAL/MOL
REMARK 923 INTER-LIGAND FREE ENERGY PREDICTED BY IDOCK:   -3.44 KCAL/MOL
REMARK 924 INTRA-LIGAND FREE ENERGY PREDICTED BY IDOCK:    6.76 KCAL/MOL
REMARK 927      BINDING AFFINITY PREDICTED BY RF-SCORE:    0.00 PKD
ROOT
HETATM    1  C   UNL     1     -11.713   7.627  70.037  1.00  0.00     0.170 C  
HETATM    2  C   UNL     1     -10.218   7.856  70.118  1.00  0.00    -0.202 C  
ENDROOT
BRANCH   2   3
HETATM    3  O   UNL     1      -9.860   8.506  71.344  1.00  0.00    -0.189 OA 
BRANCH   3   4
HETATM    4  C   UNL     1      -8.445   8.731  71.360  1.00  0.00    -0.188 C  
BRANCH   4   5
HETATM    5  C   UNL     1      -7.749   8.431  70.023  1.00  0.00    -0.090 C  
BRANCH   5   6
HETATM    6  N   UNL     1      -8.580   8.116  68.840  1.00  0.00    -0.130 N  
HETATM    7 CL   UNL     1      -8.289   8.279  65.320  1.00  0.00    -0.163 Cl 
HETATM    8  C   UNL     1      -7.926   7.359  67.832  1.00  0.00    -0.119 C  
HETATM    9  C   UNL     1      -8.687   7.039  66.534  1.00  0.00    -0.134 C  
HETATM   10 CL   UNL     1      -8.232   5.427  65.927  1.00  0.00    -0.115 Cl 
HETATM   11  O   UNL     1      -6.755   6.984  67.976  1.00  0.00    -0.059 OA 
BRANCH   6  12
HETATM   12  C   UNL     1      -9.784   8.909  68.507  1.00  0.00    -0.161 C  
BRANCH  12  13
HETATM   13  C   UNL     1      -9.684  10.415  68.502  1.00  0.00    -0.174 A  
HETATM   14  C   UNL     1      -8.557  11.069  69.022  1.00  0.00    -0.076 A  
HETATM   15  C   UNL     1      -8.540  12.463  69.140  1.00  0.00     0.634 A  
HETATM   16  C   UNL     1      -9.627  13.231  68.709  1.00  0.00     0.066 A  
HETATM   17  C   UNL     1     -10.747  11.194  68.016  1.00  0.00    -0.254 A  
HETATM   18  C   UNL     1     -10.727  12.591  68.136  1.00  0.00    -0.246 A  
BRANCH  16  19
HETATM   19  O   UNL     1      -9.539  14.576  68.996  1.00  0.00    -0.189 OA 
BRANCH  19  20
HETATM   20  C   UNL     1      -8.962  15.450  68.104  1.00  0.00    -0.176 A  
HETATM   21  C   UNL     1      -9.711  16.582  67.762  1.00  0.00    -0.235 A  
HETATM   22  C   UNL     1      -9.174  17.549  66.907  1.00  0.00    -0.273 A  
HETATM   23  C   UNL     1      -7.880  17.376  66.396  1.00  0.00    -0.302 A  
HETATM   24  C   UNL     1      -7.114  16.261  66.768  1.00  0.00    -0.200 A  
HETATM   25  N   UNL     1      -7.319  18.368  65.474  1.00  0.00    -0.038 N  
HETATM   26  C   UNL     1      -7.652  15.313  67.638  1.00  0.00    -0.193 A  
HETATM   27  O   UNL     1      -7.997  19.372  65.222  1.00  0.00    -0.169 OA 
HETATM   28  O   UNL     1      -6.199  18.136  64.988  1.00  0.00    -0.242 OA 
ENDBRANCH  19  20
ENDBRANCH  16  19
ENDBRANCH  12  13
ENDBRANCH   6  12
ENDBRANCH   5   6
ENDBRANCH   4   5
ENDBRANCH   3   4
ENDBRANCH   2   3
TORSDOF 8
ENDMDL
MODEL      208
REMARK 921   NORMALIZED FREE ENERGY PREDICTED BY IDOCK:    3.20 KCAL/MOL
REMARK 922        TOTAL FREE ENERGY PREDICTED BY IDOCK:    3.76 KCAL/MOL
REMARK 923 INTER-LIGAND FREE ENERGY PREDICTED BY IDOCK:    4.86 KCAL/MOL
REMARK 924 INTRA-LIGAND FREE ENERGY PREDICTED BY IDOCK:   -1.10 KCAL/MOL
REMARK 927      BINDING AFFINITY PREDICTED BY RF-SCORE:    0.00 PKD
ROOT
HETATM    1  C   UNL     1     -11.078  21.070  67.456  1.00  0.00     2.634 C  
HETATM    2  C   UNL     1      -9.700  20.647  67.921  1.00  0.00    -0.138 C  
ENDROOT
BRANCH   2   3
HETATM    3  O   UNL     1      -9.580  19.220  67.953  1.00  0.00    -0.309 OA 
BRANCH   3   4
HETATM    4  C   UNL     1      -8.427  18.829  67.197  1.00  0.00    -0.272 C  
BRANCH   4   5
HETATM    5  C   UNL     1      -7.102  18.967  67.962  1.00  0.00    -0.238 C  
BRANCH   5   6
HETATM    6  N   UNL     1      -7.038  18.508  69.367  1.00  0.00    -0.141 N  
HETATM    7 CL   UNL     1      -5.149  19.225  72.268  1.00  0.00     0.203 Cl 
HETATM    8  C   UNL     1      -7.004  19.547  70.336  1.00  0.00     0.357 C  
HETATM    9  C   UNL     1      -6.870  19.171  71.821  1.00  0.00     2.383 C  
HETATM   10 CL   UNL     1      -7.798  20.305  72.836  1.00  0.00     2.752 Cl 
HETATM   11  O   UNL     1      -7.055  20.736  69.996  1.00  0.00     0.458 OA 
BRANCH   6  12
HETATM   12  C   UNL     1      -6.558  17.154  69.718  1.00  0.00    -0.004 C  
BRANCH  12  13
HETATM   13  C   UNL     1      -7.394  15.960  69.323  1.00  0.00    -0.221 A  
HETATM   14  C   UNL     1      -6.863  14.934  68.528  1.00  0.00    -0.106 A  
HETATM   15  C   UNL     1      -7.688  13.909  68.054  1.00  0.00    -0.151 A  
HETATM   16  C   UNL     1      -9.045  13.867  68.393  1.00  0.00    -0.184 A  
HETATM   17  C   UNL     1      -8.743  15.882  69.708  1.00  0.00     0.198 A  
HETATM   18  C   UNL     1      -9.567  14.854  69.230  1.00  0.00    -0.131 A  
BRANCH  16  19
HETATM   19  O   UNL     1      -9.772  12.882  67.760  1.00  0.00    -0.202 OA 
BRANCH  19  20
HETATM   20  C   UNL     1     -10.018  11.680  68.382  1.00  0.00    -0.201 A  
HETATM   21  C   UNL     1      -9.063  10.672  68.199  1.00  0.00    -0.148 A  
HETATM   22  C   UNL     1      -9.207   9.440  68.844  1.00  0.00    -0.140 A  
HETATM   23  C   UNL     1     -10.316   9.223  69.675  1.00  0.00    -0.217 A  
HETATM   24  C   UNL     1     -11.253  10.244  69.889  1.00  0.00    -0.360 A  
HETATM   25  N   UNL     1     -10.493   7.924  70.331  1.00  0.00    -0.214 N  
HETATM   26  C   UNL     1     -11.088  11.476  69.257  1.00  0.00    -0.305 A  
HETATM   27  O   UNL     1      -9.611   7.070  70.173  1.00  0.00    -0.165 OA 
HETATM   28  O   UNL     1     -11.527   7.750  70.998  1.00  0.00    -0.275 OA 
ENDBRANCH  19  20
ENDBRANCH  16  19
ENDBRANCH  12  13
ENDBRANCH   6  12
ENDBRANCH   5   6
ENDBRANCH   4   5
ENDBRANCH   3   4
ENDBRANCH   2   3
TORSDOF 8
ENDMDL
MODEL      209
REMARK 921   NORMALIZED FREE ENERGY PREDICTED BY IDOCK:    4.71 KCAL/MOL
REMARK 922        TOTAL FREE ENERGY PREDICTED BY IDOCK:    5.98 KCAL/MOL
REMARK 923 INTER-LIGAND FREE ENERGY PREDICTED BY IDOCK:    4.92 KCAL/MOL
REMARK 924 INTRA-LIGAND FREE ENERGY PREDICTED BY IDOCK:    1.06 KCAL/MOL
REMARK 927      BINDING AFFINITY PREDICTED BY RF-SCORE:    0.00 PKD
ROOT
HETATM    1  C   UNL     1      -9.076  14.503  71.006  1.00  0.00     3.517 C  
HETATM    2  C   UNL     1      -7.586  14.688  71.199  1.00  0.00     2.377 C  
ENDROOT
BRANCH   2   3
HETATM    3  O   UNL     1      -7.011  15.431  70.117  1.00  0.00    -0.084 OA 
BRANCH   3   4
HETATM    4  C   UNL     1      -6.583  14.520  69.097  1.00  0.00    -0.111 C  
BRANCH   4   5
HETATM    5  C   UNL     1      -7.660  13.510  68.669  1.00  0.00    -0.108 C  
BRANCH   5   6
HETATM    6  N   UNL     1      -8.338  13.699  67.368  1.00  0.00    -0.184 N  
HETATM    7 CL   UNL     1     -11.559  14.577  66.201  1.00  0.00    -0.368 Cl 
HETATM    8  C   UNL     1      -9.095  14.897  67.254  1.00  0.00    -0.201 C  
HETATM    9  C   UNL     1      -9.891  15.150  65.963  1.00  0.00    -0.320 C  
HETATM   10 CL   UNL     1      -9.897  16.888  65.567  1.00  0.00    -0.045 Cl 
HETATM   11  O   UNL     1      -9.138  15.713  68.184  1.00  0.00    -0.179 OA 
BRANCH   6  12
HETATM   12  C   UNL     1      -8.620  12.559  66.469  1.00  0.00     0.028 C  
BRANCH  12  13
HETATM   13  C   UNL     1      -9.587  11.494  66.925  1.00  0.00    -0.203 A  
HETATM   14  C   UNL     1      -9.648  11.097  68.270  1.00  0.00    -0.185 A  
HETATM   15  C   UNL     1     -10.446  10.014  68.652  1.00  0.00    -0.228 A  
HETATM   16  C   UNL     1     -11.224   9.331  67.711  1.00  0.00     0.375 A  
HETATM   17  C   UNL     1     -10.415  10.843  65.996  1.00  0.00    -0.287 A  
HETATM   18  C   UNL     1     -11.212   9.756  66.382  1.00  0.00     0.844 A  
BRANCH  16  19
HETATM   19  O   UNL     1     -11.863   8.208  68.191  1.00  0.00     1.787 OA 
BRANCH  19  20
HETATM   20  C   UNL     1     -11.408   7.568  69.320  1.00  0.00     0.286 A  
HETATM   21  C   UNL     1     -10.732   6.358  69.127  1.00  0.00    -0.339 A  
HETATM   22  C   UNL     1     -10.187   5.673  70.217  1.00  0.00    -0.311 A  
HETATM   23  C   UNL     1     -10.323   6.209  71.505  1.00  0.00    -0.209 A  
HETATM   24  C   UNL     1     -10.967   7.440  71.697  1.00  0.00    -0.252 A  
HETATM   25  N   UNL     1      -9.783   5.485  72.659  1.00  0.00    -0.150 N  
HETATM   26  C   UNL     1     -11.489   8.125  70.600  1.00  0.00    -0.237 A  
HETATM   27  O   UNL     1      -9.162   4.436  72.445  1.00  0.00    -0.118 OA 
HETATM   28  O   UNL     1      -9.991   5.959  73.789  1.00  0.00    -0.173 OA 
ENDBRANCH  19  20
ENDBRANCH  16  19
ENDBRANCH  12  13
ENDBRANCH   6  12
ENDBRANCH   5   6
ENDBRANCH   4   5
ENDBRANCH   3   4
ENDBRANCH   2   3
TORSDOF 8
ENDMDL
MODEL      210
REMARK 921   NORMALIZED FREE ENERGY PREDICTED BY IDOCK:    8.92 KCAL/MOL
REMARK 922        TOTAL FREE ENERGY PREDICTED BY IDOCK:   12.15 KCAL/MOL
REMARK 923 INTER-LIGAND FREE ENERGY PREDICTED BY IDOCK:    3.08 KCAL/MOL
REMARK 924 INTRA-LIGAND FREE ENERGY PREDICTED BY IDOCK:    9.07 KCAL/MOL
REMARK 927      BINDING AFFINITY PREDICTED BY RF-SCORE:    0.00 PKD
ROOT
HETATM    1  C   UNL     1      -8.851   9.699  71.480  1.00  0.00     1.037 C  
HETATM    2  C   UNL     1      -8.356   9.899  70.063  1.00  0.00    -0.168 C  
ENDROOT
BRANCH   2   3
HETATM    3  O   UNL     1      -6.924   9.865  70.005  1.00  0.00    -0.084 OA 
BRANCH   3   4
HETATM    4  C   UNL     1      -6.428  11.201  69.860  1.00  0.00    -0.142 C  
BRANCH   4   5
HETATM    5  C   UNL     1      -6.134  11.604  68.406  1.00  0.00    -0.049 C  
BRANCH   5   6
HETATM    6  N   UNL     1      -7.182  11.396  67.382  1.00  0.00    -0.107 N  
HETATM    7 CL   UNL     1     -10.682  11.809  67.101  1.00  0.00    -0.265 Cl 
HETATM    8  C   UNL     1      -8.072  12.489  67.205  1.00  0.00    -0.179 C  
HETATM    9  C   UNL     1      -9.236  12.342  66.210  1.00  0.00    -0.150 C  
HETATM   10 CL   UNL     1      -9.561  13.896  65.400  1.00  0.00    -0.061 Cl 
HETATM   11  O   UNL     1      -7.936  13.534  67.856  1.00  0.00    -0.132 OA 
BRANCH   6  12
HETATM   12  C   UNL     1      -7.579  10.040  66.946  1.00  0.00    -0.096 C  
BRANCH  12  13
HETATM   13  C   UNL     1      -8.795   9.401  67.572  1.00  0.00    -0.123 A  
HETATM   14  C   UNL     1      -9.746  10.170  68.259  1.00  0.00    -0.154 A  
HETATM   15  C   UNL     1     -10.789   9.550  68.954  1.00  0.00    -0.177 A  
HETATM   16  C   UNL     1     -10.926   8.158  68.946  1.00  0.00     0.154 A  
HETATM   17  C   UNL     1      -8.971   8.009  67.520  1.00  0.00    -0.143 A  
HETATM   18  C   UNL     1     -10.017   7.390  68.218  1.00  0.00    -0.182 A  
BRANCH  16  19
HETATM   19  O   UNL     1     -11.916   7.666  69.771  1.00  0.00     0.378 OA 
BRANCH  19  20
HETATM   20  C   UNL     1     -11.756   6.467  70.424  1.00  0.00    -0.321 A  
HETATM   21  C   UNL     1     -11.149   5.434  69.700  1.00  0.00     0.280 A  
HETATM   22  C   UNL     1     -10.896   4.201  70.308  1.00  0.00     1.953 A  
HETATM   23  C   UNL     1     -11.256   4.008  71.649  1.00  0.00     1.581 A  
HETATM   24  C   UNL     1     -11.829   5.054  72.388  1.00  0.00     0.279 A  
HETATM   25  N   UNL     1     -11.024   2.709  72.288  1.00  0.00     0.427 N  
HETATM   26  C   UNL     1     -12.058   6.286  71.777  1.00  0.00    -0.274 A  
HETATM   27  O   UNL     1     -10.454   1.832  71.627  1.00  0.00    -0.012 OA 
HETATM   28  O   UNL     1     -11.425   2.559  73.455  1.00  0.00    -0.189 OA 
ENDBRANCH  19  20
ENDBRANCH  16  19
ENDBRANCH  12  13
ENDBRANCH   6  12
ENDBRANCH   5   6
ENDBRANCH   4   5
ENDBRANCH   3   4
ENDBRANCH   2   3
TORSDOF 8
ENDMDL
MODEL      211
REMARK 921   NORMALIZED FREE ENERGY PREDICTED BY IDOCK:   11.73 KCAL/MOL
REMARK 922        TOTAL FREE ENERGY PREDICTED BY IDOCK:   16.28 KCAL/MOL
REMARK 923 INTER-LIGAND FREE ENERGY PREDICTED BY IDOCK:   -5.09 KCAL/MOL
REMARK 924 INTRA-LIGAND FREE ENERGY PREDICTED BY IDOCK:   21.38 KCAL/MOL
REMARK 927      BINDING AFFINITY PREDICTED BY RF-SCORE:    0.00 PKD
ROOT
HETATM    1  C   UNL     1      -5.850   9.019  66.456  1.00  0.00    -0.055 C  
HETATM    2  C   UNL     1      -6.606   7.737  66.733  1.00  0.00    -0.058 C  
ENDROOT
BRANCH   2   3
HETATM    3  O   UNL     1      -5.826   6.589  66.382  1.00  0.00    -0.020 OA 
BRANCH   3   4
HETATM    4  C   UNL     1      -6.415   5.950  65.242  1.00  0.00    -0.042 C  
BRANCH   4   5
HETATM    5  C   UNL     1      -7.884   6.332  65.001  1.00  0.00    -0.111 C  
BRANCH   5   6
HETATM    6  N   UNL     1      -8.385   7.615  65.542  1.00  0.00    -0.134 N  
HETATM    7 CL   UNL     1      -7.548  11.044  65.339  1.00  0.00     0.138 Cl 
HETATM    8  C   UNL     1      -8.539   8.651  64.582  1.00  0.00    -0.089 C  
HETATM    9  C   UNL     1      -8.991  10.042  65.058  1.00  0.00    -0.199 C  
HETATM   10 CL   UNL     1     -10.035  10.809  63.834  1.00  0.00    -0.378 Cl 
HETATM   11  O   UNL     1      -8.289   8.453  63.385  1.00  0.00    -0.153 OA 
BRANCH   6  12
HETATM   12  C   UNL     1      -8.267   7.949  66.978  1.00  0.00    -0.117 C  
BRANCH  12  13
HETATM   13  C   UNL     1      -8.790   9.280  67.461  1.00  0.00    -0.123 A  
HETATM   14  C   UNL     1      -9.219  10.262  66.556  1.00  0.00    -0.179 A  
HETATM   15  C   UNL     1      -9.566  11.539  67.010  1.00  0.00    -0.199 A  
HETATM   16  C   UNL     1      -9.529  11.848  68.374  1.00  0.00    -0.189 A  
HETATM   17  C   UNL     1      -8.811   9.578  68.833  1.00  0.00    -0.137 A  
HETATM   18  C   UNL     1      -9.158  10.858  69.285  1.00  0.00     0.003 A  
BRANCH  16  19
HETATM   19  O   UNL     1      -9.770  13.171  68.677  1.00  0.00    -0.171 OA 
BRANCH  19  20
HETATM   20  C   UNL     1     -10.239  14.038  67.718  1.00  0.00    -0.240 A  
HETATM   21  C   UNL     1      -9.779  15.359  67.788  1.00  0.00    -0.211 A  
HETATM   22  C   UNL     1     -10.161  16.290  66.817  1.00  0.00    -0.281 A  
HETATM   23  C   UNL     1     -11.007  15.889  65.773  1.00  0.00    -0.177 A  
HETATM   24  C   UNL     1     -11.437  14.557  65.680  1.00  0.00    -0.341 A  
HETATM   25  N   UNL     1     -11.439  16.864  64.767  1.00  0.00     0.176 N  
HETATM   26  C   UNL     1     -11.034  13.632  66.643  1.00  0.00    -0.295 A  
HETATM   27  O   UNL     1     -10.985  18.013  64.843  1.00  0.00    -0.776 OA 
HETATM   28  O   UNL     1     -12.247  16.484  63.904  1.00  0.00    -0.736 OA 
ENDBRANCH  19  20
ENDBRANCH  16  19
ENDBRANCH  12  13
ENDBRANCH   6  12
ENDBRANCH   5   6
ENDBRANCH   4   5
ENDBRANCH   3   4
ENDBRANCH   2   3
TORSDOF 8
ENDMDL
MODEL      212
REMARK 921   NORMALIZED FREE ENERGY PREDICTED BY IDOCK:   12.01 KCAL/MOL
REMARK 922        TOTAL FREE ENERGY PREDICTED BY IDOCK:   16.70 KCAL/MOL
REMARK 923 INTER-LIGAND FREE ENERGY PREDICTED BY IDOCK:   12.55 KCAL/MOL
REMARK 924 INTRA-LIGAND FREE ENERGY PREDICTED BY IDOCK:    4.15 KCAL/MOL
REMARK 927      BINDING AFFINITY PREDICTED BY RF-SCORE:    0.00 PKD
ROOT
HETATM    1  C   UNL     1     -10.696  17.035  63.909  1.00  0.00     3.937 C  
HETATM    2  C   UNL     1     -12.054  16.395  63.715  1.00  0.00     1.829 C  
ENDROOT
BRANCH   2   3
HETATM    3  O   UNL     1     -12.522  15.796  64.929  1.00  0.00     0.433 OA 
BRANCH   3   4
HETATM    4  C   UNL     1     -12.079  16.582  66.043  1.00  0.00     2.384 C  
BRANCH   4   5
HETATM    5  C   UNL     1     -10.692  16.187  66.574  1.00  0.00    -0.220 C  
BRANCH   5   6
HETATM    6  N   UNL     1     -10.603  15.427  67.840  1.00  0.00    -0.260 N  
HETATM    7 CL   UNL     1      -8.320  13.238  69.421  1.00  0.00     0.760 Cl 
HETATM    8  C   UNL     1      -9.370  15.561  68.534  1.00  0.00    -0.197 C  
HETATM    9  C   UNL     1      -9.156  14.756  69.827  1.00  0.00     0.335 C  
HETATM   10 CL   UNL     1      -8.184  15.693  70.989  1.00  0.00     2.717 Cl 
HETATM   11  O   UNL     1      -8.469  16.289  68.097  1.00  0.00    -0.168 OA 
BRANCH   6  12
HETATM   12  C   UNL     1     -11.483  14.270  68.112  1.00  0.00    -0.308 C  
BRANCH  12  13
HETATM   13  C   UNL     1     -10.854  12.922  68.371  1.00  0.00    -0.276 A  
HETATM   14  C   UNL     1      -9.846  12.420  67.534  1.00  0.00    -0.194 A  
HETATM   15  C   UNL     1      -9.375  11.114  67.701  1.00  0.00    -0.169 A  
HETATM   16  C   UNL     1      -9.870  10.300  68.725  1.00  0.00    -0.180 A  
HETATM   17  C   UNL     1     -11.305  12.122  69.433  1.00  0.00    -0.311 A  
HETATM   18  C   UNL     1     -10.831  10.813  69.597  1.00  0.00    -0.294 A  
BRANCH  16  19
HETATM   19  O   UNL     1      -9.417   8.997  68.703  1.00  0.00    -0.145 OA 
BRANCH  19  20
HETATM   20  C   UNL     1      -9.540   8.229  67.569  1.00  0.00    -0.154 A  
HETATM   21  C   UNL     1      -8.843   8.667  66.436  1.00  0.00    -0.167 A  
HETATM   22  C   UNL     1      -8.868   7.913  65.259  1.00  0.00     0.036 A  
HETATM   23  C   UNL     1      -9.595   6.714  65.224  1.00  0.00     1.058 A  
HETATM   24  C   UNL     1     -10.261   6.255  66.369  1.00  0.00    -0.081 A  
HETATM   25  N   UNL     1      -9.653   5.931  63.986  1.00  0.00     1.462 N  
HETATM   26  C   UNL     1     -10.213   7.005  67.544  1.00  0.00    -0.257 A  
HETATM   27  O   UNL     1      -8.997   6.333  63.016  1.00  0.00     0.454 OA 
HETATM   28  O   UNL     1     -10.368   4.915  63.978  1.00  0.00     0.527 OA 
ENDBRANCH  19  20
ENDBRANCH  16  19
ENDBRANCH  12  13
ENDBRANCH   6  12
ENDBRANCH   5   6
ENDBRANCH   4   5
ENDBRANCH   3   4
ENDBRANCH   2   3
TORSDOF 8
ENDMDL
MODEL      213
REMARK 921   NORMALIZED FREE ENERGY PREDICTED BY IDOCK:   14.79 KCAL/MOL
REMARK 922        TOTAL FREE ENERGY PREDICTED BY IDOCK:   20.78 KCAL/MOL
REMARK 923 INTER-LIGAND FREE ENERGY PREDICTED BY IDOCK:    4.91 KCAL/MOL
REMARK 924 INTRA-LIGAND FREE ENERGY PREDICTED BY IDOCK:   15.86 KCAL/MOL
REMARK 927      BINDING AFFINITY PREDICTED BY RF-SCORE:    0.00 PKD
ROOT
HETATM    1  C   UNL     1     -10.430   8.942  68.121  1.00  0.00    -0.254 C  
HETATM    2  C   UNL     1     -10.879   7.596  68.647  1.00  0.00     0.028 C  
ENDROOT
BRANCH   2   3
HETATM    3  O   UNL     1     -12.111   7.707  69.370  1.00  0.00     0.962 OA 
BRANCH   3   4
HETATM    4  C   UNL     1     -12.139   6.716  70.405  1.00  0.00    -0.188 C  
BRANCH   4   5
HETATM    5  C   UNL     1     -11.061   6.907  71.483  1.00  0.00    -0.244 C  
BRANCH   5   6
HETATM    6  N   UNL     1      -9.833   7.657  71.139  1.00  0.00    -0.173 N  
HETATM    7 CL   UNL     1      -7.910  10.293  72.502  1.00  0.00     5.002 Cl 
HETATM    8  C   UNL     1      -8.900   7.800  72.202  1.00  0.00    -0.133 C  
HETATM    9  C   UNL     1      -7.623   8.622  71.960  1.00  0.00    -0.038 C  
HETATM   10 CL   UNL     1      -6.253   7.920  72.858  1.00  0.00    -0.062 Cl 
HETATM   11  O   UNL     1      -9.118   7.298  73.312  1.00  0.00    -0.135 OA 
BRANCH   6  12
HETATM   12  C   UNL     1      -9.789   8.583  69.986  1.00  0.00    -0.179 C  
BRANCH  12  13
HETATM   13  C   UNL     1     -10.617   9.844  70.034  1.00  0.00    -0.335 A  
HETATM   14  C   UNL     1     -11.304  10.304  68.901  1.00  0.00    -0.230 A  
HETATM   15  C   UNL     1     -11.949  11.545  68.920  1.00  0.00    -0.364 A  
HETATM   16  C   UNL     1     -11.953  12.331  70.077  1.00  0.00    -0.304 A  
HETATM   17  C   UNL     1     -10.674  10.610  71.210  1.00  0.00     1.672 A  
HETATM   18  C   UNL     1     -11.321  11.854  71.226  1.00  0.00     2.381 A  
BRANCH  16  19
HETATM   19  O   UNL     1     -12.511  13.583  69.928  1.00  0.00    -0.252 OA 
BRANCH  19  20
HETATM   20  C   UNL     1     -11.728  14.670  69.617  1.00  0.00    -0.313 A  
HETATM   21  C   UNL     1     -11.253  14.746  68.303  1.00  0.00    -0.299 A  
HETATM   22  C   UNL     1     -10.498  15.848  67.889  1.00  0.00    -0.288 A  
HETATM   23  C   UNL     1     -10.223  16.876  68.802  1.00  0.00    -0.311 A  
HETATM   24  C   UNL     1     -10.731  16.821  70.108  1.00  0.00     0.016 A  
HETATM   25  N   UNL     1      -9.407  18.022  68.388  1.00  0.00    -0.293 N  
HETATM   26  C   UNL     1     -11.500  15.727  70.504  1.00  0.00    -0.401 A  
HETATM   27  O   UNL     1      -9.033  18.070  67.209  1.00  0.00    -0.246 OA 
HETATM   28  O   UNL     1      -9.126  18.872  69.249  1.00  0.00    -0.106 OA 
ENDBRANCH  19  20
ENDBRANCH  16  19
ENDBRANCH  12  13
ENDBRANCH   6  12
ENDBRANCH   5   6
ENDBRANCH   4   5
ENDBRANCH   3   4
ENDBRANCH   2   3
TORSDOF 8
ENDMDL
MODEL      214
REMARK 921   NORMALIZED FREE ENERGY PREDICTED BY IDOCK:   27.01 KCAL/MOL
REMARK 922        TOTAL FREE ENERGY PREDICTED BY IDOCK:   38.72 KCAL/MOL
REMARK 923 INTER-LIGAND FREE ENERGY PREDICTED BY IDOCK:   35.24 KCAL/MOL
REMARK 924 INTRA-LIGAND FREE ENERGY PREDICTED BY IDOCK:    3.48 KCAL/MOL
REMARK 927      BINDING AFFINITY PREDICTED BY RF-SCORE:    0.00 PKD
ROOT
HETATM    1  C   UNL     1      -9.615   5.682  67.848  1.00  0.00    -0.133 C  
HETATM    2  C   UNL     1     -10.712   5.377  68.847  1.00  0.00    -0.058 C  
ENDROOT
BRANCH   2   3
HETATM    3  O   UNL     1     -10.218   4.580  69.930  1.00  0.00    -0.208 OA 
BRANCH   3   4
HETATM    4  C   UNL     1     -10.704   5.116  71.167  1.00  0.00    -0.071 C  
BRANCH   4   5
HETATM    5  C   UNL     1      -9.683   5.985  71.917  1.00  0.00    -0.153 C  
BRANCH   5   6
HETATM    6  N   UNL     1      -9.447   7.371  71.453  1.00  0.00    -0.153 N  
HETATM    7 CL   UNL     1      -6.740   9.303  70.256  1.00  0.00    -0.057 Cl 
HETATM    8  C   UNL     1      -8.730   7.481  70.232  1.00  0.00    -0.145 C  
HETATM    9  C   UNL     1      -8.378   8.882  69.703  1.00  0.00    -0.123 C  
HETATM   10 CL   UNL     1      -8.444   8.909  67.923  1.00  0.00    -0.125 Cl 
HETATM   11  O   UNL     1      -8.368   6.472  69.613  1.00  0.00    -0.127 OA 
BRANCH   6  12
HETATM   12  C   UNL     1      -9.502   8.518  72.385  1.00  0.00    -0.280 C  
BRANCH  12  13
HETATM   13  C   UNL     1     -10.448   9.655  72.084  1.00  0.00     1.248 A  
HETATM   14  C   UNL     1     -10.226  10.940  72.601  1.00  0.00    11.927 A  
HETATM   15  C   UNL     1     -11.182  11.946  72.432  1.00  0.00     8.017 A  
HETATM   16  C   UNL     1     -12.358  11.702  71.715  1.00  0.00     0.276 A  
HETATM   17  C   UNL     1     -11.602   9.433  71.315  1.00  0.00    -0.434 A  
HETATM   18  C   UNL     1     -12.560  10.443  71.149  1.00  0.00    -0.512 A  
BRANCH  16  19
HETATM   19  O   UNL     1     -13.273  12.734  71.729  1.00  0.00    -0.429 OA 
BRANCH  19  20
HETATM   20  C   UNL     1     -12.855  14.044  71.730  1.00  0.00    -0.340 A  
HETATM   21  C   UNL     1     -13.764  14.992  72.216  1.00  0.00    -0.574 A  
HETATM   22  C   UNL     1     -13.397  16.338  72.305  1.00  0.00     0.328 A  
HETATM   23  C   UNL     1     -12.112  16.730  71.904  1.00  0.00     0.579 A  
HETATM   24  C   UNL     1     -11.188  15.776  71.453  1.00  0.00    -0.354 A  
HETATM   25  N   UNL     1     -11.727  18.143  71.963  1.00  0.00     3.787 N  
HETATM   26  C   UNL     1     -11.557  14.433  71.388  1.00  0.00     0.004 A  
HETATM   27  O   UNL     1     -12.545  18.946  72.430  1.00  0.00    11.248 OA 
HETATM   28  O   UNL     1     -10.605  18.455  71.529  1.00  0.00     2.098 OA 
ENDBRANCH  19  20
ENDBRANCH  16  19
ENDBRANCH  12  13
ENDBRANCH   6  12
ENDBRANCH   5   6
ENDBRANCH   4   5
ENDBRANCH   3   4
ENDBRANCH   2   3
TORSDOF 8
ENDMDL
MODEL      215
REMARK 921   NORMALIZED FREE ENERGY PREDICTED BY IDOCK:   28.71 KCAL/MOL
REMARK 922        TOTAL FREE ENERGY PREDICTED BY IDOCK:   41.20 KCAL/MOL
REMARK 923 INTER-LIGAND FREE ENERGY PREDICTED BY IDOCK:   14.53 KCAL/MOL
REMARK 924 INTRA-LIGAND FREE ENERGY PREDICTED BY IDOCK:   26.67 KCAL/MOL
REMARK 927      BINDING AFFINITY PREDICTED BY RF-SCORE:    0.00 PKD
ROOT
HETATM    1  C   UNL     1      -6.645   8.676  67.074  1.00  0.00    -0.058 C  
HETATM    2  C   UNL     1      -7.186   7.613  68.006  1.00  0.00    -0.097 C  
ENDROOT
BRANCH   2   3
HETATM    3  O   UNL     1      -6.312   6.479  68.062  1.00  0.00    -0.036 OA 
BRANCH   3   4
HETATM    4  C   UNL     1      -7.005   5.327  67.565  1.00  0.00    -0.065 C  
BRANCH   4   5
HETATM    5  C   UNL     1      -8.536   5.432  67.654  1.00  0.00    -0.105 C  
BRANCH   5   6
HETATM    6  N   UNL     1      -9.140   6.718  68.063  1.00  0.00    -0.120 N  
HETATM    7 CL   UNL     1      -8.622  10.163  67.456  1.00  0.00    -0.119 Cl 
HETATM    8  C   UNL     1      -9.407   7.621  66.999  1.00  0.00    -0.157 C  
HETATM    9  C   UNL     1      -9.974   9.012  67.332  1.00  0.00    -0.209 C  
HETATM   10 CL   UNL     1     -11.108   9.541  66.063  1.00  0.00     0.940 Cl 
HETATM   11  O   UNL     1      -9.165   7.312  65.825  1.00  0.00    -0.035 OA 
BRANCH   6  12
HETATM   12  C   UNL     1      -9.023   7.222  69.449  1.00  0.00    -0.139 C  
BRANCH  12  13
HETATM   13  C   UNL     1      -9.167   8.704  69.700  1.00  0.00    -0.157 A  
HETATM   14  C   UNL     1      -9.082   9.629  68.648  1.00  0.00    -0.132 A  
HETATM   15  C   UNL     1      -9.075  11.002  68.913  1.00  0.00    -0.132 A  
HETATM   16  C   UNL     1      -9.189  11.478  70.223  1.00  0.00     3.328 A  
HETATM   17  C   UNL     1      -9.340   9.189  71.006  1.00  0.00    -0.333 A  
HETATM   18  C   UNL     1      -9.332  10.565  71.269  1.00  0.00     3.924 A  
BRANCH  16  19
HETATM   19  O   UNL     1      -9.040  12.842  70.361  1.00  0.00     4.350 OA 
BRANCH  19  20
HETATM   20  C   UNL     1      -8.766  13.634  69.270  1.00  0.00     0.672 A  
HETATM   21  C   UNL     1      -8.076  14.826  69.518  1.00  0.00     0.014 A  
HETATM   22  C   UNL     1      -7.706  15.660  68.458  1.00  0.00    -0.131 A  
HETATM   23  C   UNL     1      -8.031  15.290  67.145  1.00  0.00    -0.218 A  
HETATM   24  C   UNL     1      -8.688  14.077  66.892  1.00  0.00    -0.185 A  
HETATM   25  N   UNL     1      -7.676  16.171  66.028  1.00  0.00     0.312 N  
HETATM   26  C   UNL     1      -9.034  13.243  67.955  1.00  0.00    -0.199 A  
HETATM   27  O   UNL     1      -7.037  17.199  66.284  1.00  0.00    -0.256 OA 
HETATM   28  O   UNL     1      -8.049  15.839  64.890  1.00  0.00     3.874 OA 
ENDBRANCH  19  20
ENDBRANCH  16  19
ENDBRANCH  12  13
ENDBRANCH   6  12
ENDBRANCH   5   6
ENDBRANCH   4   5
ENDBRANCH   3   4
ENDBRANCH   2   3
TORSDOF 8
ENDMDL
MODEL      216
REMARK 921   NORMALIZED FREE ENERGY PREDICTED BY IDOCK:   44.68 KCAL/MOL
REMARK 922        TOTAL FREE ENERGY PREDICTED BY IDOCK:   64.64 KCAL/MOL
REMARK 923 INTER-LIGAND FREE ENERGY PREDICTED BY IDOCK:   62.30 KCAL/MOL
REMARK 924 INTRA-LIGAND FREE ENERGY PREDICTED BY IDOCK:    2.35 KCAL/MOL
REMARK 927      BINDING AFFINITY PREDICTED BY RF-SCORE:    0.00 PKD
ROOT
HETATM    1  C   UNL     1      -9.459  10.975  65.979  1.00  0.00    -0.235 C  
HETATM    2  C   UNL     1      -9.592   9.468  66.043  1.00  0.00    -0.251 C  
ENDROOT
BRANCH   2   3
HETATM    3  O   UNL     1      -8.764   8.919  67.075  1.00  0.00    -0.121 OA 
BRANCH   3   4
HETATM    4  C   UNL     1      -8.402   9.960  67.991  1.00  0.00    -0.113 C  
BRANCH   4   5
HETATM    5  C   UNL     1      -9.512  10.331  68.986  1.00  0.00    -0.200 C  
BRANCH   5   6
HETATM    6  N   UNL     1      -9.611   9.582  70.258  1.00  0.00    -0.250 N  
HETATM    7 CL   UNL     1     -11.545   6.940  71.593  1.00  0.00    -0.307 Cl 
HETATM    8  C   UNL     1      -9.647   8.168  70.120  1.00  0.00    -0.168 C  
HETATM    9  C   UNL     1      -9.817   7.304  71.381  1.00  0.00    -0.186 C  
HETATM   10 CL   UNL     1      -8.891   5.789  71.226  1.00  0.00    -0.135 Cl 
HETATM   11  O   UNL     1      -9.570   7.635  69.005  1.00  0.00    -0.150 OA 
BRANCH   6  12
HETATM   12  C   UNL     1     -10.120  10.217  71.493  1.00  0.00     2.537 C  
BRANCH  12  13
HETATM   13  C   UNL     1     -10.796  11.563  71.394  1.00  0.00     4.303 A  
HETATM   14  C   UNL     1     -12.098  11.759  71.878  1.00  0.00     1.155 A  
HETATM   15  C   UNL     1     -12.762  12.968  71.652  1.00  0.00    -0.308 A  
HETATM   16  C   UNL     1     -12.130  14.016  70.973  1.00  0.00    -0.305 A  
HETATM   17  C   UNL     1     -10.145  12.638  70.766  1.00  0.00     5.999 A  
HETATM   18  C   UNL     1     -10.814  13.849  70.540  1.00  0.00     0.973 A  
BRANCH  16  19
HETATM   19  O   UNL     1     -12.934  15.104  70.705  1.00  0.00    -0.385 OA 
BRANCH  19  20
HETATM   20  C   UNL     1     -12.440  16.384  70.802  1.00  0.00     0.969 A  
HETATM   21  C   UNL     1     -11.051  16.514  70.917  1.00  0.00     0.050 A  
HETATM   22  C   UNL     1     -10.464  17.782  70.963  1.00  0.00     2.507 A  
HETATM   23  C   UNL     1     -11.278  18.921  70.892  1.00  0.00     4.808 A  
HETATM   24  C   UNL     1     -12.666  18.793  70.738  1.00  0.00    20.017 A  
HETATM   25  N   UNL     1     -10.676  20.256  70.970  1.00  0.00     2.510 N  
HETATM   26  C   UNL     1     -13.239  17.523  70.673  1.00  0.00    12.733 A  
HETATM   27  O   UNL     1      -9.443  20.331  71.036  1.00  0.00     1.149 OA 
HETATM   28  O   UNL     1     -11.441  21.235  70.977  1.00  0.00     5.697 OA 
ENDBRANCH  19  20
ENDBRANCH  16  19
ENDBRANCH  12  13
ENDBRANCH   6  12
ENDBRANCH   5   6
ENDBRANCH   4   5
ENDBRANCH   3   4
ENDBRANCH   2   3
TORSDOF 8
ENDMDL
MODEL      217
REMARK 921   NORMALIZED FREE ENERGY PREDICTED BY IDOCK:   48.47 KCAL/MOL
REMARK 922        TOTAL FREE ENERGY PREDICTED BY IDOCK:   70.20 KCAL/MOL
REMARK 923 INTER-LIGAND FREE ENERGY PREDICTED BY IDOCK:   68.21 KCAL/MOL
REMARK 924 INTRA-LIGAND FREE ENERGY PREDICTED BY IDOCK:    2.00 KCAL/MOL
REMARK 927      BINDING AFFINITY PREDICTED BY RF-SCORE:    0.00 PKD
ROOT
HETATM    1  C   UNL     1      -9.461  10.979  65.982  1.00  0.00    -0.235 C  
HETATM    2  C   UNL     1      -9.574   9.471  66.052  1.00  0.00    -0.251 C  
ENDROOT
BRANCH   2   3
HETATM    3  O   UNL     1      -8.741   8.937  67.089  1.00  0.00    -0.119 OA 
BRANCH   3   4
HETATM    4  C   UNL     1      -8.410   9.983  68.011  1.00  0.00    -0.117 C  
BRANCH   4   5
HETATM    5  C   UNL     1      -9.164   9.901  69.347  1.00  0.00    -0.214 C  
BRANCH   5   6
HETATM    6  N   UNL     1      -8.593   9.082  70.439  1.00  0.00    -0.172 N  
HETATM    7 CL   UNL     1      -9.064   5.857  71.810  1.00  0.00    -0.144 Cl 
HETATM    8  C   UNL     1      -8.245   7.754  70.074  1.00  0.00    -0.121 C  
HETATM    9  C   UNL     1      -7.706   6.805  71.158  1.00  0.00    -0.093 C  
HETATM   10 CL   UNL     1      -6.476   5.712  70.473  1.00  0.00    -0.034 Cl 
HETATM   11  O   UNL     1      -8.394   7.353  68.913  1.00  0.00    -0.127 OA 
BRANCH   6  12
HETATM   12  C   UNL     1      -8.819   9.423  71.861  1.00  0.00     0.899 C  
BRANCH  12  13
HETATM   13  C   UNL     1      -9.872  10.449  72.205  1.00  0.00     6.403 A  
HETATM   14  C   UNL     1     -10.925  10.142  73.080  1.00  0.00     6.615 A  
HETATM   15  C   UNL     1     -11.968  11.052  73.277  1.00  0.00     8.549 A  
HETATM   16  C   UNL     1     -11.964  12.296  72.638  1.00  0.00     4.409 A  
HETATM   17  C   UNL     1      -9.843  11.722  71.612  1.00  0.00    12.112 A  
HETATM   18  C   UNL     1     -10.891  12.631  71.811  1.00  0.00     7.231 A  
BRANCH  16  19
HETATM   19  O   UNL     1     -13.107  13.046  72.815  1.00  0.00    -0.312 OA 
BRANCH  19  20
HETATM   20  C   UNL     1     -13.035  14.407  72.996  1.00  0.00    -0.472 A  
HETATM   21  C   UNL     1     -11.802  15.011  72.724  1.00  0.00    -0.391 A  
HETATM   22  C   UNL     1     -11.659  16.398  72.826  1.00  0.00    -0.158 A  
HETATM   23  C   UNL     1     -12.762  17.178  73.202  1.00  0.00     1.601 A  
HETATM   24  C   UNL     1     -14.007  16.579  73.438  1.00  0.00     0.852 A  
HETATM   25  N   UNL     1     -12.615  18.630  73.343  1.00  0.00     7.030 N  
HETATM   26  C   UNL     1     -14.143  15.197  73.313  1.00  0.00     0.891 A  
HETATM   27  O   UNL     1     -11.520  19.131  73.061  1.00  0.00     3.711 OA 
HETATM   28  O   UNL     1     -13.598  19.273  73.750  1.00  0.00    10.862 OA 
ENDBRANCH  19  20
ENDBRANCH  16  19
ENDBRANCH  12  13
ENDBRANCH   6  12
ENDBRANCH   5   6
ENDBRANCH   4   5
ENDBRANCH   3   4
ENDBRANCH   2   3
TORSDOF 8
ENDMDL
