MODEL        1
REMARK 921   NORMALIZED FREE ENERGY PREDICTED BY IDOCK:   -5.69 KCAL/MOL
REMARK 922        TOTAL FREE ENERGY PREDICTED BY IDOCK:   -7.90 KCAL/MOL
REMARK 923 INTER-LIGAND FREE ENERGY PREDICTED BY IDOCK:   -7.35 KCAL/MOL
REMARK 924 INTRA-LIGAND FREE ENERGY PREDICTED BY IDOCK:   -0.55 KCAL/MOL
REMARK 927      BINDING AFFINITY PREDICTED BY RF-SCORE:    0.00 PKD
ROOT
HETATM    1  C   UNL     1     -10.737  16.950  65.657  1.00  0.00    -0.173 C  
HETATM    2  C   UNL     1     -10.917  15.648  64.897  1.00  0.00    -0.431 C  
ENDROOT
BRANCH   2   3
HETATM    3  O   UNL     1     -10.842  14.575  65.844  1.00  0.00    -0.293 OA 
BRANCH   3   4
HETATM    4  C   UNL     1     -12.038  14.083  66.270  1.00  0.00    -0.456 C  
HETATM    5  O   UNL     1     -13.092  14.195  65.660  1.00  0.00    -0.617 OA 
BRANCH   4   6
HETATM    6  C   UNL     1     -11.840  13.328  67.480  1.00  0.00    -0.358 A  
HETATM    7  C   UNL     1     -11.735  11.958  67.638  1.00  0.00    -0.275 A  
HETATM    8  N   UNL     1     -11.607  11.609  68.951  1.00  0.00    -0.286 NA 
HETATM    9  C   UNL     1     -11.635  12.742  69.610  1.00  0.00    -0.252 A  
HETATM   10  N   UNL     1     -11.759  13.818  68.774  1.00  0.00    -0.333 NA 
BRANCH  10  11
HETATM   11  C   UNL     1     -11.748  15.233  69.184  1.00  0.00    -0.335 C  
HETATM   12  C   UNL     1     -10.346  15.827  69.025  1.00  0.00    -0.223 C  
BRANCH  11  13
HETATM   13  C   UNL     1     -12.367  15.446  70.563  1.00  0.00    -0.452 A  
HETATM   14  C   UNL     1     -11.550  15.887  71.620  1.00  0.00    -0.541 A  
HETATM   15  C   UNL     1     -12.067  16.042  72.907  1.00  0.00    -0.626 A  
HETATM   16  C   UNL     1     -13.409  15.767  73.158  1.00  0.00    -0.685 A  
HETATM   17  C   UNL     1     -14.236  15.350  72.120  1.00  0.00    -0.660 A  
HETATM   18  C   UNL     1     -13.723  15.194  70.832  1.00  0.00    -0.352 A  
ENDBRANCH  11  13
ENDBRANCH  10  11
ENDBRANCH   4   6
ENDBRANCH   3   4
ENDBRANCH   2   3
TORSDOF 5
ENDMDL
MODEL        2
REMARK 921   NORMALIZED FREE ENERGY PREDICTED BY IDOCK:   -5.68 KCAL/MOL
REMARK 922        TOTAL FREE ENERGY PREDICTED BY IDOCK:   -7.88 KCAL/MOL
REMARK 923 INTER-LIGAND FREE ENERGY PREDICTED BY IDOCK:   -7.78 KCAL/MOL
REMARK 924 INTRA-LIGAND FREE ENERGY PREDICTED BY IDOCK:   -0.11 KCAL/MOL
REMARK 927      BINDING AFFINITY PREDICTED BY RF-SCORE:    0.00 PKD
ROOT
HETATM    1  C   UNL     1     -12.740  11.880  63.434  1.00  0.00    -0.496 C  
HETATM    2  C   UNL     1     -11.770  13.047  63.483  1.00  0.00    -0.471 C  
ENDROOT
BRANCH   2   3
HETATM    3  O   UNL     1     -12.534  14.243  63.689  1.00  0.00    -0.816 OA 
BRANCH   3   4
HETATM    4  C   UNL     1     -11.905  15.230  64.385  1.00  0.00    -0.281 C  
HETATM    5  O   UNL     1     -11.633  16.333  63.934  1.00  0.00    -0.987 OA 
BRANCH   4   6
HETATM    6  C   UNL     1     -11.716  14.806  65.748  1.00  0.00    -0.252 A  
HETATM    7  C   UNL     1     -12.478  13.926  66.494  1.00  0.00    -0.321 A  
HETATM    8  N   UNL     1     -12.016  13.815  67.774  1.00  0.00    -0.370 NA 
HETATM    9  C   UNL     1     -10.980  14.617  67.833  1.00  0.00    -0.277 A  
HETATM   10  N   UNL     1     -10.739  15.232  66.634  1.00  0.00    -0.306 NA 
BRANCH  10  11
HETATM   11  C   UNL     1      -9.612  16.133  66.340  1.00  0.00    -0.287 C  
HETATM   12  C   UNL     1      -8.283  15.468  66.707  1.00  0.00    -0.277 C  
BRANCH  11  13
HETATM   13  C   UNL     1      -9.804  17.523  66.941  1.00  0.00    -0.302 A  
HETATM   14  C   UNL     1     -10.297  18.560  66.127  1.00  0.00    -0.457 A  
HETATM   15  C   UNL     1     -10.436  19.856  66.625  1.00  0.00    -0.580 A  
HETATM   16  C   UNL     1     -10.093  20.137  67.945  1.00  0.00    -0.533 A  
HETATM   17  C   UNL     1      -9.625  19.121  68.771  1.00  0.00    -0.474 A  
HETATM   18  C   UNL     1      -9.484  17.823  68.276  1.00  0.00    -0.290 A  
ENDBRANCH  11  13
ENDBRANCH  10  11
ENDBRANCH   4   6
ENDBRANCH   3   4
ENDBRANCH   2   3
TORSDOF 5
ENDMDL
MODEL        3
REMARK 921   NORMALIZED FREE ENERGY PREDICTED BY IDOCK:   -5.56 KCAL/MOL
REMARK 922        TOTAL FREE ENERGY PREDICTED BY IDOCK:   -7.73 KCAL/MOL
REMARK 923 INTER-LIGAND FREE ENERGY PREDICTED BY IDOCK:   -7.21 KCAL/MOL
REMARK 924 INTRA-LIGAND FREE ENERGY PREDICTED BY IDOCK:   -0.52 KCAL/MOL
REMARK 927      BINDING AFFINITY PREDICTED BY RF-SCORE:    0.00 PKD
ROOT
HETATM    1  C   UNL     1     -10.084  19.663  66.034  1.00  0.00    -0.553 C  
HETATM    2  C   UNL     1     -10.353  18.292  66.630  1.00  0.00    -0.381 C  
ENDROOT
BRANCH   2   3
HETATM    3  O   UNL     1     -10.446  17.357  65.547  1.00  0.00    -0.624 OA 
BRANCH   3   4
HETATM    4  C   UNL     1      -9.942  16.117  65.798  1.00  0.00    -0.340 C  
HETATM    5  O   UNL     1      -8.773  15.884  66.073  1.00  0.00    -0.321 OA 
BRANCH   4   6
HETATM    6  C   UNL     1     -11.014  15.157  65.794  1.00  0.00    -0.349 A  
HETATM    7  C   UNL     1     -11.959  14.918  64.812  1.00  0.00    -0.361 A  
HETATM    8  N   UNL     1     -12.855  13.962  65.193  1.00  0.00    -0.748 NA 
HETATM    9  C   UNL     1     -12.482  13.607  66.399  1.00  0.00    -0.324 A  
HETATM   10  N   UNL     1     -11.366  14.283  66.811  1.00  0.00    -0.335 NA 
BRANCH  10  11
HETATM   11  C   UNL     1     -10.649  14.069  68.079  1.00  0.00    -0.247 C  
HETATM   12  C   UNL     1      -9.790  12.804  68.003  1.00  0.00    -0.226 C  
BRANCH  11  13
HETATM   13  C   UNL     1     -11.575  14.127  69.291  1.00  0.00    -0.350 A  
HETATM   14  C   UNL     1     -11.983  15.380  69.783  1.00  0.00    -0.381 A  
HETATM   15  C   UNL     1     -12.786  15.476  70.920  1.00  0.00    -0.535 A  
HETATM   16  C   UNL     1     -13.202  14.322  71.579  1.00  0.00    -0.420 A  
HETATM   17  C   UNL     1     -12.827  13.074  71.095  1.00  0.00    -0.331 A  
HETATM   18  C   UNL     1     -12.024  12.974  69.957  1.00  0.00    -0.383 A  
ENDBRANCH  11  13
ENDBRANCH  10  11
ENDBRANCH   4   6
ENDBRANCH   3   4
ENDBRANCH   2   3
TORSDOF 5
ENDMDL
MODEL        4
REMARK 921   NORMALIZED FREE ENERGY PREDICTED BY IDOCK:   -5.56 KCAL/MOL
REMARK 922        TOTAL FREE ENERGY PREDICTED BY IDOCK:   -7.73 KCAL/MOL
REMARK 923 INTER-LIGAND FREE ENERGY PREDICTED BY IDOCK:   -7.37 KCAL/MOL
REMARK 924 INTRA-LIGAND FREE ENERGY PREDICTED BY IDOCK:   -0.36 KCAL/MOL
REMARK 927      BINDING AFFINITY PREDICTED BY RF-SCORE:    0.00 PKD
ROOT
HETATM    1  C   UNL     1     -12.387  11.893  63.419  1.00  0.00    -0.577 C  
HETATM    2  C   UNL     1     -11.510  13.133  63.423  1.00  0.00    -0.149 C  
ENDROOT
BRANCH   2   3
HETATM    3  O   UNL     1     -12.350  14.262  63.700  1.00  0.00    -0.741 OA 
BRANCH   3   4
HETATM    4  C   UNL     1     -11.747  15.297  64.348  1.00  0.00    -0.285 C  
HETATM    5  O   UNL     1     -11.479  16.375  63.837  1.00  0.00    -1.063 OA 
BRANCH   4   6
HETATM    6  C   UNL     1     -11.581  14.958  65.737  1.00  0.00    -0.234 A  
HETATM    7  C   UNL     1     -12.397  14.185  66.543  1.00  0.00    -0.372 A  
HETATM    8  N   UNL     1     -11.938  14.134  67.828  1.00  0.00    -0.372 NA 
HETATM    9  C   UNL     1     -10.851  14.867  67.831  1.00  0.00    -0.276 A  
HETATM   10  N   UNL     1     -10.575  15.380  66.592  1.00  0.00    -0.302 NA 
BRANCH  10  11
HETATM   11  C   UNL     1      -9.392  16.181  66.237  1.00  0.00    -0.317 C  
HETATM   12  C   UNL     1      -8.111  15.482  66.699  1.00  0.00    -0.189 C  
BRANCH  11  13
HETATM   13  C   UNL     1      -9.513  17.633  66.691  1.00  0.00    -0.288 A  
HETATM   14  C   UNL     1      -8.635  18.118  67.679  1.00  0.00    -0.252 A  
HETATM   15  C   UNL     1      -8.749  19.424  68.159  1.00  0.00    -0.370 A  
HETATM   16  C   UNL     1      -9.734  20.269  67.656  1.00  0.00    -0.555 A  
HETATM   17  C   UNL     1     -10.596  19.814  66.663  1.00  0.00    -0.578 A  
HETATM   18  C   UNL     1     -10.486  18.509  66.180  1.00  0.00    -0.447 A  
ENDBRANCH  11  13
ENDBRANCH  10  11
ENDBRANCH   4   6
ENDBRANCH   3   4
ENDBRANCH   2   3
TORSDOF 5
ENDMDL
MODEL        5
REMARK 921   NORMALIZED FREE ENERGY PREDICTED BY IDOCK:   -5.50 KCAL/MOL
REMARK 922        TOTAL FREE ENERGY PREDICTED BY IDOCK:   -7.65 KCAL/MOL
REMARK 923 INTER-LIGAND FREE ENERGY PREDICTED BY IDOCK:   -6.85 KCAL/MOL
REMARK 924 INTRA-LIGAND FREE ENERGY PREDICTED BY IDOCK:   -0.80 KCAL/MOL
REMARK 927      BINDING AFFINITY PREDICTED BY RF-SCORE:    0.00 PKD
ROOT
HETATM    1  C   UNL     1     -12.210  12.762  63.503  1.00  0.00    -0.613 C  
HETATM    2  C   UNL     1     -12.243  14.091  64.237  1.00  0.00    -0.418 C  
ENDROOT
BRANCH   2   3
HETATM    3  O   UNL     1     -10.888  14.473  64.511  1.00  0.00    -0.351 OA 
BRANCH   3   4
HETATM    4  C   UNL     1     -10.718  15.743  64.973  1.00  0.00    -0.421 C  
HETATM    5  O   UNL     1     -11.279  16.729  64.516  1.00  0.00    -0.997 OA 
BRANCH   4   6
HETATM    6  C   UNL     1      -9.870  15.718  66.136  1.00  0.00    -0.315 A  
HETATM    7  C   UNL     1      -8.543  16.091  66.247  1.00  0.00    -0.328 A  
HETATM    8  N   UNL     1      -8.059  15.872  67.505  1.00  0.00    -0.143 NA 
HETATM    9  C   UNL     1      -9.066  15.364  68.173  1.00  0.00    -0.184 A  
HETATM   10  N   UNL     1     -10.193  15.260  67.403  1.00  0.00    -0.241 NA 
BRANCH  10  11
HETATM   11  C   UNL     1     -11.513  14.801  67.868  1.00  0.00    -0.342 C  
HETATM   12  C   UNL     1     -12.022  15.691  69.004  1.00  0.00    -0.323 C  
BRANCH  11  13
HETATM   13  C   UNL     1     -11.534  13.308  68.182  1.00  0.00    -0.347 A  
HETATM   14  C   UNL     1     -11.803  12.888  69.497  1.00  0.00    -0.383 A  
HETATM   15  C   UNL     1     -11.779  11.534  69.835  1.00  0.00    -0.420 A  
HETATM   16  C   UNL     1     -11.493  10.577  68.865  1.00  0.00    -0.292 A  
HETATM   17  C   UNL     1     -11.247  10.972  67.554  1.00  0.00    -0.372 A  
HETATM   18  C   UNL     1     -11.270  12.326  67.212  1.00  0.00    -0.358 A  
ENDBRANCH  11  13
ENDBRANCH  10  11
ENDBRANCH   4   6
ENDBRANCH   3   4
ENDBRANCH   2   3
TORSDOF 5
ENDMDL
MODEL        6
REMARK 921   NORMALIZED FREE ENERGY PREDICTED BY IDOCK:   -5.44 KCAL/MOL
REMARK 922        TOTAL FREE ENERGY PREDICTED BY IDOCK:   -7.58 KCAL/MOL
REMARK 923 INTER-LIGAND FREE ENERGY PREDICTED BY IDOCK:   -7.02 KCAL/MOL
REMARK 924 INTRA-LIGAND FREE ENERGY PREDICTED BY IDOCK:   -0.56 KCAL/MOL
REMARK 927      BINDING AFFINITY PREDICTED BY RF-SCORE:    0.00 PKD
ROOT
HETATM    1  C   UNL     1     -10.669  11.795  63.465  1.00  0.00    -0.501 C  
HETATM    2  C   UNL     1     -12.128  12.209  63.544  1.00  0.00    -0.550 C  
ENDROOT
BRANCH   2   3
HETATM    3  O   UNL     1     -12.169  13.631  63.718  1.00  0.00    -0.606 OA 
BRANCH   3   4
HETATM    4  C   UNL     1     -12.509  14.061  64.965  1.00  0.00    -0.425 C  
HETATM    5  O   UNL     1     -13.629  13.973  65.449  1.00  0.00    -0.593 OA 
BRANCH   4   6
HETATM    6  C   UNL     1     -11.330  14.526  65.647  1.00  0.00    -0.336 A  
HETATM    7  C   UNL     1     -10.243  15.206  65.130  1.00  0.00    -0.351 A  
HETATM    8  N   UNL     1      -9.287  15.430  66.079  1.00  0.00    -0.331 NA 
HETATM    9  C   UNL     1      -9.764  14.895  67.176  1.00  0.00    -0.228 A  
HETATM   10  N   UNL     1     -11.003  14.345  66.982  1.00  0.00    -0.298 NA 
BRANCH  10  11
HETATM   11  C   UNL     1     -11.846  13.732  68.023  1.00  0.00    -0.373 C  
HETATM   12  C   UNL     1     -11.850  14.595  69.288  1.00  0.00    -0.357 C  
BRANCH  11  13
HETATM   13  C   UNL     1     -11.499  12.266  68.265  1.00  0.00    -0.367 A  
HETATM   14  C   UNL     1     -11.548  11.757  69.576  1.00  0.00    -0.398 A  
HETATM   15  C   UNL     1     -11.188  10.436  69.845  1.00  0.00    -0.371 A  
HETATM   16  C   UNL     1     -10.780   9.599  68.810  1.00  0.00    -0.234 A  
HETATM   17  C   UNL     1     -10.747  10.078  67.504  1.00  0.00    -0.339 A  
HETATM   18  C   UNL     1     -11.107  11.399  67.231  1.00  0.00    -0.363 A  
ENDBRANCH  11  13
ENDBRANCH  10  11
ENDBRANCH   4   6
ENDBRANCH   3   4
ENDBRANCH   2   3
TORSDOF 5
ENDMDL
MODEL        7
REMARK 921   NORMALIZED FREE ENERGY PREDICTED BY IDOCK:   -5.43 KCAL/MOL
REMARK 922        TOTAL FREE ENERGY PREDICTED BY IDOCK:   -7.57 KCAL/MOL
REMARK 923 INTER-LIGAND FREE ENERGY PREDICTED BY IDOCK:   -6.88 KCAL/MOL
REMARK 924 INTRA-LIGAND FREE ENERGY PREDICTED BY IDOCK:   -0.69 KCAL/MOL
REMARK 927      BINDING AFFINITY PREDICTED BY RF-SCORE:    0.00 PKD
ROOT
HETATM    1  C   UNL     1     -12.438  12.515  64.331  1.00  0.00    -0.530 C  
HETATM    2  C   UNL     1     -12.227  12.935  65.775  1.00  0.00    -0.439 C  
ENDROOT
BRANCH   2   3
HETATM    3  O   UNL     1     -11.691  11.810  66.483  1.00  0.00    -0.530 OA 
BRANCH   3   4
HETATM    4  C   UNL     1     -11.588  11.960  67.833  1.00  0.00    -0.323 C  
HETATM    5  O   UNL     1     -12.295  11.389  68.652  1.00  0.00    -0.491 OA 
BRANCH   4   6
HETATM    6  C   UNL     1     -10.459  12.801  68.134  1.00  0.00    -0.236 A  
HETATM    7  C   UNL     1      -9.111  12.514  68.018  1.00  0.00    -0.200 A  
HETATM    8  N   UNL     1      -8.334  13.549  68.455  1.00  0.00    -0.156 NA 
HETATM    9  C   UNL     1      -9.181  14.471  68.843  1.00  0.00    -0.118 A  
HETATM   10  N   UNL     1     -10.482  14.083  68.660  1.00  0.00    -0.244 NA 
BRANCH  10  11
HETATM   11  C   UNL     1     -11.672  14.910  68.923  1.00  0.00    -0.315 C  
HETATM   12  C   UNL     1     -11.505  16.302  68.307  1.00  0.00    -0.207 C  
BRANCH  11  13
HETATM   13  C   UNL     1     -12.061  14.919  70.399  1.00  0.00    -0.386 A  
HETATM   14  C   UNL     1     -12.873  13.885  70.900  1.00  0.00    -0.370 A  
HETATM   15  C   UNL     1     -13.295  13.887  72.230  1.00  0.00    -0.599 A  
HETATM   16  C   UNL     1     -12.906  14.916  73.084  1.00  0.00    -0.619 A  
HETATM   17  C   UNL     1     -12.086  15.935  72.612  1.00  0.00    -0.615 A  
HETATM   18  C   UNL     1     -11.662  15.937  71.282  1.00  0.00    -0.504 A  
ENDBRANCH  11  13
ENDBRANCH  10  11
ENDBRANCH   4   6
ENDBRANCH   3   4
ENDBRANCH   2   3
TORSDOF 5
ENDMDL
MODEL        8
REMARK 921   NORMALIZED FREE ENERGY PREDICTED BY IDOCK:   -5.40 KCAL/MOL
REMARK 922        TOTAL FREE ENERGY PREDICTED BY IDOCK:   -7.53 KCAL/MOL
REMARK 923 INTER-LIGAND FREE ENERGY PREDICTED BY IDOCK:   -6.89 KCAL/MOL
REMARK 924 INTRA-LIGAND FREE ENERGY PREDICTED BY IDOCK:   -0.64 KCAL/MOL
REMARK 927      BINDING AFFINITY PREDICTED BY RF-SCORE:    0.00 PKD
ROOT
HETATM    1  C   UNL     1      -9.616  20.356  67.027  1.00  0.00    -0.571 C  
HETATM    2  C   UNL     1     -10.465  19.719  65.941  1.00  0.00    -0.486 C  
ENDROOT
BRANCH   2   3
HETATM    3  O   UNL     1     -10.875  18.427  66.410  1.00  0.00    -0.232 OA 
BRANCH   3   4
HETATM    4  C   UNL     1     -10.628  17.389  65.562  1.00  0.00    -0.108 C  
HETATM    5  O   UNL     1     -11.152  17.248  64.466  1.00  0.00    -1.082 OA 
BRANCH   4   6
HETATM    6  C   UNL     1      -9.586  16.562  66.112  1.00  0.00    -0.315 A  
HETATM    7  C   UNL     1      -8.235  16.832  66.224  1.00  0.00    -0.324 A  
HETATM    8  N   UNL     1      -7.549  15.776  66.752  1.00  0.00    -0.194 NA 
HETATM    9  C   UNL     1      -8.456  14.854  66.965  1.00  0.00    -0.231 A  
HETATM   10  N   UNL     1      -9.710  15.275  66.612  1.00  0.00    -0.240 NA 
BRANCH  10  11
HETATM   11  C   UNL     1     -10.957  14.513  66.792  1.00  0.00    -0.316 C  
HETATM   12  C   UNL     1     -11.001  13.876  68.184  1.00  0.00    -0.267 C  
BRANCH  11  13
HETATM   13  C   UNL     1     -11.214  13.537  65.647  1.00  0.00    -0.304 A  
HETATM   14  C   UNL     1     -10.605  12.269  65.677  1.00  0.00    -0.295 A  
HETATM   15  C   UNL     1     -10.773  11.369  64.623  1.00  0.00    -0.378 A  
HETATM   16  C   UNL     1     -11.558  11.717  63.527  1.00  0.00    -0.487 A  
HETATM   17  C   UNL     1     -12.187  12.957  63.491  1.00  0.00    -0.595 A  
HETATM   18  C   UNL     1     -12.021  13.860  64.543  1.00  0.00    -0.464 A  
ENDBRANCH  11  13
ENDBRANCH  10  11
ENDBRANCH   4   6
ENDBRANCH   3   4
ENDBRANCH   2   3
TORSDOF 5
ENDMDL
MODEL        9
REMARK 921   NORMALIZED FREE ENERGY PREDICTED BY IDOCK:   -5.38 KCAL/MOL
REMARK 922        TOTAL FREE ENERGY PREDICTED BY IDOCK:   -7.50 KCAL/MOL
REMARK 923 INTER-LIGAND FREE ENERGY PREDICTED BY IDOCK:   -6.80 KCAL/MOL
REMARK 924 INTRA-LIGAND FREE ENERGY PREDICTED BY IDOCK:   -0.70 KCAL/MOL
REMARK 927      BINDING AFFINITY PREDICTED BY RF-SCORE:    0.00 PKD
ROOT
HETATM    1  C   UNL     1     -10.760  19.105  67.332  1.00  0.00    -0.578 C  
HETATM    2  C   UNL     1     -10.059  17.793  67.636  1.00  0.00    -0.342 C  
ENDROOT
BRANCH   2   3
HETATM    3  O   UNL     1     -10.866  16.733  67.107  1.00  0.00    -0.236 OA 
BRANCH   3   4
HETATM    4  C   UNL     1     -10.299  16.007  66.103  1.00  0.00    -0.328 C  
HETATM    5  O   UNL     1      -9.191  16.221  65.633  1.00  0.00    -0.444 OA 
BRANCH   4   6
HETATM    6  C   UNL     1     -11.160  14.903  65.769  1.00  0.00    -0.342 A  
HETATM    7  C   UNL     1     -12.111  14.819  64.769  1.00  0.00    -0.381 A  
HETATM    8  N   UNL     1     -12.770  13.623  64.797  1.00  0.00    -0.680 NA 
HETATM    9  C   UNL     1     -12.243  12.967  65.801  1.00  0.00    -0.439 A  
HETATM   10  N   UNL     1     -11.253  13.682  66.419  1.00  0.00    -0.304 NA 
BRANCH  10  11
HETATM   11  C   UNL     1     -10.413  13.206  67.531  1.00  0.00    -0.228 C  
HETATM   12  C   UNL     1      -9.676  11.924  67.136  1.00  0.00    -0.194 C  
BRANCH  11  13
HETATM   13  C   UNL     1     -11.183  13.108  68.845  1.00  0.00    -0.324 A  
HETATM   14  C   UNL     1     -11.528  11.839  69.344  1.00  0.00    -0.371 A  
HETATM   15  C   UNL     1     -12.278  11.710  70.514  1.00  0.00    -0.451 A  
HETATM   16  C   UNL     1     -12.689  12.844  71.208  1.00  0.00    -0.371 A  
HETATM   17  C   UNL     1     -12.339  14.107  70.741  1.00  0.00    -0.439 A  
HETATM   18  C   UNL     1     -11.589  14.241  69.572  1.00  0.00    -0.353 A  
ENDBRANCH  11  13
ENDBRANCH  10  11
ENDBRANCH   4   6
ENDBRANCH   3   4
ENDBRANCH   2   3
TORSDOF 5
ENDMDL
MODEL       10
REMARK 921   NORMALIZED FREE ENERGY PREDICTED BY IDOCK:   -5.35 KCAL/MOL
REMARK 922        TOTAL FREE ENERGY PREDICTED BY IDOCK:   -7.46 KCAL/MOL
REMARK 923 INTER-LIGAND FREE ENERGY PREDICTED BY IDOCK:   -6.82 KCAL/MOL
REMARK 924 INTRA-LIGAND FREE ENERGY PREDICTED BY IDOCK:   -0.64 KCAL/MOL
REMARK 927      BINDING AFFINITY PREDICTED BY RF-SCORE:    0.00 PKD
ROOT
HETATM    1  C   UNL     1     -10.647  19.199  67.518  1.00  0.00    -0.567 C  
HETATM    2  C   UNL     1      -9.878  18.642  68.703  1.00  0.00    -0.385 C  
ENDROOT
BRANCH   2   3
HETATM    3  O   UNL     1     -10.517  17.423  69.105  1.00  0.00    -0.341 OA 
BRANCH   3   4
HETATM    4  C   UNL     1      -9.843  16.279  68.799  1.00  0.00    -0.238 C  
HETATM    5  O   UNL     1      -8.720  16.007  69.198  1.00  0.00    -0.236 OA 
BRANCH   4   6
HETATM    6  C   UNL     1     -10.700  15.412  68.033  1.00  0.00    -0.279 A  
HETATM    7  C   UNL     1     -11.067  15.513  66.703  1.00  0.00    -0.193 A  
HETATM    8  N   UNL     1     -11.943  14.530  66.344  1.00  0.00    -0.373 NA 
HETATM    9  C   UNL     1     -12.127  13.823  67.433  1.00  0.00    -0.343 A  
HETATM   10  N   UNL     1     -11.391  14.299  68.484  1.00  0.00    -0.266 NA 
BRANCH  10  11
HETATM   11  C   UNL     1     -11.312  13.693  69.824  1.00  0.00    -0.112 C  
HETATM   12  C   UNL     1     -11.669  12.205  69.762  1.00  0.00    -0.381 C  
BRANCH  11  13
HETATM   13  C   UNL     1     -12.095  14.483  70.869  1.00  0.00    -0.404 A  
HETATM   14  C   UNL     1     -11.396  15.300  71.777  1.00  0.00    -0.445 A  
HETATM   15  C   UNL     1     -12.072  15.996  72.780  1.00  0.00    -0.635 A  
HETATM   16  C   UNL     1     -13.456  15.895  72.888  1.00  0.00    -0.637 A  
HETATM   17  C   UNL     1     -14.167  15.111  71.985  1.00  0.00    -0.673 A  
HETATM   18  C   UNL     1     -13.494  14.412  70.981  1.00  0.00    -0.309 A  
ENDBRANCH  11  13
ENDBRANCH  10  11
ENDBRANCH   4   6
ENDBRANCH   3   4
ENDBRANCH   2   3
TORSDOF 5
ENDMDL
MODEL       11
REMARK 921   NORMALIZED FREE ENERGY PREDICTED BY IDOCK:   -5.33 KCAL/MOL
REMARK 922        TOTAL FREE ENERGY PREDICTED BY IDOCK:   -7.44 KCAL/MOL
REMARK 923 INTER-LIGAND FREE ENERGY PREDICTED BY IDOCK:   -7.08 KCAL/MOL
REMARK 924 INTRA-LIGAND FREE ENERGY PREDICTED BY IDOCK:   -0.36 KCAL/MOL
REMARK 927      BINDING AFFINITY PREDICTED BY RF-SCORE:    0.00 PKD
ROOT
HETATM    1  C   UNL     1     -12.518  15.701  73.886  1.00  0.00    -0.759 C  
HETATM    2  C   UNL     1     -12.995  14.558  73.008  1.00  0.00    -0.496 C  
ENDROOT
BRANCH   2   3
HETATM    3  O   UNL     1     -12.176  14.539  71.832  1.00  0.00    -0.337 OA 
BRANCH   3   4
HETATM    4  C   UNL     1     -12.705  15.153  70.737  1.00  0.00    -0.405 C  
HETATM    5  O   UNL     1     -13.873  15.501  70.633  1.00  0.00    -0.361 OA 
BRANCH   4   6
HETATM    6  C   UNL     1     -11.658  15.418  69.786  1.00  0.00    -0.323 A  
HETATM    7  C   UNL     1     -10.762  16.472  69.756  1.00  0.00    -0.298 A  
HETATM    8  N   UNL     1      -9.948  16.413  68.662  1.00  0.00    -0.225 NA 
HETATM    9  C   UNL     1     -10.328  15.340  68.012  1.00  0.00    -0.244 A  
HETATM   10  N   UNL     1     -11.349  14.688  68.649  1.00  0.00    -0.269 NA 
BRANCH  10  11
HETATM   11  C   UNL     1     -11.955  13.415  68.224  1.00  0.00    -0.317 C  
HETATM   12  C   UNL     1     -11.411  12.255  69.062  1.00  0.00    -0.349 C  
BRANCH  11  13
HETATM   13  C   UNL     1     -11.862  13.198  66.716  1.00  0.00    -0.444 A  
HETATM   14  C   UNL     1     -11.168  12.076  66.227  1.00  0.00    -0.394 A  
HETATM   15  C   UNL     1     -11.016  11.872  64.854  1.00  0.00    -0.367 A  
HETATM   16  C   UNL     1     -11.558  12.780  63.949  1.00  0.00    -0.518 A  
HETATM   17  C   UNL     1     -12.265  13.884  64.415  1.00  0.00    -0.449 A  
HETATM   18  C   UNL     1     -12.421  14.091  65.787  1.00  0.00    -0.523 A  
ENDBRANCH  11  13
ENDBRANCH  10  11
ENDBRANCH   4   6
ENDBRANCH   3   4
ENDBRANCH   2   3
TORSDOF 5
ENDMDL
MODEL       12
REMARK 921   NORMALIZED FREE ENERGY PREDICTED BY IDOCK:   -5.30 KCAL/MOL
REMARK 922        TOTAL FREE ENERGY PREDICTED BY IDOCK:   -7.39 KCAL/MOL
REMARK 923 INTER-LIGAND FREE ENERGY PREDICTED BY IDOCK:   -6.91 KCAL/MOL
REMARK 924 INTRA-LIGAND FREE ENERGY PREDICTED BY IDOCK:   -0.49 KCAL/MOL
REMARK 927      BINDING AFFINITY PREDICTED BY RF-SCORE:    0.00 PKD
ROOT
HETATM    1  C   UNL     1     -10.972  11.497  63.769  1.00  0.00    -0.485 C  
HETATM    2  C   UNL     1     -12.310  12.194  63.594  1.00  0.00    -0.568 C  
ENDROOT
BRANCH   2   3
HETATM    3  O   UNL     1     -12.094  13.602  63.759  1.00  0.00    -0.505 OA 
BRANCH   3   4
HETATM    4  C   UNL     1     -12.458  14.114  64.968  1.00  0.00    -0.419 C  
HETATM    5  O   UNL     1     -13.587  14.053  65.436  1.00  0.00    -0.593 OA 
BRANCH   4   6
HETATM    6  C   UNL     1     -11.294  14.632  65.637  1.00  0.00    -0.338 A  
HETATM    7  C   UNL     1     -10.182  15.244  65.089  1.00  0.00    -0.339 A  
HETATM    8  N   UNL     1      -9.253  15.552  66.042  1.00  0.00    -0.341 NA 
HETATM    9  C   UNL     1      -9.772  15.135  67.171  1.00  0.00    -0.228 A  
HETATM   10  N   UNL     1     -11.012  14.583  66.993  1.00  0.00    -0.305 NA 
BRANCH  10  11
HETATM   11  C   UNL     1     -11.895  14.088  68.063  1.00  0.00    -0.368 C  
HETATM   12  C   UNL     1     -11.901  15.058  69.247  1.00  0.00    -0.344 C  
BRANCH  11  13
HETATM   13  C   UNL     1     -11.598  12.639  68.440  1.00  0.00    -0.370 A  
HETATM   14  C   UNL     1     -11.224  11.731  67.433  1.00  0.00    -0.357 A  
HETATM   15  C   UNL     1     -10.996  10.386  67.730  1.00  0.00    -0.369 A  
HETATM   16  C   UNL     1     -11.131   9.928  69.038  1.00  0.00    -0.184 A  
HETATM   17  C   UNL     1     -11.478  10.816  70.051  1.00  0.00    -0.412 A  
HETATM   18  C   UNL     1     -11.707  12.162  69.757  1.00  0.00    -0.381 A  
ENDBRANCH  11  13
ENDBRANCH  10  11
ENDBRANCH   4   6
ENDBRANCH   3   4
ENDBRANCH   2   3
TORSDOF 5
ENDMDL
MODEL       13
REMARK 921   NORMALIZED FREE ENERGY PREDICTED BY IDOCK:   -5.22 KCAL/MOL
REMARK 922        TOTAL FREE ENERGY PREDICTED BY IDOCK:   -7.29 KCAL/MOL
REMARK 923 INTER-LIGAND FREE ENERGY PREDICTED BY IDOCK:   -6.97 KCAL/MOL
REMARK 924 INTRA-LIGAND FREE ENERGY PREDICTED BY IDOCK:   -0.33 KCAL/MOL
REMARK 927      BINDING AFFINITY PREDICTED BY RF-SCORE:    0.00 PKD
ROOT
HETATM    1  C   UNL     1     -12.822  15.400  70.993  1.00  0.00    -0.525 C  
HETATM    2  C   UNL     1     -11.601  15.567  70.106  1.00  0.00    -0.337 C  
ENDROOT
BRANCH   2   3
HETATM    3  O   UNL     1     -12.020  15.389  68.747  1.00  0.00    -0.331 OA 
BRANCH   3   4
HETATM    4  C   UNL     1     -11.394  14.391  68.064  1.00  0.00    -0.294 C  
HETATM    5  O   UNL     1     -10.831  13.439  68.587  1.00  0.00    -0.251 OA 
BRANCH   4   6
HETATM    6  C   UNL     1     -11.595  14.579  66.652  1.00  0.00    -0.375 A  
HETATM    7  C   UNL     1     -12.632  14.125  65.857  1.00  0.00    -0.417 A  
HETATM    8  N   UNL     1     -12.448  14.457  64.546  1.00  0.00    -0.660 NA 
HETATM    9  C   UNL     1     -11.310  15.107  64.515  1.00  0.00    -0.290 A  
HETATM   10  N   UNL     1     -10.754  15.226  65.761  1.00  0.00    -0.331 NA 
BRANCH  10  11
HETATM   11  C   UNL     1      -9.519  15.961  66.085  1.00  0.00    -0.340 C  
HETATM   12  C   UNL     1      -8.537  15.055  66.832  1.00  0.00    -0.280 C  
BRANCH  11  13
HETATM   13  C   UNL     1      -9.797  17.292  66.777  1.00  0.00    -0.296 A  
HETATM   14  C   UNL     1     -10.500  18.293  66.082  1.00  0.00    -0.403 A  
HETATM   15  C   UNL     1     -10.727  19.542  66.662  1.00  0.00    -0.552 A  
HETATM   16  C   UNL     1     -10.263  19.810  67.947  1.00  0.00    -0.576 A  
HETATM   17  C   UNL     1      -9.585  18.825  68.658  1.00  0.00    -0.432 A  
HETATM   18  C   UNL     1      -9.356  17.575  68.082  1.00  0.00    -0.276 A  
ENDBRANCH  11  13
ENDBRANCH  10  11
ENDBRANCH   4   6
ENDBRANCH   3   4
ENDBRANCH   2   3
TORSDOF 5
ENDMDL
MODEL       14
REMARK 921   NORMALIZED FREE ENERGY PREDICTED BY IDOCK:   -5.20 KCAL/MOL
REMARK 922        TOTAL FREE ENERGY PREDICTED BY IDOCK:   -7.26 KCAL/MOL
REMARK 923 INTER-LIGAND FREE ENERGY PREDICTED BY IDOCK:   -6.58 KCAL/MOL
REMARK 924 INTRA-LIGAND FREE ENERGY PREDICTED BY IDOCK:   -0.69 KCAL/MOL
REMARK 927      BINDING AFFINITY PREDICTED BY RF-SCORE:    0.00 PKD
ROOT
HETATM    1  C   UNL     1     -11.314  10.524  70.392  1.00  0.00    -0.411 C  
HETATM    2  C   UNL     1     -11.478  10.408  68.887  1.00  0.00    -0.186 C  
ENDROOT
BRANCH   2   3
HETATM    3  O   UNL     1     -12.221  11.550  68.440  1.00  0.00    -0.540 OA 
BRANCH   3   4
HETATM    4  C   UNL     1     -11.661  12.251  67.415  1.00  0.00    -0.355 C  
HETATM    5  O   UNL     1     -12.120  12.312  66.283  1.00  0.00    -0.626 OA 
BRANCH   4   6
HETATM    6  C   UNL     1     -10.521  12.982  67.903  1.00  0.00    -0.229 A  
HETATM    7  C   UNL     1      -9.182  12.645  67.834  1.00  0.00    -0.201 A  
HETATM    8  N   UNL     1      -8.395  13.567  68.462  1.00  0.00    -0.135 NA 
HETATM    9  C   UNL     1      -9.227  14.469  68.922  1.00  0.00    -0.118 A  
HETATM   10  N   UNL     1     -10.526  14.179  68.603  1.00  0.00    -0.246 NA 
BRANCH  10  11
HETATM   11  C   UNL     1     -11.696  15.022  68.904  1.00  0.00    -0.328 C  
HETATM   12  C   UNL     1     -11.481  16.444  68.380  1.00  0.00    -0.181 C  
BRANCH  11  13
HETATM   13  C   UNL     1     -12.105  14.949  70.373  1.00  0.00    -0.386 A  
HETATM   14  C   UNL     1     -11.656  15.944  71.260  1.00  0.00    -0.509 A  
HETATM   15  C   UNL     1     -11.965  15.883  72.620  1.00  0.00    -0.610 A  
HETATM   16  C   UNL     1     -12.733  14.832  73.114  1.00  0.00    -0.580 A  
HETATM   17  C   UNL     1     -13.204  13.851  72.248  1.00  0.00    -0.568 A  
HETATM   18  C   UNL     1     -12.898  13.909  70.888  1.00  0.00    -0.370 A  
ENDBRANCH  11  13
ENDBRANCH  10  11
ENDBRANCH   4   6
ENDBRANCH   3   4
ENDBRANCH   2   3
TORSDOF 5
ENDMDL
MODEL       15
REMARK 921   NORMALIZED FREE ENERGY PREDICTED BY IDOCK:   -5.18 KCAL/MOL
REMARK 922        TOTAL FREE ENERGY PREDICTED BY IDOCK:   -7.24 KCAL/MOL
REMARK 923 INTER-LIGAND FREE ENERGY PREDICTED BY IDOCK:   -6.39 KCAL/MOL
REMARK 924 INTRA-LIGAND FREE ENERGY PREDICTED BY IDOCK:   -0.85 KCAL/MOL
REMARK 927      BINDING AFFINITY PREDICTED BY RF-SCORE:    0.00 PKD
ROOT
HETATM    1  C   UNL     1     -10.271  10.859  64.143  1.00  0.00    -0.424 C  
HETATM    2  C   UNL     1     -11.481  11.634  63.651  1.00  0.00    -0.363 C  
ENDROOT
BRANCH   2   3
HETATM    3  O   UNL     1     -11.220  13.029  63.858  1.00  0.00    -0.394 OA 
BRANCH   3   4
HETATM    4  C   UNL     1     -12.120  13.685  64.642  1.00  0.00    -0.412 C  
HETATM    5  O   UNL     1     -13.252  13.288  64.880  1.00  0.00    -0.703 OA 
BRANCH   4   6
HETATM    6  C   UNL     1     -11.492  14.843  65.221  1.00  0.00    -0.336 A  
HETATM    7  C   UNL     1     -10.923  15.929  64.582  1.00  0.00    -0.305 A  
HETATM    8  N   UNL     1     -10.374  16.809  65.470  1.00  0.00    -0.606 NA 
HETATM    9  C   UNL     1     -10.592  16.282  66.650  1.00  0.00    -0.252 A  
HETATM   10  N   UNL     1     -11.278  15.100  66.566  1.00  0.00    -0.322 NA 
BRANCH  10  11
HETATM   11  C   UNL     1     -11.745  14.293  67.706  1.00  0.00    -0.374 C  
HETATM   12  C   UNL     1     -11.754  15.128  68.988  1.00  0.00    -0.358 C  
BRANCH  11  13
HETATM   13  C   UNL     1     -10.999  12.966  67.826  1.00  0.00    -0.269 A  
HETATM   14  C   UNL     1      -9.594  12.962  67.760  1.00  0.00    -0.212 A  
HETATM   15  C   UNL     1      -8.879  11.764  67.813  1.00  0.00    -0.163 A  
HETATM   16  C   UNL     1      -9.554  10.554  67.939  1.00  0.00    -0.164 A  
HETATM   17  C   UNL     1     -10.942  10.540  68.028  1.00  0.00    -0.345 A  
HETATM   18  C   UNL     1     -11.661  11.736  67.976  1.00  0.00    -0.386 A  
ENDBRANCH  11  13
ENDBRANCH  10  11
ENDBRANCH   4   6
ENDBRANCH   3   4
ENDBRANCH   2   3
TORSDOF 5
ENDMDL
MODEL       16
REMARK 921   NORMALIZED FREE ENERGY PREDICTED BY IDOCK:   -5.17 KCAL/MOL
REMARK 922        TOTAL FREE ENERGY PREDICTED BY IDOCK:   -7.23 KCAL/MOL
REMARK 923 INTER-LIGAND FREE ENERGY PREDICTED BY IDOCK:   -6.61 KCAL/MOL
REMARK 924 INTRA-LIGAND FREE ENERGY PREDICTED BY IDOCK:   -0.62 KCAL/MOL
REMARK 927      BINDING AFFINITY PREDICTED BY RF-SCORE:    0.00 PKD
ROOT
HETATM    1  C   UNL     1     -13.150  10.575  71.813  1.00  0.00    -0.570 C  
HETATM    2  C   UNL     1     -12.125  10.138  70.782  1.00  0.00    -0.343 C  
ENDROOT
BRANCH   2   3
HETATM    3  O   UNL     1     -11.416  11.306  70.348  1.00  0.00    -0.271 OA 
BRANCH   3   4
HETATM    4  C   UNL     1     -11.819  11.830  69.157  1.00  0.00    -0.326 C  
HETATM    5  O   UNL     1     -12.263  11.174  68.225  1.00  0.00    -0.613 OA 
BRANCH   4   6
HETATM    6  C   UNL     1     -11.742  13.266  69.216  1.00  0.00    -0.326 A  
HETATM    7  C   UNL     1     -12.385  14.132  70.081  1.00  0.00    -0.351 A  
HETATM    8  N   UNL     1     -12.104  15.437  69.792  1.00  0.00    -0.350 NA 
HETATM    9  C   UNL     1     -11.299  15.391  68.759  1.00  0.00    -0.320 A  
HETATM   10  N   UNL     1     -11.030  14.105  68.374  1.00  0.00    -0.246 NA 
BRANCH  10  11
HETATM   11  C   UNL     1     -10.108  13.704  67.298  1.00  0.00    -0.239 C  
HETATM   12  C   UNL     1      -8.928  14.676  67.211  1.00  0.00    -0.216 C  
BRANCH  11  13
HETATM   13  C   UNL     1     -10.825  13.467  65.972  1.00  0.00    -0.282 A  
HETATM   14  C   UNL     1     -10.690  12.221  65.332  1.00  0.00    -0.320 A  
HETATM   15  C   UNL     1     -11.287  11.985  64.093  1.00  0.00    -0.455 A  
HETATM   16  C   UNL     1     -12.034  12.985  63.476  1.00  0.00    -0.615 A  
HETATM   17  C   UNL     1     -12.197  14.216  64.104  1.00  0.00    -0.423 A  
HETATM   18  C   UNL     1     -11.601  14.456  65.344  1.00  0.00    -0.347 A  
ENDBRANCH  11  13
ENDBRANCH  10  11
ENDBRANCH   4   6
ENDBRANCH   3   4
ENDBRANCH   2   3
TORSDOF 5
ENDMDL
MODEL       17
REMARK 921   NORMALIZED FREE ENERGY PREDICTED BY IDOCK:   -5.13 KCAL/MOL
REMARK 922        TOTAL FREE ENERGY PREDICTED BY IDOCK:   -7.17 KCAL/MOL
REMARK 923 INTER-LIGAND FREE ENERGY PREDICTED BY IDOCK:   -6.50 KCAL/MOL
REMARK 924 INTRA-LIGAND FREE ENERGY PREDICTED BY IDOCK:   -0.67 KCAL/MOL
REMARK 927      BINDING AFFINITY PREDICTED BY RF-SCORE:    0.00 PKD
ROOT
HETATM    1  C   UNL     1     -12.124  11.124  70.023  1.00  0.00    -0.437 C  
HETATM    2  C   UNL     1     -11.289  10.649  68.847  1.00  0.00    -0.274 C  
ENDROOT
BRANCH   2   3
HETATM    3  O   UNL     1     -11.951  11.065  67.645  1.00  0.00    -0.583 OA 
BRANCH   3   4
HETATM    4  C   UNL     1     -11.133  11.370  66.599  1.00  0.00    -0.271 C  
HETATM    5  O   UNL     1     -10.146  10.724  66.279  1.00  0.00    -0.217 OA 
BRANCH   4   6
HETATM    6  C   UNL     1     -11.675  12.494  65.882  1.00  0.00    -0.426 A  
HETATM    7  C   UNL     1     -12.405  12.500  64.707  1.00  0.00    -0.474 A  
HETATM    8  N   UNL     1     -12.699  13.769  64.300  1.00  0.00    -0.653 NA 
HETATM    9  C   UNL     1     -12.159  14.550  65.204  1.00  0.00    -0.363 A  
HETATM   10  N   UNL     1     -11.539  13.837  66.195  1.00  0.00    -0.339 NA 
BRANCH  10  11
HETATM   11  C   UNL     1     -10.900  14.405  67.394  1.00  0.00    -0.292 C  
HETATM   12  C   UNL     1     -11.906  14.500  68.544  1.00  0.00    -0.355 C  
BRANCH  11  13
HETATM   13  C   UNL     1     -10.159  15.706  67.099  1.00  0.00    -0.256 A  
HETATM   14  C   UNL     1      -8.925  15.655  66.426  1.00  0.00    -0.362 A  
HETATM   15  C   UNL     1      -8.192  16.818  66.185  1.00  0.00    -0.300 A  
HETATM   16  C   UNL     1      -8.681  18.051  66.606  1.00  0.00    -0.276 A  
HETATM   17  C   UNL     1      -9.910  18.124  67.255  1.00  0.00    -0.316 A  
HETATM   18  C   UNL     1     -10.646  16.963  67.497  1.00  0.00    -0.307 A  
ENDBRANCH  11  13
ENDBRANCH  10  11
ENDBRANCH   4   6
ENDBRANCH   3   4
ENDBRANCH   2   3
TORSDOF 5
ENDMDL
MODEL       18
REMARK 921   NORMALIZED FREE ENERGY PREDICTED BY IDOCK:   -5.10 KCAL/MOL
REMARK 922        TOTAL FREE ENERGY PREDICTED BY IDOCK:   -7.14 KCAL/MOL
REMARK 923 INTER-LIGAND FREE ENERGY PREDICTED BY IDOCK:   -6.47 KCAL/MOL
REMARK 924 INTRA-LIGAND FREE ENERGY PREDICTED BY IDOCK:   -0.68 KCAL/MOL
REMARK 927      BINDING AFFINITY PREDICTED BY RF-SCORE:    0.00 PKD
ROOT
HETATM    1  C   UNL     1     -11.654  15.232  71.544  1.00  0.00    -0.456 C  
HETATM    2  C   UNL     1     -11.267  15.848  70.211  1.00  0.00    -0.380 C  
ENDROOT
BRANCH   2   3
HETATM    3  O   UNL     1     -11.873  15.064  69.175  1.00  0.00    -0.302 OA 
BRANCH   3   4
HETATM    4  C   UNL     1     -11.352  15.234  67.928  1.00  0.00    -0.334 C  
HETATM    5  O   UNL     1     -10.712  16.213  67.571  1.00  0.00    -0.311 OA 
BRANCH   4   6
HETATM    6  C   UNL     1     -11.580  14.045  67.150  1.00  0.00    -0.372 A  
HETATM    7  C   UNL     1     -12.295  13.905  65.974  1.00  0.00    -0.475 A  
HETATM    8  N   UNL     1     -12.337  12.605  65.559  1.00  0.00    -0.632 NA 
HETATM    9  C   UNL     1     -11.661  11.937  66.463  1.00  0.00    -0.255 A  
HETATM   10  N   UNL     1     -11.165  12.755  67.442  1.00  0.00    -0.278 NA 
BRANCH  10  11
HETATM   11  C   UNL     1     -10.304  12.336  68.560  1.00  0.00    -0.223 C  
HETATM   12  C   UNL     1      -8.954  11.835  68.039  1.00  0.00    -0.176 C  
BRANCH  11  13
HETATM   13  C   UNL     1     -11.008  11.370  69.509  1.00  0.00    -0.226 A  
HETATM   14  C   UNL     1     -12.136  11.812  70.225  1.00  0.00    -0.426 A  
HETATM   15  C   UNL     1     -12.775  10.976  71.141  1.00  0.00    -0.521 A  
HETATM   16  C   UNL     1     -12.304   9.683  71.352  1.00  0.00    -0.468 A  
HETATM   17  C   UNL     1     -11.204   9.220  70.637  1.00  0.00    -0.333 A  
HETATM   18  C   UNL     1     -10.562  10.054  69.720  1.00  0.00    -0.301 A  
ENDBRANCH  11  13
ENDBRANCH  10  11
ENDBRANCH   4   6
ENDBRANCH   3   4
ENDBRANCH   2   3
TORSDOF 5
ENDMDL
MODEL       19
REMARK 921   NORMALIZED FREE ENERGY PREDICTED BY IDOCK:   -5.09 KCAL/MOL
REMARK 922        TOTAL FREE ENERGY PREDICTED BY IDOCK:   -7.13 KCAL/MOL
REMARK 923 INTER-LIGAND FREE ENERGY PREDICTED BY IDOCK:   -6.60 KCAL/MOL
REMARK 924 INTRA-LIGAND FREE ENERGY PREDICTED BY IDOCK:   -0.53 KCAL/MOL
REMARK 927      BINDING AFFINITY PREDICTED BY RF-SCORE:    0.00 PKD
ROOT
HETATM    1  C   UNL     1     -13.138  10.648  71.650  1.00  0.00    -0.555 C  
HETATM    2  C   UNL     1     -12.118  10.243  70.601  1.00  0.00    -0.338 C  
ENDROOT
BRANCH   2   3
HETATM    3  O   UNL     1     -11.424  11.428  70.186  1.00  0.00    -0.288 OA 
BRANCH   3   4
HETATM    4  C   UNL     1     -11.766  11.908  68.959  1.00  0.00    -0.331 C  
HETATM    5  O   UNL     1     -12.160  11.219  68.028  1.00  0.00    -0.638 OA 
BRANCH   4   6
HETATM    6  C   UNL     1     -11.691  13.346  68.972  1.00  0.00    -0.323 A  
HETATM    7  C   UNL     1     -12.365  14.240  69.784  1.00  0.00    -0.292 A  
HETATM    8  N   UNL     1     -12.075  15.534  69.461  1.00  0.00    -0.337 NA 
HETATM    9  C   UNL     1     -11.235  15.455  68.458  1.00  0.00    -0.318 A  
HETATM   10  N   UNL     1     -10.952  14.158  68.126  1.00  0.00    -0.243 NA 
BRANCH  10  11
HETATM   11  C   UNL     1      -9.993  13.722  67.097  1.00  0.00    -0.243 C  
HETATM   12  C   UNL     1      -8.815  14.696  67.014  1.00  0.00    -0.262 C  
BRANCH  11  13
HETATM   13  C   UNL     1     -10.665  13.435  65.757  1.00  0.00    -0.280 A  
HETATM   14  C   UNL     1     -11.672  14.302  65.295  1.00  0.00    -0.357 A  
HETATM   15  C   UNL     1     -12.347  14.044  64.101  1.00  0.00    -0.374 A  
HETATM   16  C   UNL     1     -12.022  12.920  63.345  1.00  0.00    -0.612 A  
HETATM   17  C   UNL     1     -11.015  12.063  63.775  1.00  0.00    -0.492 A  
HETATM   18  C   UNL     1     -10.337  12.318  64.969  1.00  0.00    -0.321 A  
ENDBRANCH  11  13
ENDBRANCH  10  11
ENDBRANCH   4   6
ENDBRANCH   3   4
ENDBRANCH   2   3
TORSDOF 5
ENDMDL
MODEL       20
REMARK 921   NORMALIZED FREE ENERGY PREDICTED BY IDOCK:   -5.08 KCAL/MOL
REMARK 922        TOTAL FREE ENERGY PREDICTED BY IDOCK:   -7.11 KCAL/MOL
REMARK 923 INTER-LIGAND FREE ENERGY PREDICTED BY IDOCK:   -6.39 KCAL/MOL
REMARK 924 INTRA-LIGAND FREE ENERGY PREDICTED BY IDOCK:   -0.72 KCAL/MOL
REMARK 927      BINDING AFFINITY PREDICTED BY RF-SCORE:    0.00 PKD
ROOT
HETATM    1  C   UNL     1     -12.180  10.843  69.980  1.00  0.00    -0.422 C  
HETATM    2  C   UNL     1     -11.107  10.573  68.940  1.00  0.00    -0.261 C  
ENDROOT
BRANCH   2   3
HETATM    3  O   UNL     1     -11.705  10.725  67.646  1.00  0.00    -0.538 OA 
BRANCH   3   4
HETATM    4  C   UNL     1     -10.911  11.290  66.695  1.00  0.00    -0.273 C  
HETATM    5  O   UNL     1      -9.812  10.865  66.365  1.00  0.00    -0.194 OA 
BRANCH   4   6
HETATM    6  C   UNL     1     -11.612  12.385  66.076  1.00  0.00    -0.401 A  
HETATM    7  C   UNL     1     -12.381  12.381  64.927  1.00  0.00    -0.402 A  
HETATM    8  N   UNL     1     -12.841  13.630  64.622  1.00  0.00    -0.677 NA 
HETATM    9  C   UNL     1     -12.366  14.407  65.564  1.00  0.00    -0.345 A  
HETATM   10  N   UNL     1     -11.627  13.710  66.481  1.00  0.00    -0.349 NA 
BRANCH  10  11
HETATM   11  C   UNL     1     -11.016  14.270  67.699  1.00  0.00    -0.277 C  
HETATM   12  C   UNL     1     -12.035  14.307  68.842  1.00  0.00    -0.356 C  
BRANCH  11  13
HETATM   13  C   UNL     1     -10.312  15.599  67.442  1.00  0.00    -0.275 A  
HETATM   14  C   UNL     1     -10.829  16.772  68.021  1.00  0.00    -0.341 A  
HETATM   15  C   UNL     1     -10.245  18.014  67.766  1.00  0.00    -0.385 A  
HETATM   16  C   UNL     1      -9.132  18.104  66.935  1.00  0.00    -0.276 A  
HETATM   17  C   UNL     1      -8.593  16.952  66.371  1.00  0.00    -0.328 A  
HETATM   18  C   UNL     1      -9.175  15.708  66.624  1.00  0.00    -0.294 A  
ENDBRANCH  11  13
ENDBRANCH  10  11
ENDBRANCH   4   6
ENDBRANCH   3   4
ENDBRANCH   2   3
TORSDOF 5
ENDMDL
MODEL       21
REMARK 921   NORMALIZED FREE ENERGY PREDICTED BY IDOCK:   -5.07 KCAL/MOL
REMARK 922        TOTAL FREE ENERGY PREDICTED BY IDOCK:   -7.10 KCAL/MOL
REMARK 923 INTER-LIGAND FREE ENERGY PREDICTED BY IDOCK:   -6.51 KCAL/MOL
REMARK 924 INTRA-LIGAND FREE ENERGY PREDICTED BY IDOCK:   -0.59 KCAL/MOL
REMARK 927      BINDING AFFINITY PREDICTED BY RF-SCORE:    0.00 PKD
ROOT
HETATM    1  C   UNL     1     -13.471  15.329  71.354  1.00  0.00    -0.588 C  
HETATM    2  C   UNL     1     -12.475  14.781  70.347  1.00  0.00    -0.349 C  
ENDROOT
BRANCH   2   3
HETATM    3  O   UNL     1     -12.124  15.847  69.455  1.00  0.00    -0.330 OA 
BRANCH   3   4
HETATM    4  C   UNL     1     -10.790  16.077  69.311  1.00  0.00    -0.300 C  
HETATM    5  O   UNL     1      -9.956  15.900  70.188  1.00  0.00    -0.161 OA 
BRANCH   4   6
HETATM    6  C   UNL     1     -10.514  16.450  67.948  1.00  0.00    -0.307 A  
HETATM    7  C   UNL     1     -10.444  17.716  67.395  1.00  0.00    -0.356 A  
HETATM    8  N   UNL     1     -10.215  17.668  66.050  1.00  0.00    -0.524 NA 
HETATM    9  C   UNL     1     -10.146  16.391  65.761  1.00  0.00    -0.327 A  
HETATM   10  N   UNL     1     -10.304  15.605  66.870  1.00  0.00    -0.286 NA 
BRANCH  10  11
HETATM   11  C   UNL     1     -10.207  14.136  66.905  1.00  0.00    -0.267 C  
HETATM   12  C   UNL     1      -8.749  13.697  67.066  1.00  0.00    -0.204 C  
BRANCH  11  13
HETATM   13  C   UNL     1     -10.935  13.475  65.737  1.00  0.00    -0.285 A  
HETATM   14  C   UNL     1     -10.190  13.019  64.634  1.00  0.00    -0.324 A  
HETATM   15  C   UNL     1     -10.825  12.458  63.524  1.00  0.00    -0.487 A  
HETATM   16  C   UNL     1     -12.211  12.337  63.501  1.00  0.00    -0.669 A  
HETATM   17  C   UNL     1     -12.963  12.761  64.592  1.00  0.00    -0.231 A  
HETATM   18  C   UNL     1     -12.332  13.323  65.704  1.00  0.00    -0.521 A  
ENDBRANCH  11  13
ENDBRANCH  10  11
ENDBRANCH   4   6
ENDBRANCH   3   4
ENDBRANCH   2   3
TORSDOF 5
ENDMDL
MODEL       22
REMARK 921   NORMALIZED FREE ENERGY PREDICTED BY IDOCK:   -5.01 KCAL/MOL
REMARK 922        TOTAL FREE ENERGY PREDICTED BY IDOCK:   -7.03 KCAL/MOL
REMARK 923 INTER-LIGAND FREE ENERGY PREDICTED BY IDOCK:   -6.33 KCAL/MOL
REMARK 924 INTRA-LIGAND FREE ENERGY PREDICTED BY IDOCK:   -0.70 KCAL/MOL
REMARK 927      BINDING AFFINITY PREDICTED BY RF-SCORE:    0.00 PKD
ROOT
HETATM    1  C   UNL     1      -9.657  20.515  67.238  1.00  0.00    -0.580 C  
HETATM    2  C   UNL     1     -10.403  19.642  66.245  1.00  0.00    -0.518 C  
ENDROOT
BRANCH   2   3
HETATM    3  O   UNL     1     -10.863  18.479  66.946  1.00  0.00    -0.337 OA 
BRANCH   3   4
HETATM    4  C   UNL     1     -10.292  17.302  66.567  1.00  0.00    -0.308 C  
HETATM    5  O   UNL     1     -10.344  16.836  65.438  1.00  0.00    -0.597 OA 
BRANCH   4   6
HETATM    6  C   UNL     1      -9.540  16.762  67.669  1.00  0.00    -0.244 A  
HETATM    7  C   UNL     1      -8.209  16.962  67.989  1.00  0.00    -0.203 A  
HETATM    8  N   UNL     1      -7.836  16.234  69.082  1.00  0.00    -0.242 NA 
HETATM    9  C   UNL     1      -8.915  15.581  69.441  1.00  0.00    -0.275 A  
HETATM   10  N   UNL     1      -9.982  15.871  68.634  1.00  0.00    -0.208 NA 
BRANCH  10  11
HETATM   11  C   UNL     1     -11.355  15.365  68.808  1.00  0.00    -0.320 C  
HETATM   12  C   UNL     1     -11.924  15.812  70.157  1.00  0.00    -0.364 C  
BRANCH  11  13
HETATM   13  C   UNL     1     -11.462  13.866  68.547  1.00  0.00    -0.346 A  
HETATM   14  C   UNL     1     -11.225  13.377  67.249  1.00  0.00    -0.319 A  
HETATM   15  C   UNL     1     -11.365  12.019  66.958  1.00  0.00    -0.396 A  
HETATM   16  C   UNL     1     -11.737  11.126  67.960  1.00  0.00    -0.288 A  
HETATM   17  C   UNL     1     -11.954  11.588  69.254  1.00  0.00    -0.397 A  
HETATM   18  C   UNL     1     -11.815  12.945  69.548  1.00  0.00    -0.383 A  
ENDBRANCH  11  13
ENDBRANCH  10  11
ENDBRANCH   4   6
ENDBRANCH   3   4
ENDBRANCH   2   3
TORSDOF 5
ENDMDL
MODEL       23
REMARK 921   NORMALIZED FREE ENERGY PREDICTED BY IDOCK:   -5.00 KCAL/MOL
REMARK 922        TOTAL FREE ENERGY PREDICTED BY IDOCK:   -7.01 KCAL/MOL
REMARK 923 INTER-LIGAND FREE ENERGY PREDICTED BY IDOCK:   -6.48 KCAL/MOL
REMARK 924 INTRA-LIGAND FREE ENERGY PREDICTED BY IDOCK:   -0.53 KCAL/MOL
REMARK 927      BINDING AFFINITY PREDICTED BY RF-SCORE:    0.00 PKD
ROOT
HETATM    1  C   UNL     1     -11.306  14.280  64.788  1.00  0.00    -0.382 C  
HETATM    2  C   UNL     1     -12.184  13.387  65.647  1.00  0.00    -0.463 C  
ENDROOT
BRANCH   2   3
HETATM    3  O   UNL     1     -12.371  14.042  66.909  1.00  0.00    -0.418 OA 
BRANCH   3   4
HETATM    4  C   UNL     1     -11.675  13.513  67.953  1.00  0.00    -0.357 C  
HETATM    5  O   UNL     1     -11.032  12.474  67.904  1.00  0.00    -0.211 OA 
BRANCH   4   6
HETATM    6  C   UNL     1     -11.730  14.419  69.070  1.00  0.00    -0.310 A  
HETATM    7  C   UNL     1     -12.596  14.413  70.148  1.00  0.00    -0.286 A  
HETATM    8  N   UNL     1     -12.375  15.471  70.981  1.00  0.00    -0.383 NA 
HETATM    9  C   UNL     1     -11.386  16.135  70.434  1.00  0.00    -0.363 A  
HETATM   10  N   UNL     1     -10.943  15.540  69.284  1.00  0.00    -0.249 NA 
BRANCH  10  11
HETATM   11  C   UNL     1      -9.801  15.988  68.468  1.00  0.00    -0.216 C  
HETATM   12  C   UNL     1      -8.501  15.902  69.270  1.00  0.00    -0.242 C  
BRANCH  11  13
HETATM   13  C   UNL     1     -10.048  17.345  67.814  1.00  0.00    -0.323 A  
HETATM   14  C   UNL     1      -9.989  18.507  68.605  1.00  0.00    -0.419 A  
HETATM   15  C   UNL     1     -10.260  19.761  68.055  1.00  0.00    -0.581 A  
HETATM   16  C   UNL     1     -10.588  19.876  66.707  1.00  0.00    -0.536 A  
HETATM   17  C   UNL     1     -10.630  18.740  65.905  1.00  0.00    -0.405 A  
HETATM   18  C   UNL     1     -10.359  17.484  66.451  1.00  0.00    -0.334 A  
ENDBRANCH  11  13
ENDBRANCH  10  11
ENDBRANCH   4   6
ENDBRANCH   3   4
ENDBRANCH   2   3
TORSDOF 5
ENDMDL
MODEL       24
REMARK 921   NORMALIZED FREE ENERGY PREDICTED BY IDOCK:   -4.99 KCAL/MOL
REMARK 922        TOTAL FREE ENERGY PREDICTED BY IDOCK:   -7.00 KCAL/MOL
REMARK 923 INTER-LIGAND FREE ENERGY PREDICTED BY IDOCK:   -6.59 KCAL/MOL
REMARK 924 INTRA-LIGAND FREE ENERGY PREDICTED BY IDOCK:   -0.41 KCAL/MOL
REMARK 927      BINDING AFFINITY PREDICTED BY RF-SCORE:    0.00 PKD
ROOT
HETATM    1  C   UNL     1     -10.867  10.349  67.600  1.00  0.00    -0.361 C  
HETATM    2  C   UNL     1     -11.168  11.632  66.846  1.00  0.00    -0.313 C  
ENDROOT
BRANCH   2   3
HETATM    3  O   UNL     1     -12.043  12.422  67.661  1.00  0.00    -0.470 OA 
BRANCH   3   4
HETATM    4  C   UNL     1     -11.863  13.770  67.579  1.00  0.00    -0.387 C  
HETATM    5  O   UNL     1     -11.953  14.422  66.548  1.00  0.00    -0.404 OA 
BRANCH   4   6
HETATM    6  C   UNL     1     -11.663  14.305  68.901  1.00  0.00    -0.328 A  
HETATM    7  C   UNL     1     -12.383  14.054  70.054  1.00  0.00    -0.337 A  
HETATM    8  N   UNL     1     -11.925  14.794  71.107  1.00  0.00    -0.319 NA 
HETATM    9  C   UNL     1     -10.935  15.502  70.621  1.00  0.00    -0.342 A  
HETATM   10  N   UNL     1     -10.718  15.239  69.296  1.00  0.00    -0.240 NA 
BRANCH  10  11
HETATM   11  C   UNL     1      -9.639  15.808  68.471  1.00  0.00    -0.204 C  
HETATM   12  C   UNL     1      -8.289  15.661  69.177  1.00  0.00    -0.251 C  
BRANCH  11  13
HETATM   13  C   UNL     1      -9.950  17.226  68.000  1.00  0.00    -0.304 A  
HETATM   14  C   UNL     1     -10.173  17.461  66.631  1.00  0.00    -0.324 A  
HETATM   15  C   UNL     1     -10.408  18.752  66.155  1.00  0.00    -0.494 A  
HETATM   16  C   UNL     1     -10.431  19.828  67.039  1.00  0.00    -0.595 A  
HETATM   17  C   UNL     1     -10.234  19.612  68.399  1.00  0.00    -0.553 A  
HETATM   18  C   UNL     1      -9.999  18.322  68.879  1.00  0.00    -0.361 A  
ENDBRANCH  11  13
ENDBRANCH  10  11
ENDBRANCH   4   6
ENDBRANCH   3   4
ENDBRANCH   2   3
TORSDOF 5
ENDMDL
MODEL       25
REMARK 921   NORMALIZED FREE ENERGY PREDICTED BY IDOCK:   -4.90 KCAL/MOL
REMARK 922        TOTAL FREE ENERGY PREDICTED BY IDOCK:   -6.89 KCAL/MOL
REMARK 923 INTER-LIGAND FREE ENERGY PREDICTED BY IDOCK:   -6.29 KCAL/MOL
REMARK 924 INTRA-LIGAND FREE ENERGY PREDICTED BY IDOCK:   -0.59 KCAL/MOL
REMARK 927      BINDING AFFINITY PREDICTED BY RF-SCORE:    0.00 PKD
ROOT
HETATM    1  C   UNL     1     -12.241  15.081  73.705  1.00  0.00    -0.628 C  
HETATM    2  C   UNL     1     -12.062  15.981  72.495  1.00  0.00    -0.537 C  
ENDROOT
BRANCH   2   3
HETATM    3  O   UNL     1     -11.188  15.310  71.577  1.00  0.00    -0.379 OA 
BRANCH   3   4
HETATM    4  C   UNL     1     -11.736  14.995  70.370  1.00  0.00    -0.291 C  
HETATM    5  O   UNL     1     -12.767  14.354  70.222  1.00  0.00    -0.348 OA 
BRANCH   4   6
HETATM    6  C   UNL     1     -10.974  15.622  69.323  1.00  0.00    -0.267 A  
HETATM    7  C   UNL     1     -10.722  16.967  69.122  1.00  0.00    -0.298 A  
HETATM    8  N   UNL     1     -10.002  17.182  67.982  1.00  0.00    -0.282 NA 
HETATM    9  C   UNL     1      -9.807  15.991  67.472  1.00  0.00    -0.235 A  
HETATM   10  N   UNL     1     -10.358  15.005  68.245  1.00  0.00    -0.233 NA 
BRANCH  10  11
HETATM   11  C   UNL     1     -10.256  13.557  67.995  1.00  0.00    -0.243 C  
HETATM   12  C   UNL     1      -8.848  13.053  68.323  1.00  0.00    -0.172 C  
BRANCH  11  13
HETATM   13  C   UNL     1     -10.754  13.168  66.606  1.00  0.00    -0.286 A  
HETATM   14  C   UNL     1     -12.115  13.340  66.293  1.00  0.00    -0.472 A  
HETATM   15  C   UNL     1     -12.619  12.947  65.052  1.00  0.00    -0.538 A  
HETATM   16  C   UNL     1     -11.772  12.383  64.102  1.00  0.00    -0.476 A  
HETATM   17  C   UNL     1     -10.419  12.226  64.385  1.00  0.00    -0.355 A  
HETATM   18  C   UNL     1      -9.911  12.618  65.625  1.00  0.00    -0.253 A  
ENDBRANCH  11  13
ENDBRANCH  10  11
ENDBRANCH   4   6
ENDBRANCH   3   4
ENDBRANCH   2   3
TORSDOF 5
ENDMDL
MODEL       26
REMARK 921   NORMALIZED FREE ENERGY PREDICTED BY IDOCK:   -4.90 KCAL/MOL
REMARK 922        TOTAL FREE ENERGY PREDICTED BY IDOCK:   -6.88 KCAL/MOL
REMARK 923 INTER-LIGAND FREE ENERGY PREDICTED BY IDOCK:   -6.26 KCAL/MOL
REMARK 924 INTRA-LIGAND FREE ENERGY PREDICTED BY IDOCK:   -0.62 KCAL/MOL
REMARK 927      BINDING AFFINITY PREDICTED BY RF-SCORE:    0.00 PKD
ROOT
HETATM    1  C   UNL     1     -11.944  15.888  71.893  1.00  0.00    -0.588 C  
HETATM    2  C   UNL     1     -12.308  15.209  70.585  1.00  0.00    -0.368 C  
ENDROOT
BRANCH   2   3
HETATM    3  O   UNL     1     -11.120  14.595  70.067  1.00  0.00    -0.235 OA 
BRANCH   3   4
HETATM    4  C   UNL     1     -11.208  14.130  68.790  1.00  0.00    -0.268 C  
HETATM    5  O   UNL     1     -12.222  13.662  68.290  1.00  0.00    -0.329 OA 
BRANCH   4   6
HETATM    6  C   UNL     1      -9.966  14.376  68.105  1.00  0.00    -0.223 A  
HETATM    7  C   UNL     1      -8.763  13.705  68.227  1.00  0.00    -0.171 A  
HETATM    8  N   UNL     1      -7.790  14.266  67.452  1.00  0.00    -0.192 NA 
HETATM    9  C   UNL     1      -8.371  15.278  66.854  1.00  0.00    -0.243 A  
HETATM   10  N   UNL     1      -9.692  15.387  67.198  1.00  0.00    -0.215 NA 
BRANCH  10  11
HETATM   11  C   UNL     1     -10.645  16.366  66.650  1.00  0.00    -0.239 C  
HETATM   12  C   UNL     1     -10.782  16.194  65.135  1.00  0.00    -0.391 C  
BRANCH  11  13
HETATM   13  C   UNL     1     -10.335  17.794  67.094  1.00  0.00    -0.354 A  
HETATM   14  C   UNL     1     -10.440  18.840  66.159  1.00  0.00    -0.499 A  
HETATM   15  C   UNL     1     -10.114  20.150  66.512  1.00  0.00    -0.577 A  
HETATM   16  C   UNL     1      -9.686  20.438  67.805  1.00  0.00    -0.487 A  
HETATM   17  C   UNL     1      -9.597  19.420  68.749  1.00  0.00    -0.495 A  
HETATM   18  C   UNL     1      -9.923  18.108  68.399  1.00  0.00    -0.392 A  
ENDBRANCH  11  13
ENDBRANCH  10  11
ENDBRANCH   4   6
ENDBRANCH   3   4
ENDBRANCH   2   3
TORSDOF 5
ENDMDL
MODEL       27
REMARK 921   NORMALIZED FREE ENERGY PREDICTED BY IDOCK:   -4.85 KCAL/MOL
REMARK 922        TOTAL FREE ENERGY PREDICTED BY IDOCK:   -6.82 KCAL/MOL
REMARK 923 INTER-LIGAND FREE ENERGY PREDICTED BY IDOCK:   -6.18 KCAL/MOL
REMARK 924 INTRA-LIGAND FREE ENERGY PREDICTED BY IDOCK:   -0.63 KCAL/MOL
REMARK 927      BINDING AFFINITY PREDICTED BY RF-SCORE:    0.00 PKD
ROOT
HETATM    1  C   UNL     1      -8.770  17.427  68.224  1.00  0.00    -0.261 C  
HETATM    2  C   UNL     1     -10.266  17.194  68.107  1.00  0.00    -0.332 C  
ENDROOT
BRANCH   2   3
HETATM    3  O   UNL     1     -10.462  15.919  67.482  1.00  0.00    -0.284 OA 
BRANCH   3   4
HETATM    4  C   UNL     1     -11.368  15.101  68.087  1.00  0.00    -0.335 C  
HETATM    5  O   UNL     1     -11.923  15.345  69.149  1.00  0.00    -0.335 OA 
BRANCH   4   6
HETATM    6  C   UNL     1     -11.642  13.976  67.231  1.00  0.00    -0.369 A  
HETATM    7  C   UNL     1     -12.403  13.932  66.077  1.00  0.00    -0.475 A  
HETATM    8  N   UNL     1     -12.477  12.667  65.569  1.00  0.00    -0.648 NA 
HETATM    9  C   UNL     1     -11.776  11.927  66.392  1.00  0.00    -0.155 A  
HETATM   10  N   UNL     1     -11.233  12.664  67.410  1.00  0.00    -0.274 NA 
BRANCH  10  11
HETATM   11  C   UNL     1     -10.335  12.153  68.459  1.00  0.00    -0.221 C  
HETATM   12  C   UNL     1      -9.205  11.325  67.842  1.00  0.00    -0.157 C  
BRANCH  11  13
HETATM   13  C   UNL     1     -11.090  11.447  69.581  1.00  0.00    -0.241 A  
HETATM   14  C   UNL     1     -10.704  10.146  69.955  1.00  0.00    -0.356 A  
HETATM   15  C   UNL     1     -11.404   9.447  70.940  1.00  0.00    -0.386 A  
HETATM   16  C   UNL     1     -12.495  10.037  71.572  1.00  0.00    -0.516 A  
HETATM   17  C   UNL     1     -12.878  11.330  71.231  1.00  0.00    -0.491 A  
HETATM   18  C   UNL     1     -12.180  12.033  70.247  1.00  0.00    -0.348 A  
ENDBRANCH  11  13
ENDBRANCH  10  11
ENDBRANCH   4   6
ENDBRANCH   3   4
ENDBRANCH   2   3
TORSDOF 5
ENDMDL
MODEL       28
REMARK 921   NORMALIZED FREE ENERGY PREDICTED BY IDOCK:   -4.85 KCAL/MOL
REMARK 922        TOTAL FREE ENERGY PREDICTED BY IDOCK:   -6.82 KCAL/MOL
REMARK 923 INTER-LIGAND FREE ENERGY PREDICTED BY IDOCK:   -6.52 KCAL/MOL
REMARK 924 INTRA-LIGAND FREE ENERGY PREDICTED BY IDOCK:   -0.30 KCAL/MOL
REMARK 927      BINDING AFFINITY PREDICTED BY RF-SCORE:    0.00 PKD
ROOT
HETATM    1  C   UNL     1     -12.407  12.253  63.571  1.00  0.00    -0.670 C  
HETATM    2  C   UNL     1     -12.299  13.141  64.798  1.00  0.00    -0.423 C  
ENDROOT
BRANCH   2   3
HETATM    3  O   UNL     1     -12.286  12.291  65.953  1.00  0.00    -0.634 OA 
BRANCH   3   4
HETATM    4  C   UNL     1     -11.063  11.814  66.318  1.00  0.00    -0.311 C  
HETATM    5  O   UNL     1     -10.613  10.727  65.984  1.00  0.00    -0.228 OA 
BRANCH   4   6
HETATM    6  C   UNL     1     -10.357  12.829  67.056  1.00  0.00    -0.234 A  
HETATM    7  C   UNL     1      -9.204  13.507  66.708  1.00  0.00    -0.240 A  
HETATM    8  N   UNL     1      -8.802  14.361  67.694  1.00  0.00    -0.184 NA 
HETATM    9  C   UNL     1      -9.687  14.218  68.650  1.00  0.00    -0.213 A  
HETATM   10  N   UNL     1     -10.661  13.317  68.317  1.00  0.00    -0.244 NA 
BRANCH  10  11
HETATM   11  C   UNL     1     -11.840  12.981  69.134  1.00  0.00    -0.310 C  
HETATM   12  C   UNL     1     -12.251  14.175  70.000  1.00  0.00    -0.418 C  
BRANCH  11  13
HETATM   13  C   UNL     1     -11.663  11.677  69.907  1.00  0.00    -0.414 A  
HETATM   14  C   UNL     1     -12.607  11.330  70.891  1.00  0.00    -0.467 A  
HETATM   15  C   UNL     1     -12.451  10.172  71.655  1.00  0.00    -0.506 A  
HETATM   16  C   UNL     1     -11.355   9.340  71.445  1.00  0.00    -0.434 A  
HETATM   17  C   UNL     1     -10.422   9.656  70.462  1.00  0.00    -0.367 A  
HETATM   18  C   UNL     1     -10.575  10.813  69.695  1.00  0.00    -0.222 A  
ENDBRANCH  11  13
ENDBRANCH  10  11
ENDBRANCH   4   6
ENDBRANCH   3   4
ENDBRANCH   2   3
TORSDOF 5
ENDMDL
MODEL       29
REMARK 921   NORMALIZED FREE ENERGY PREDICTED BY IDOCK:   -4.84 KCAL/MOL
REMARK 922        TOTAL FREE ENERGY PREDICTED BY IDOCK:   -6.80 KCAL/MOL
REMARK 923 INTER-LIGAND FREE ENERGY PREDICTED BY IDOCK:   -6.09 KCAL/MOL
REMARK 924 INTRA-LIGAND FREE ENERGY PREDICTED BY IDOCK:   -0.71 KCAL/MOL
REMARK 927      BINDING AFFINITY PREDICTED BY RF-SCORE:    0.00 PKD
ROOT
HETATM    1  C   UNL     1     -10.468  18.606  66.419  1.00  0.00    -0.463 C  
HETATM    2  C   UNL     1     -10.524  18.223  67.887  1.00  0.00    -0.388 C  
ENDROOT
BRANCH   2   3
HETATM    3  O   UNL     1     -11.015  16.878  67.969  1.00  0.00    -0.354 OA 
BRANCH   3   4
HETATM    4  C   UNL     1     -10.720  16.215  69.122  1.00  0.00    -0.292 C  
HETATM    5  O   UNL     1     -11.256  16.425  70.201  1.00  0.00    -0.354 OA 
BRANCH   4   6
HETATM    6  C   UNL     1      -9.770  15.171  68.841  1.00  0.00    -0.224 A  
HETATM    7  C   UNL     1      -8.397  15.184  69.006  1.00  0.00    -0.209 A  
HETATM    8  N   UNL     1      -7.825  14.021  68.575  1.00  0.00    -0.137 NA 
HETATM    9  C   UNL     1      -8.823  13.290  68.143  1.00  0.00    -0.187 A  
HETATM   10  N   UNL     1     -10.027  13.925  68.292  1.00  0.00    -0.233 NA 
BRANCH  10  11
HETATM   11  C   UNL     1     -11.346  13.353  67.975  1.00  0.00    -0.286 C  
HETATM   12  C   UNL     1     -11.567  12.052  68.750  1.00  0.00    -0.366 C  
BRANCH  11  13
HETATM   13  C   UNL     1     -11.587  13.237  66.473  1.00  0.00    -0.392 A  
HETATM   14  C   UNL     1     -11.438  11.985  65.849  1.00  0.00    -0.392 A  
HETATM   15  C   UNL     1     -11.598  11.849  64.469  1.00  0.00    -0.344 A  
HETATM   16  C   UNL     1     -11.916  12.959  63.691  1.00  0.00    -0.613 A  
HETATM   17  C   UNL     1     -12.089  14.201  64.293  1.00  0.00    -0.471 A  
HETATM   18  C   UNL     1     -11.930  14.341  65.673  1.00  0.00    -0.390 A  
ENDBRANCH  11  13
ENDBRANCH  10  11
ENDBRANCH   4   6
ENDBRANCH   3   4
ENDBRANCH   2   3
TORSDOF 5
ENDMDL
MODEL       30
REMARK 921   NORMALIZED FREE ENERGY PREDICTED BY IDOCK:   -4.84 KCAL/MOL
REMARK 922        TOTAL FREE ENERGY PREDICTED BY IDOCK:   -6.80 KCAL/MOL
REMARK 923 INTER-LIGAND FREE ENERGY PREDICTED BY IDOCK:   -6.49 KCAL/MOL
REMARK 924 INTRA-LIGAND FREE ENERGY PREDICTED BY IDOCK:   -0.31 KCAL/MOL
REMARK 927      BINDING AFFINITY PREDICTED BY RF-SCORE:    0.00 PKD
ROOT
HETATM    1  C   UNL     1     -10.785  15.879  65.261  1.00  0.00    -0.442 C  
HETATM    2  C   UNL     1     -11.853  15.035  64.589  1.00  0.00    -0.375 C  
ENDROOT
BRANCH   2   3
HETATM    3  O   UNL     1     -11.293  13.737  64.345  1.00  0.00    -0.373 OA 
BRANCH   3   4
HETATM    4  C   UNL     1     -11.937  12.698  64.945  1.00  0.00    -0.406 C  
HETATM    5  O   UNL     1     -13.131  12.460  64.830  1.00  0.00    -0.806 OA 
BRANCH   4   6
HETATM    6  C   UNL     1     -10.977  11.878  65.637  1.00  0.00    -0.304 A  
HETATM    7  C   UNL     1     -10.317  10.750  65.185  1.00  0.00    -0.271 A  
HETATM    8  N   UNL     1      -9.519  10.209  66.152  1.00  0.00    -0.177 NA 
HETATM    9  C   UNL     1      -9.679  10.982  67.198  1.00  0.00    -0.174 A  
HETATM   10  N   UNL     1     -10.537  12.019  66.944  1.00  0.00    -0.223 NA 
BRANCH  10  11
HETATM   11  C   UNL     1     -10.874  13.106  67.878  1.00  0.00    -0.242 C  
HETATM   12  C   UNL     1      -9.641  13.967  68.167  1.00  0.00    -0.220 C  
BRANCH  11  13
HETATM   13  C   UNL     1     -11.593  12.601  69.126  1.00  0.00    -0.374 A  
HETATM   14  C   UNL     1     -11.997  13.527  70.106  1.00  0.00    -0.399 A  
HETATM   15  C   UNL     1     -12.610  13.099  71.285  1.00  0.00    -0.382 A  
HETATM   16  C   UNL     1     -12.836  11.742  71.501  1.00  0.00    -0.450 A  
HETATM   17  C   UNL     1     -12.463  10.815  70.534  1.00  0.00    -0.447 A  
HETATM   18  C   UNL     1     -11.850  11.238  69.353  1.00  0.00    -0.424 A  
ENDBRANCH  11  13
ENDBRANCH  10  11
ENDBRANCH   4   6
ENDBRANCH   3   4
ENDBRANCH   2   3
TORSDOF 5
ENDMDL
MODEL       31
REMARK 921   NORMALIZED FREE ENERGY PREDICTED BY IDOCK:   -4.83 KCAL/MOL
REMARK 922        TOTAL FREE ENERGY PREDICTED BY IDOCK:   -6.79 KCAL/MOL
REMARK 923 INTER-LIGAND FREE ENERGY PREDICTED BY IDOCK:   -6.07 KCAL/MOL
REMARK 924 INTRA-LIGAND FREE ENERGY PREDICTED BY IDOCK:   -0.72 KCAL/MOL
REMARK 927      BINDING AFFINITY PREDICTED BY RF-SCORE:    0.00 PKD
ROOT
HETATM    1  C   UNL     1     -13.692  15.230  71.709  1.00  0.00    -0.605 C  
HETATM    2  C   UNL     1     -12.923  14.274  70.814  1.00  0.00    -0.304 C  
ENDROOT
BRANCH   2   3
HETATM    3  O   UNL     1     -11.607  14.813  70.629  1.00  0.00    -0.273 OA 
BRANCH   3   4
HETATM    4  C   UNL     1     -11.310  15.215  69.361  1.00  0.00    -0.294 C  
HETATM    5  O   UNL     1     -11.909  16.090  68.752  1.00  0.00    -0.375 OA 
BRANCH   4   6
HETATM    6  C   UNL     1     -10.129  14.528  68.908  1.00  0.00    -0.224 A  
HETATM    7  C   UNL     1      -8.803  14.878  69.085  1.00  0.00    -0.145 A  
HETATM    8  N   UNL     1      -7.961  14.004  68.459  1.00  0.00    -0.140 NA 
HETATM    9  C   UNL     1      -8.747  13.120  67.893  1.00  0.00    -0.192 A  
HETATM   10  N   UNL     1     -10.069  13.374  68.142  1.00  0.00    -0.238 NA 
BRANCH  10  11
HETATM   11  C   UNL     1     -11.202  12.536  67.715  1.00  0.00    -0.269 C  
HETATM   12  C   UNL     1     -10.982  11.081  68.138  1.00  0.00    -0.301 C  
BRANCH  11  13
HETATM   13  C   UNL     1     -11.538  12.716  66.238  1.00  0.00    -0.440 A  
HETATM   14  C   UNL     1     -11.137  11.730  65.318  1.00  0.00    -0.333 A  
HETATM   15  C   UNL     1     -11.379  11.884  63.952  1.00  0.00    -0.509 A  
HETATM   16  C   UNL     1     -12.032  13.021  63.483  1.00  0.00    -0.615 A  
HETATM   17  C   UNL     1     -12.456  13.997  64.380  1.00  0.00    -0.326 A  
HETATM   18  C   UNL     1     -12.215  13.846  65.747  1.00  0.00    -0.488 A  
ENDBRANCH  11  13
ENDBRANCH  10  11
ENDBRANCH   4   6
ENDBRANCH   3   4
ENDBRANCH   2   3
TORSDOF 5
ENDMDL
MODEL       32
REMARK 921   NORMALIZED FREE ENERGY PREDICTED BY IDOCK:   -4.83 KCAL/MOL
REMARK 922        TOTAL FREE ENERGY PREDICTED BY IDOCK:   -6.79 KCAL/MOL
REMARK 923 INTER-LIGAND FREE ENERGY PREDICTED BY IDOCK:   -6.70 KCAL/MOL
REMARK 924 INTRA-LIGAND FREE ENERGY PREDICTED BY IDOCK:   -0.09 KCAL/MOL
REMARK 927      BINDING AFFINITY PREDICTED BY RF-SCORE:    0.00 PKD
ROOT
HETATM    1  C   UNL     1      -9.830  10.933  63.206  1.00  0.00    -0.409 C  
HETATM    2  C   UNL     1     -11.145  11.379  63.822  1.00  0.00    -0.334 C  
ENDROOT
BRANCH   2   3
HETATM    3  O   UNL     1     -11.159  12.813  63.832  1.00  0.00    -0.383 OA 
BRANCH   3   4
HETATM    4  C   UNL     1     -11.850  13.387  64.855  1.00  0.00    -0.372 C  
HETATM    5  O   UNL     1     -12.640  12.795  65.577  1.00  0.00    -0.611 OA 
BRANCH   4   6
HETATM    6  C   UNL     1     -11.422  14.752  65.013  1.00  0.00    -0.389 A  
HETATM    7  C   UNL     1     -11.732  15.851  64.234  1.00  0.00    -0.132 A  
HETATM    8  N   UNL     1     -11.090  16.976  64.667  1.00  0.00    -1.014 NA 
HETATM    9  C   UNL     1     -10.383  16.588  65.700  1.00  0.00    -0.322 A  
HETATM   10  N   UNL     1     -10.554  15.256  65.969  1.00  0.00    -0.306 NA 
BRANCH  10  11
HETATM   11  C   UNL     1      -9.963  14.524  67.102  1.00  0.00    -0.252 C  
HETATM   12  C   UNL     1      -9.418  13.170  66.640  1.00  0.00    -0.260 C  
BRANCH  11  13
HETATM   13  C   UNL     1     -10.905  14.445  68.300  1.00  0.00    -0.250 A  
HETATM   14  C   UNL     1     -11.171  15.612  69.041  1.00  0.00    -0.306 A  
HETATM   15  C   UNL     1     -11.984  15.570  70.174  1.00  0.00    -0.389 A  
HETATM   16  C   UNL     1     -12.550  14.366  70.583  1.00  0.00    -0.424 A  
HETATM   17  C   UNL     1     -12.316  13.206  69.851  1.00  0.00    -0.201 A  
HETATM   18  C   UNL     1     -11.504  13.244  68.716  1.00  0.00    -0.346 A  
ENDBRANCH  11  13
ENDBRANCH  10  11
ENDBRANCH   4   6
ENDBRANCH   3   4
ENDBRANCH   2   3
TORSDOF 5
ENDMDL
MODEL       33
REMARK 921   NORMALIZED FREE ENERGY PREDICTED BY IDOCK:   -4.81 KCAL/MOL
REMARK 922        TOTAL FREE ENERGY PREDICTED BY IDOCK:   -6.77 KCAL/MOL
REMARK 923 INTER-LIGAND FREE ENERGY PREDICTED BY IDOCK:   -6.16 KCAL/MOL
REMARK 924 INTRA-LIGAND FREE ENERGY PREDICTED BY IDOCK:   -0.61 KCAL/MOL
REMARK 927      BINDING AFFINITY PREDICTED BY RF-SCORE:    0.00 PKD
ROOT
HETATM    1  C   UNL     1      -7.412  19.155  67.258  1.00  0.00    -0.246 C  
HETATM    2  C   UNL     1      -8.721  19.323  66.508  1.00  0.00    -0.345 C  
ENDROOT
BRANCH   2   3
HETATM    3  O   UNL     1      -9.139  18.026  66.063  1.00  0.00    -0.509 OA 
BRANCH   3   4
HETATM    4  C   UNL     1     -10.187  17.482  66.743  1.00  0.00    -0.327 C  
HETATM    5  O   UNL     1     -10.825  18.058  67.612  1.00  0.00    -0.390 OA 
BRANCH   4   6
HETATM    6  C   UNL     1     -10.482  16.181  66.202  1.00  0.00    -0.325 A  
HETATM    7  C   UNL     1     -11.027  15.858  64.973  1.00  0.00    -0.412 A  
HETATM    8  N   UNL     1     -11.211  14.512  64.839  1.00  0.00    -0.373 NA 
HETATM    9  C   UNL     1     -10.791  13.996  65.968  1.00  0.00    -0.295 A  
HETATM   10  N   UNL     1     -10.324  14.954  66.827  1.00  0.00    -0.265 NA 
BRANCH  10  11
HETATM   11  C   UNL     1      -9.715  14.705  68.145  1.00  0.00    -0.220 C  
HETATM   12  C   UNL     1      -8.822  13.463  68.098  1.00  0.00    -0.180 C  
BRANCH  11  13
HETATM   13  C   UNL     1     -10.745  14.695  69.271  1.00  0.00    -0.254 A  
HETATM   14  C   UNL     1     -10.837  15.809  70.126  1.00  0.00    -0.360 A  
HETATM   15  C   UNL     1     -11.729  15.815  71.199  1.00  0.00    -0.476 A  
HETATM   16  C   UNL     1     -12.549  14.714  71.432  1.00  0.00    -0.404 A  
HETATM   17  C   UNL     1     -12.488  13.613  70.584  1.00  0.00    -0.417 A  
HETATM   18  C   UNL     1     -11.597  13.603  69.510  1.00  0.00    -0.361 A  
ENDBRANCH  11  13
ENDBRANCH  10  11
ENDBRANCH   4   6
ENDBRANCH   3   4
ENDBRANCH   2   3
TORSDOF 5
ENDMDL
MODEL       34
REMARK 921   NORMALIZED FREE ENERGY PREDICTED BY IDOCK:   -4.79 KCAL/MOL
REMARK 922        TOTAL FREE ENERGY PREDICTED BY IDOCK:   -6.74 KCAL/MOL
REMARK 923 INTER-LIGAND FREE ENERGY PREDICTED BY IDOCK:   -6.20 KCAL/MOL
REMARK 924 INTRA-LIGAND FREE ENERGY PREDICTED BY IDOCK:   -0.54 KCAL/MOL
REMARK 927      BINDING AFFINITY PREDICTED BY RF-SCORE:    0.00 PKD
ROOT
HETATM    1  C   UNL     1     -12.579  16.248  73.866  1.00  0.00    -0.639 C  
HETATM    2  C   UNL     1     -11.712  15.392  72.959  1.00  0.00    -0.367 C  
ENDROOT
BRANCH   2   3
HETATM    3  O   UNL     1     -12.040  15.722  71.603  1.00  0.00    -0.371 OA 
BRANCH   3   4
HETATM    4  C   UNL     1     -13.083  15.029  71.066  1.00  0.00    -0.422 C  
HETATM    5  O   UNL     1     -14.215  15.472  70.933  1.00  0.00    -0.423 OA 
BRANCH   4   6
HETATM    6  C   UNL     1     -12.614  13.754  70.591  1.00  0.00    -0.315 A  
HETATM    7  C   UNL     1     -12.593  12.539  71.251  1.00  0.00    -0.231 A  
HETATM    8  N   UNL     1     -12.019  11.560  70.491  1.00  0.00    -0.369 NA 
HETATM    9  C   UNL     1     -11.682  12.152  69.371  1.00  0.00    -0.329 A  
HETATM   10  N   UNL     1     -12.029  13.476  69.365  1.00  0.00    -0.329 NA 
BRANCH  10  11
HETATM   11  C   UNL     1     -11.859  14.406  68.236  1.00  0.00    -0.326 C  
HETATM   12  C   UNL     1     -11.823  13.641  66.911  1.00  0.00    -0.451 C  
BRANCH  11  13
HETATM   13  C   UNL     1     -10.688  15.364  68.439  1.00  0.00    -0.256 A  
HETATM   14  C   UNL     1     -10.845  16.720  68.102  1.00  0.00    -0.353 A  
HETATM   15  C   UNL     1      -9.781  17.616  68.224  1.00  0.00    -0.315 A  
HETATM   16  C   UNL     1      -8.546  17.173  68.691  1.00  0.00    -0.260 A  
HETATM   17  C   UNL     1      -8.379  15.840  69.050  1.00  0.00    -0.236 A  
HETATM   18  C   UNL     1      -9.440  14.941  68.930  1.00  0.00    -0.209 A  
ENDBRANCH  11  13
ENDBRANCH  10  11
ENDBRANCH   4   6
ENDBRANCH   3   4
ENDBRANCH   2   3
TORSDOF 5
ENDMDL
MODEL       35
REMARK 921   NORMALIZED FREE ENERGY PREDICTED BY IDOCK:   -4.75 KCAL/MOL
REMARK 922        TOTAL FREE ENERGY PREDICTED BY IDOCK:   -6.69 KCAL/MOL
REMARK 923 INTER-LIGAND FREE ENERGY PREDICTED BY IDOCK:   -5.86 KCAL/MOL
REMARK 924 INTRA-LIGAND FREE ENERGY PREDICTED BY IDOCK:   -0.83 KCAL/MOL
REMARK 927      BINDING AFFINITY PREDICTED BY RF-SCORE:    0.00 PKD
ROOT
HETATM    1  C   UNL     1      -7.981  11.194  68.565  1.00  0.00    -0.143 C  
HETATM    2  C   UNL     1      -9.392  10.648  68.433  1.00  0.00    -0.163 C  
ENDROOT
BRANCH   2   3
HETATM    3  O   UNL     1     -10.253  11.463  69.240  1.00  0.00    -0.122 OA 
BRANCH   3   4
HETATM    4  C   UNL     1     -11.383  11.912  68.626  1.00  0.00    -0.276 C  
HETATM    5  O   UNL     1     -12.260  11.190  68.172  1.00  0.00    -0.612 OA 
BRANCH   4   6
HETATM    6  C   UNL     1     -11.425  13.349  68.696  1.00  0.00    -0.310 A  
HETATM    7  C   UNL     1     -12.089  14.152  69.605  1.00  0.00    -0.349 A  
HETATM    8  N   UNL     1     -11.938  15.477  69.314  1.00  0.00    -0.340 NA 
HETATM    9  C   UNL     1     -11.193  15.507  68.236  1.00  0.00    -0.343 A  
HETATM   10  N   UNL     1     -10.838  14.251  67.823  1.00  0.00    -0.250 NA 
BRANCH  10  11
HETATM   11  C   UNL     1      -9.948  13.937  66.692  1.00  0.00    -0.279 C  
HETATM   12  C   UNL     1      -9.038  15.127  66.378  1.00  0.00    -0.331 C  
BRANCH  11  13
HETATM   13  C   UNL     1     -10.708  13.392  65.486  1.00  0.00    -0.301 A  
HETATM   14  C   UNL     1     -10.492  12.060  65.084  1.00  0.00    -0.328 A  
HETATM   15  C   UNL     1     -11.128  11.541  63.955  1.00  0.00    -0.441 A  
HETATM   16  C   UNL     1     -11.993  12.340  63.213  1.00  0.00    -0.499 A  
HETATM   17  C   UNL     1     -12.236  13.652  63.607  1.00  0.00    -0.376 A  
HETATM   18  C   UNL     1     -11.602  14.175  64.736  1.00  0.00    -0.400 A  
ENDBRANCH  11  13
ENDBRANCH  10  11
ENDBRANCH   4   6
ENDBRANCH   3   4
ENDBRANCH   2   3
TORSDOF 5
ENDMDL
MODEL       36
REMARK 921   NORMALIZED FREE ENERGY PREDICTED BY IDOCK:   -4.74 KCAL/MOL
REMARK 922        TOTAL FREE ENERGY PREDICTED BY IDOCK:   -6.68 KCAL/MOL
REMARK 923 INTER-LIGAND FREE ENERGY PREDICTED BY IDOCK:   -6.20 KCAL/MOL
REMARK 924 INTRA-LIGAND FREE ENERGY PREDICTED BY IDOCK:   -0.48 KCAL/MOL
REMARK 927      BINDING AFFINITY PREDICTED BY RF-SCORE:    0.00 PKD
ROOT
HETATM    1  C   UNL     1      -9.858  11.486  63.302  1.00  0.00    -0.431 C  
HETATM    2  C   UNL     1     -10.341  11.233  64.719  1.00  0.00    -0.307 C  
ENDROOT
BRANCH   2   3
HETATM    3  O   UNL     1     -10.123  12.431  65.476  1.00  0.00    -0.264 OA 
BRANCH   3   4
HETATM    4  C   UNL     1     -11.244  13.023  65.974  1.00  0.00    -0.292 C  
HETATM    5  O   UNL     1     -11.980  12.522  66.812  1.00  0.00    -0.518 OA 
BRANCH   4   6
HETATM    6  C   UNL     1     -11.355  14.356  65.442  1.00  0.00    -0.339 A  
HETATM    7  C   UNL     1     -11.936  14.769  64.257  1.00  0.00    -0.368 A  
HETATM    8  N   UNL     1     -11.797  16.114  64.067  1.00  0.00    -0.859 NA 
HETATM    9  C   UNL     1     -11.135  16.539  65.115  1.00  0.00    -0.129 A  
HETATM   10  N   UNL     1     -10.852  15.525  65.990  1.00  0.00    -0.319 NA 
BRANCH  10  11
HETATM   11  C   UNL     1     -10.188  15.675  67.296  1.00  0.00    -0.266 C  
HETATM   12  C   UNL     1     -11.221  15.905  68.401  1.00  0.00    -0.368 C  
BRANCH  11  13
HETATM   13  C   UNL     1      -9.063  16.707  67.263  1.00  0.00    -0.225 A  
HETATM   14  C   UNL     1      -9.051  17.738  68.221  1.00  0.00    -0.281 A  
HETATM   15  C   UNL     1      -8.070  18.730  68.191  1.00  0.00    -0.327 A  
HETATM   16  C   UNL     1      -7.082  18.706  67.211  1.00  0.00    -0.210 A  
HETATM   17  C   UNL     1      -7.065  17.682  66.269  1.00  0.00    -0.337 A  
HETATM   18  C   UNL     1      -8.045  16.687  66.295  1.00  0.00    -0.361 A  
ENDBRANCH  11  13
ENDBRANCH  10  11
ENDBRANCH   4   6
ENDBRANCH   3   4
ENDBRANCH   2   3
TORSDOF 5
ENDMDL
MODEL       37
REMARK 921   NORMALIZED FREE ENERGY PREDICTED BY IDOCK:   -4.74 KCAL/MOL
REMARK 922        TOTAL FREE ENERGY PREDICTED BY IDOCK:   -6.67 KCAL/MOL
REMARK 923 INTER-LIGAND FREE ENERGY PREDICTED BY IDOCK:   -6.11 KCAL/MOL
REMARK 924 INTRA-LIGAND FREE ENERGY PREDICTED BY IDOCK:   -0.56 KCAL/MOL
REMARK 927      BINDING AFFINITY PREDICTED BY RF-SCORE:    0.00 PKD
ROOT
HETATM    1  C   UNL     1     -10.567   8.004  67.131  1.00  0.00    -0.367 C  
HETATM    2  C   UNL     1      -9.867   9.149  66.420  1.00  0.00    -0.280 C  
ENDROOT
BRANCH   2   3
HETATM    3  O   UNL     1     -10.543  10.363  66.776  1.00  0.00    -0.242 OA 
BRANCH   3   4
HETATM    4  C   UNL     1     -10.088  11.490  66.162  1.00  0.00    -0.229 C  
HETATM    5  O   UNL     1      -8.922  11.691  65.853  1.00  0.00    -0.192 OA 
BRANCH   4   6
HETATM    6  C   UNL     1     -11.204  12.342  65.843  1.00  0.00    -0.340 A  
HETATM    7  C   UNL     1     -12.121  12.218  64.815  1.00  0.00    -0.365 A  
HETATM    8  N   UNL     1     -13.008  13.256  64.800  1.00  0.00    -0.718 NA 
HETATM    9  C   UNL     1     -12.651  14.023  65.801  1.00  0.00    -0.479 A  
HETATM   10  N   UNL     1     -11.575  13.515  66.479  1.00  0.00    -0.343 NA 
BRANCH  10  11
HETATM   11  C   UNL     1     -10.973  14.091  67.694  1.00  0.00    -0.269 C  
HETATM   12  C   UNL     1     -11.913  13.924  68.890  1.00  0.00    -0.393 C  
BRANCH  11  13
HETATM   13  C   UNL     1     -10.479  15.519  67.479  1.00  0.00    -0.282 A  
HETATM   14  C   UNL     1      -9.577  15.782  66.432  1.00  0.00    -0.311 A  
HETATM   15  C   UNL     1      -9.061  17.064  66.237  1.00  0.00    -0.279 A  
HETATM   16  C   UNL     1      -9.442  18.105  67.079  1.00  0.00    -0.274 A  
HETATM   17  C   UNL     1     -10.350  17.869  68.106  1.00  0.00    -0.395 A  
HETATM   18  C   UNL     1     -10.868  16.588  68.304  1.00  0.00    -0.352 A  
ENDBRANCH  11  13
ENDBRANCH  10  11
ENDBRANCH   4   6
ENDBRANCH   3   4
ENDBRANCH   2   3
TORSDOF 5
ENDMDL
MODEL       38
REMARK 921   NORMALIZED FREE ENERGY PREDICTED BY IDOCK:   -4.73 KCAL/MOL
REMARK 922        TOTAL FREE ENERGY PREDICTED BY IDOCK:   -6.66 KCAL/MOL
REMARK 923 INTER-LIGAND FREE ENERGY PREDICTED BY IDOCK:   -6.16 KCAL/MOL
REMARK 924 INTRA-LIGAND FREE ENERGY PREDICTED BY IDOCK:   -0.50 KCAL/MOL
REMARK 927      BINDING AFFINITY PREDICTED BY RF-SCORE:    0.00 PKD
ROOT
HETATM    1  C   UNL     1      -7.563  13.726  68.188  1.00  0.00    -0.128 C  
HETATM    2  C   UNL     1      -7.993  15.047  67.573  1.00  0.00    -0.178 C  
ENDROOT
BRANCH   2   3
HETATM    3  O   UNL     1      -8.913  14.756  66.513  1.00  0.00    -0.266 OA 
BRANCH   3   4
HETATM    4  C   UNL     1     -10.174  15.243  66.681  1.00  0.00    -0.271 C  
HETATM    5  O   UNL     1     -10.444  16.298  67.237  1.00  0.00    -0.294 OA 
BRANCH   4   6
HETATM    6  C   UNL     1     -11.111  14.379  66.011  1.00  0.00    -0.324 A  
HETATM    7  C   UNL     1     -11.941  14.666  64.942  1.00  0.00    -0.400 A  
HETATM    8  N   UNL     1     -12.733  13.602  64.617  1.00  0.00    -0.663 NA 
HETATM    9  C   UNL     1     -12.410  12.663  65.472  1.00  0.00    -0.391 A  
HETATM   10  N   UNL     1     -11.424  13.067  66.331  1.00  0.00    -0.324 NA 
BRANCH  10  11
HETATM   11  C   UNL     1     -10.783  12.232  67.360  1.00  0.00    -0.230 C  
HETATM   12  C   UNL     1     -10.564  10.809  66.838  1.00  0.00    -0.312 C  
BRANCH  11  13
HETATM   13  C   UNL     1     -11.505  12.303  68.703  1.00  0.00    -0.355 A  
HETATM   14  C   UNL     1     -11.868  13.560  69.220  1.00  0.00    -0.392 A  
HETATM   15  C   UNL     1     -12.482  13.670  70.469  1.00  0.00    -0.394 A  
HETATM   16  C   UNL     1     -12.751  12.527  71.217  1.00  0.00    -0.350 A  
HETATM   17  C   UNL     1     -12.420  11.274  70.712  1.00  0.00    -0.471 A  
HETATM   18  C   UNL     1     -11.805  11.160  69.463  1.00  0.00    -0.423 A  
ENDBRANCH  11  13
ENDBRANCH  10  11
ENDBRANCH   4   6
ENDBRANCH   3   4
ENDBRANCH   2   3
TORSDOF 5
ENDMDL
MODEL       39
REMARK 921   NORMALIZED FREE ENERGY PREDICTED BY IDOCK:   -4.70 KCAL/MOL
REMARK 922        TOTAL FREE ENERGY PREDICTED BY IDOCK:   -6.63 KCAL/MOL
REMARK 923 INTER-LIGAND FREE ENERGY PREDICTED BY IDOCK:   -6.11 KCAL/MOL
REMARK 924 INTRA-LIGAND FREE ENERGY PREDICTED BY IDOCK:   -0.51 KCAL/MOL
REMARK 927      BINDING AFFINITY PREDICTED BY RF-SCORE:    0.00 PKD
ROOT
HETATM    1  C   UNL     1      -9.929  11.365  63.462  1.00  0.00    -0.424 C  
HETATM    2  C   UNL     1     -10.534  11.092  64.827  1.00  0.00    -0.323 C  
ENDROOT
BRANCH   2   3
HETATM    3  O   UNL     1     -10.343  12.264  65.632  1.00  0.00    -0.245 OA 
BRANCH   3   4
HETATM    4  C   UNL     1     -11.483  12.873  66.062  1.00  0.00    -0.340 C  
HETATM    5  O   UNL     1     -12.207  12.443  66.949  1.00  0.00    -0.527 OA 
BRANCH   4   6
HETATM    6  C   UNL     1     -11.631  14.136  65.390  1.00  0.00    -0.334 A  
HETATM    7  C   UNL     1     -12.293  14.415  64.208  1.00  0.00    -0.373 A  
HETATM    8  N   UNL     1     -12.168  15.728  63.856  1.00  0.00    -0.670 NA 
HETATM    9  C   UNL     1     -11.436  16.267  64.800  1.00  0.00    -0.121 A  
HETATM   10  N   UNL     1     -11.093  15.357  65.765  1.00  0.00    -0.300 NA 
BRANCH  10  11
HETATM   11  C   UNL     1     -10.339  15.651  66.996  1.00  0.00    -0.289 C  
HETATM   12  C   UNL     1     -11.287  15.752  68.194  1.00  0.00    -0.337 C  
BRANCH  11  13
HETATM   13  C   UNL     1      -9.401  16.844  66.835  1.00  0.00    -0.254 A  
HETATM   14  C   UNL     1      -8.097  16.631  66.352  1.00  0.00    -0.359 A  
HETATM   15  C   UNL     1      -7.193  17.689  66.241  1.00  0.00    -0.342 A  
HETATM   16  C   UNL     1      -7.578  18.976  66.604  1.00  0.00    -0.255 A  
HETATM   17  C   UNL     1      -8.870  19.210  67.064  1.00  0.00    -0.318 A  
HETATM   18  C   UNL     1      -9.778  18.155  67.176  1.00  0.00    -0.301 A  
ENDBRANCH  11  13
ENDBRANCH  10  11
ENDBRANCH   4   6
ENDBRANCH   3   4
ENDBRANCH   2   3
TORSDOF 5
ENDMDL
MODEL       40
REMARK 921   NORMALIZED FREE ENERGY PREDICTED BY IDOCK:   -4.70 KCAL/MOL
REMARK 922        TOTAL FREE ENERGY PREDICTED BY IDOCK:   -6.63 KCAL/MOL
REMARK 923 INTER-LIGAND FREE ENERGY PREDICTED BY IDOCK:   -6.12 KCAL/MOL
REMARK 924 INTRA-LIGAND FREE ENERGY PREDICTED BY IDOCK:   -0.50 KCAL/MOL
REMARK 927      BINDING AFFINITY PREDICTED BY RF-SCORE:    0.00 PKD
ROOT
HETATM    1  C   UNL     1     -11.714  12.212  64.810  1.00  0.00    -0.390 C  
HETATM    2  C   UNL     1     -11.388  11.940  66.268  1.00  0.00    -0.334 C  
ENDROOT
BRANCH   2   3
HETATM    3  O   UNL     1     -12.008  12.967  67.053  1.00  0.00    -0.383 OA 
BRANCH   3   4
HETATM    4  C   UNL     1     -11.294  13.393  68.132  1.00  0.00    -0.287 C  
HETATM    5  O   UNL     1     -11.667  13.299  69.293  1.00  0.00    -0.288 OA 
BRANCH   4   6
HETATM    6  C   UNL     1     -10.006  13.864  67.695  1.00  0.00    -0.237 A  
HETATM    7  C   UNL     1      -8.760  13.309  67.922  1.00  0.00    -0.192 A  
HETATM    8  N   UNL     1      -7.761  14.075  67.393  1.00  0.00    -0.178 NA 
HETATM    9  C   UNL     1      -8.370  15.099  66.846  1.00  0.00    -0.232 A  
HETATM   10  N   UNL     1      -9.730  15.020  66.982  1.00  0.00    -0.231 NA 
BRANCH  10  11
HETATM   11  C   UNL     1     -10.708  15.966  66.419  1.00  0.00    -0.256 C  
HETATM   12  C   UNL     1     -10.789  15.813  64.898  1.00  0.00    -0.433 C  
BRANCH  11  13
HETATM   13  C   UNL     1     -10.475  17.398  66.894  1.00  0.00    -0.279 A  
HETATM   14  C   UNL     1     -10.278  17.642  68.266  1.00  0.00    -0.374 A  
HETATM   15  C   UNL     1     -10.115  18.942  68.746  1.00  0.00    -0.415 A  
HETATM   16  C   UNL     1     -10.138  20.019  67.864  1.00  0.00    -0.559 A  
HETATM   17  C   UNL     1     -10.308  19.796  66.501  1.00  0.00    -0.621 A  
HETATM   18  C   UNL     1     -10.472  18.496  66.018  1.00  0.00    -0.433 A  
ENDBRANCH  11  13
ENDBRANCH  10  11
ENDBRANCH   4   6
ENDBRANCH   3   4
ENDBRANCH   2   3
TORSDOF 5
ENDMDL
MODEL       41
REMARK 921   NORMALIZED FREE ENERGY PREDICTED BY IDOCK:   -4.64 KCAL/MOL
REMARK 922        TOTAL FREE ENERGY PREDICTED BY IDOCK:   -6.55 KCAL/MOL
REMARK 923 INTER-LIGAND FREE ENERGY PREDICTED BY IDOCK:   -5.91 KCAL/MOL
REMARK 924 INTRA-LIGAND FREE ENERGY PREDICTED BY IDOCK:   -0.64 KCAL/MOL
REMARK 927      BINDING AFFINITY PREDICTED BY RF-SCORE:    0.00 PKD
ROOT
HETATM    1  C   UNL     1     -11.784  11.797  68.642  1.00  0.00    -0.389 C  
HETATM    2  C   UNL     1     -11.888  13.243  68.191  1.00  0.00    -0.353 C  
ENDROOT
BRANCH   2   3
HETATM    3  O   UNL     1     -11.836  13.259  66.758  1.00  0.00    -0.362 OA 
BRANCH   3   4
HETATM    4  C   UNL     1     -10.663  13.689  66.218  1.00  0.00    -0.285 C  
HETATM    5  O   UNL     1      -9.648  13.012  66.131  1.00  0.00    -0.260 OA 
BRANCH   4   6
HETATM    6  C   UNL     1     -10.844  15.011  65.676  1.00  0.00    -0.349 A  
HETATM    7  C   UNL     1     -11.468  15.387  64.501  1.00  0.00    -0.311 A  
HETATM    8  N   UNL     1     -11.392  16.734  64.296  1.00  0.00    -1.111 NA 
HETATM    9  C   UNL     1     -10.726  17.199  65.326  1.00  0.00    -0.056 A  
HETATM   10  N   UNL     1     -10.380  16.207  66.203  1.00  0.00    -0.324 NA 
BRANCH  10  11
HETATM   11  C   UNL     1      -9.695  16.398  67.492  1.00  0.00    -0.231 C  
HETATM   12  C   UNL     1     -10.672  16.920  68.548  1.00  0.00    -0.359 C  
BRANCH  11  13
HETATM   13  C   UNL     1      -8.418  17.223  67.357  1.00  0.00    -0.210 A  
HETATM   14  C   UNL     1      -7.414  16.793  66.469  1.00  0.00    -0.322 A  
HETATM   15  C   UNL     1      -6.211  17.491  66.357  1.00  0.00    -0.262 A  
HETATM   16  C   UNL     1      -5.992  18.633  67.123  1.00  0.00    -0.166 A  
HETATM   17  C   UNL     1      -6.982  19.085  67.990  1.00  0.00    -0.256 A  
HETATM   18  C   UNL     1      -8.187  18.390  68.105  1.00  0.00    -0.303 A  
ENDBRANCH  11  13
ENDBRANCH  10  11
ENDBRANCH   4   6
ENDBRANCH   3   4
ENDBRANCH   2   3
TORSDOF 5
ENDMDL
MODEL       42
REMARK 921   NORMALIZED FREE ENERGY PREDICTED BY IDOCK:   -4.63 KCAL/MOL
REMARK 922        TOTAL FREE ENERGY PREDICTED BY IDOCK:   -6.53 KCAL/MOL
REMARK 923 INTER-LIGAND FREE ENERGY PREDICTED BY IDOCK:   -5.96 KCAL/MOL
REMARK 924 INTRA-LIGAND FREE ENERGY PREDICTED BY IDOCK:   -0.57 KCAL/MOL
REMARK 927      BINDING AFFINITY PREDICTED BY RF-SCORE:    0.00 PKD
ROOT
HETATM    1  C   UNL     1     -12.106  14.010  64.267  1.00  0.00    -0.476 C  
HETATM    2  C   UNL     1     -12.485  13.868  65.731  1.00  0.00    -0.495 C  
ENDROOT
BRANCH   2   3
HETATM    3  O   UNL     1     -12.067  12.567  66.166  1.00  0.00    -0.571 OA 
BRANCH   3   4
HETATM    4  C   UNL     1     -10.829  12.507  66.731  1.00  0.00    -0.249 C  
HETATM    5  O   UNL     1     -10.285  13.435  67.313  1.00  0.00    -0.238 OA 
BRANCH   4   6
HETATM    6  C   UNL     1     -10.323  11.163  66.629  1.00  0.00    -0.241 A  
HETATM    7  C   UNL     1     -10.280  10.337  65.521  1.00  0.00    -0.238 A  
HETATM    8  N   UNL     1      -9.777   9.105  65.828  1.00  0.00    -0.266 NA 
HETATM    9  C   UNL     1      -9.511   9.155  67.110  1.00  0.00    -0.154 A  
HETATM   10  N   UNL     1      -9.806  10.379  67.648  1.00  0.00    -0.167 NA 
BRANCH  10  11
HETATM   11  C   UNL     1      -9.558  10.789  69.041  1.00  0.00    -0.180 C  
HETATM   12  C   UNL     1      -8.183  10.304  69.507  1.00  0.00    -0.165 C  
BRANCH  11  13
HETATM   13  C   UNL     1     -10.706  10.412  69.973  1.00  0.00    -0.321 A  
HETATM   14  C   UNL     1     -11.815  11.272  70.077  1.00  0.00    -0.448 A  
HETATM   15  C   UNL     1     -12.860  10.989  70.958  1.00  0.00    -0.442 A  
HETATM   16  C   UNL     1     -12.818   9.840  71.744  1.00  0.00    -0.530 A  
HETATM   17  C   UNL     1     -11.741   8.967  71.638  1.00  0.00    -0.431 A  
HETATM   18  C   UNL     1     -10.694   9.247  70.758  1.00  0.00    -0.350 A  
ENDBRANCH  11  13
ENDBRANCH  10  11
ENDBRANCH   4   6
ENDBRANCH   3   4
ENDBRANCH   2   3
TORSDOF 5
ENDMDL
MODEL       43
REMARK 921   NORMALIZED FREE ENERGY PREDICTED BY IDOCK:   -4.63 KCAL/MOL
REMARK 922        TOTAL FREE ENERGY PREDICTED BY IDOCK:   -6.53 KCAL/MOL
REMARK 923 INTER-LIGAND FREE ENERGY PREDICTED BY IDOCK:   -5.98 KCAL/MOL
REMARK 924 INTRA-LIGAND FREE ENERGY PREDICTED BY IDOCK:   -0.54 KCAL/MOL
REMARK 927      BINDING AFFINITY PREDICTED BY RF-SCORE:    0.00 PKD
ROOT
HETATM    1  C   UNL     1     -10.765  16.516  69.671  1.00  0.00    -0.323 C  
HETATM    2  C   UNL     1     -11.384  16.311  68.299  1.00  0.00    -0.280 C  
ENDROOT
BRANCH   2   3
HETATM    3  O   UNL     1     -10.573  17.012  67.346  1.00  0.00    -0.328 OA 
BRANCH   3   4
HETATM    4  C   UNL     1     -10.107  16.263  66.308  1.00  0.00    -0.324 C  
HETATM    5  O   UNL     1     -10.527  16.326  65.162  1.00  0.00    -0.591 OA 
BRANCH   4   6
HETATM    6  C   UNL     1      -8.984  15.479  66.753  1.00  0.00    -0.266 A  
HETATM    7  C   UNL     1      -7.652  15.842  66.833  1.00  0.00    -0.200 A  
HETATM    8  N   UNL     1      -6.869  14.805  67.252  1.00  0.00    -0.256 NA 
HETATM    9  C   UNL     1      -7.696  13.803  67.429  1.00  0.00    -0.143 A  
HETATM   10  N   UNL     1      -8.991  14.153  67.158  1.00  0.00    -0.216 NA 
BRANCH  10  11
HETATM   11  C   UNL     1     -10.170  13.287  67.327  1.00  0.00    -0.240 C  
HETATM   12  C   UNL     1      -9.846  12.113  68.254  1.00  0.00    -0.212 C  
BRANCH  11  13
HETATM   13  C   UNL     1     -10.792  12.880  65.994  1.00  0.00    -0.300 A  
HETATM   14  C   UNL     1     -12.136  13.206  65.736  1.00  0.00    -0.502 A  
HETATM   15  C   UNL     1     -12.755  12.805  64.551  1.00  0.00    -0.405 A  
HETATM   16  C   UNL     1     -12.041  12.079  63.602  1.00  0.00    -0.627 A  
HETATM   17  C   UNL     1     -10.704  11.767  63.829  1.00  0.00    -0.480 A  
HETATM   18  C   UNL     1     -10.082  12.166  65.013  1.00  0.00    -0.289 A  
ENDBRANCH  11  13
ENDBRANCH  10  11
ENDBRANCH   4   6
ENDBRANCH   3   4
ENDBRANCH   2   3
TORSDOF 5
ENDMDL
MODEL       44
REMARK 921   NORMALIZED FREE ENERGY PREDICTED BY IDOCK:   -4.62 KCAL/MOL
REMARK 922        TOTAL FREE ENERGY PREDICTED BY IDOCK:   -6.52 KCAL/MOL
REMARK 923 INTER-LIGAND FREE ENERGY PREDICTED BY IDOCK:   -5.95 KCAL/MOL
REMARK 924 INTRA-LIGAND FREE ENERGY PREDICTED BY IDOCK:   -0.57 KCAL/MOL
REMARK 927      BINDING AFFINITY PREDICTED BY RF-SCORE:    0.00 PKD
ROOT
HETATM    1  C   UNL     1      -8.009  10.089  63.173  1.00  0.00    -0.148 C  
HETATM    2  C   UNL     1      -8.906   9.942  64.389  1.00  0.00    -0.217 C  
ENDROOT
BRANCH   2   3
HETATM    3  O   UNL     1      -9.305  11.257  64.799  1.00  0.00    -0.210 OA 
BRANCH   3   4
HETATM    4  C   UNL     1     -10.480  11.327  65.484  1.00  0.00    -0.265 C  
HETATM    5  O   UNL     1     -10.784  10.599  66.418  1.00  0.00    -0.214 OA 
BRANCH   4   6
HETATM    6  C   UNL     1     -11.244  12.450  65.006  1.00  0.00    -0.312 A  
HETATM    7  C   UNL     1     -11.952  12.575  63.825  1.00  0.00    -0.517 A  
HETATM    8  N   UNL     1     -12.506  13.816  63.695  1.00  0.00    -0.781 NA 
HETATM    9  C   UNL     1     -12.148  14.464  64.778  1.00  0.00    -0.452 A  
HETATM   10  N   UNL     1     -11.396  13.685  65.616  1.00  0.00    -0.298 NA 
BRANCH  10  11
HETATM   11  C   UNL     1     -10.898  14.083  66.944  1.00  0.00    -0.290 C  
HETATM   12  C   UNL     1     -11.993  13.918  68.000  1.00  0.00    -0.390 C  
BRANCH  11  13
HETATM   13  C   UNL     1     -10.239  15.460  66.932  1.00  0.00    -0.273 A  
HETATM   14  C   UNL     1      -9.067  15.652  66.176  1.00  0.00    -0.378 A  
HETATM   15  C   UNL     1      -8.406  16.882  66.182  1.00  0.00    -0.286 A  
HETATM   16  C   UNL     1      -8.908  17.940  66.936  1.00  0.00    -0.263 A  
HETATM   17  C   UNL     1     -10.077  17.774  67.671  1.00  0.00    -0.342 A  
HETATM   18  C   UNL     1     -10.741  16.546  67.667  1.00  0.00    -0.311 A  
ENDBRANCH  11  13
ENDBRANCH  10  11
ENDBRANCH   4   6
ENDBRANCH   3   4
ENDBRANCH   2   3
TORSDOF 5
ENDMDL
MODEL       45
REMARK 921   NORMALIZED FREE ENERGY PREDICTED BY IDOCK:   -4.62 KCAL/MOL
REMARK 922        TOTAL FREE ENERGY PREDICTED BY IDOCK:   -6.52 KCAL/MOL
REMARK 923 INTER-LIGAND FREE ENERGY PREDICTED BY IDOCK:   -6.17 KCAL/MOL
REMARK 924 INTRA-LIGAND FREE ENERGY PREDICTED BY IDOCK:   -0.35 KCAL/MOL
REMARK 927      BINDING AFFINITY PREDICTED BY RF-SCORE:    0.00 PKD
ROOT
HETATM    1  C   UNL     1     -14.158   7.426  71.573  1.00  0.00    -0.541 C  
HETATM    2  C   UNL     1     -12.683   7.066  71.522  1.00  0.00    -0.381 C  
ENDROOT
BRANCH   2   3
HETATM    3  O   UNL     1     -11.987   8.165  70.920  1.00  0.00    -0.275 OA 
BRANCH   3   4
HETATM    4  C   UNL     1     -10.918   8.638  71.620  1.00  0.00    -0.308 C  
HETATM    5  O   UNL     1     -10.720   8.430  72.809  1.00  0.00    -0.307 OA 
BRANCH   4   6
HETATM    6  C   UNL     1     -10.022   9.318  70.722  1.00  0.00    -0.290 A  
HETATM    7  C   UNL     1      -8.648   9.205  70.621  1.00  0.00    -0.226 A  
HETATM    8  N   UNL     1      -8.138  10.056  69.683  1.00  0.00    -0.159 NA 
HETATM    9  C   UNL     1      -9.176  10.697  69.204  1.00  0.00    -0.148 A  
HETATM   10  N   UNL     1     -10.346  10.284  69.782  1.00  0.00    -0.253 NA 
BRANCH  10  11
HETATM   11  C   UNL     1     -11.696  10.748  69.420  1.00  0.00    -0.306 C  
HETATM   12  C   UNL     1     -11.763  11.095  67.931  1.00  0.00    -0.260 C  
BRANCH  11  13
HETATM   13  C   UNL     1     -12.202  11.851  70.345  1.00  0.00    -0.399 A  
HETATM   14  C   UNL     1     -12.989  11.504  71.459  1.00  0.00    -0.485 A  
HETATM   15  C   UNL     1     -13.514  12.488  72.298  1.00  0.00    -0.490 A  
HETATM   16  C   UNL     1     -13.257  13.832  72.044  1.00  0.00    -0.520 A  
HETATM   17  C   UNL     1     -12.462  14.193  70.960  1.00  0.00    -0.438 A  
HETATM   18  C   UNL     1     -11.935  13.212  70.118  1.00  0.00    -0.381 A  
ENDBRANCH  11  13
ENDBRANCH  10  11
ENDBRANCH   4   6
ENDBRANCH   3   4
ENDBRANCH   2   3
TORSDOF 5
ENDMDL
MODEL       46
REMARK 921   NORMALIZED FREE ENERGY PREDICTED BY IDOCK:   -4.61 KCAL/MOL
REMARK 922        TOTAL FREE ENERGY PREDICTED BY IDOCK:   -6.51 KCAL/MOL
REMARK 923 INTER-LIGAND FREE ENERGY PREDICTED BY IDOCK:   -6.14 KCAL/MOL
REMARK 924 INTRA-LIGAND FREE ENERGY PREDICTED BY IDOCK:   -0.37 KCAL/MOL
REMARK 927      BINDING AFFINITY PREDICTED BY RF-SCORE:    0.00 PKD
ROOT
HETATM    1  C   UNL     1     -10.240  19.962  67.315  1.00  0.00    -0.572 C  
HETATM    2  C   UNL     1      -9.162  19.146  66.623  1.00  0.00    -0.334 C  
ENDROOT
BRANCH   2   3
HETATM    3  O   UNL     1      -9.296  17.787  67.061  1.00  0.00    -0.247 OA 
BRANCH   3   4
HETATM    4  C   UNL     1     -10.260  17.059  66.431  1.00  0.00    -0.326 C  
HETATM    5  O   UNL     1     -10.501  17.115  65.234  1.00  0.00    -0.655 OA 
BRANCH   4   6
HETATM    6  C   UNL     1     -10.863  16.152  67.372  1.00  0.00    -0.265 A  
HETATM    7  C   UNL     1     -11.103  16.338  68.722  1.00  0.00    -0.355 A  
HETATM    8  N   UNL     1     -11.643  15.224  69.298  1.00  0.00    -0.311 NA 
HETATM    9  C   UNL     1     -11.738  14.350  68.326  1.00  0.00    -0.341 A  
HETATM   10  N   UNL     1     -11.296  14.857  67.134  1.00  0.00    -0.345 NA 
BRANCH  10  11
HETATM   11  C   UNL     1     -11.335  14.163  65.835  1.00  0.00    -0.323 C  
HETATM   12  C   UNL     1     -12.781  13.888  65.416  1.00  0.00    -0.525 C  
BRANCH  11  13
HETATM   13  C   UNL     1     -10.428  12.936  65.802  1.00  0.00    -0.293 A  
HETATM   14  C   UNL     1     -10.835  11.802  65.077  1.00  0.00    -0.350 A  
HETATM   15  C   UNL     1     -10.059  10.642  65.066  1.00  0.00    -0.388 A  
HETATM   16  C   UNL     1      -8.860  10.598  65.773  1.00  0.00    -0.198 A  
HETATM   17  C   UNL     1      -8.430  11.718  66.478  1.00  0.00    -0.125 A  
HETATM   18  C   UNL     1      -9.204  12.880  66.491  1.00  0.00    -0.186 A  
ENDBRANCH  11  13
ENDBRANCH  10  11
ENDBRANCH   4   6
ENDBRANCH   3   4
ENDBRANCH   2   3
TORSDOF 5
ENDMDL
MODEL       47
REMARK 921   NORMALIZED FREE ENERGY PREDICTED BY IDOCK:   -4.59 KCAL/MOL
REMARK 922        TOTAL FREE ENERGY PREDICTED BY IDOCK:   -6.49 KCAL/MOL
REMARK 923 INTER-LIGAND FREE ENERGY PREDICTED BY IDOCK:   -5.85 KCAL/MOL
REMARK 924 INTRA-LIGAND FREE ENERGY PREDICTED BY IDOCK:   -0.64 KCAL/MOL
REMARK 927      BINDING AFFINITY PREDICTED BY RF-SCORE:    0.00 PKD
ROOT
HETATM    1  C   UNL     1     -10.815   6.716  67.197  1.00  0.00    -0.471 C  
HETATM    2  C   UNL     1     -10.295   8.037  67.737  1.00  0.00    -0.231 C  
ENDROOT
BRANCH   2   3
HETATM    3  O   UNL     1     -10.889   9.088  66.964  1.00  0.00    -0.183 OA 
BRANCH   3   4
HETATM    4  C   UNL     1     -10.093  10.169  66.733  1.00  0.00    -0.219 C  
HETATM    5  O   UNL     1      -9.534  10.819  67.605  1.00  0.00    -0.153 OA 
BRANCH   4   6
HETATM    6  C   UNL     1      -9.935  10.350  65.314  1.00  0.00    -0.309 A  
HETATM    7  C   UNL     1      -9.033   9.743  64.460  1.00  0.00    -0.238 A  
HETATM    8  N   UNL     1      -9.149  10.213  63.183  1.00  0.00    -0.254 NA 
HETATM    9  C   UNL     1     -10.108  11.106  63.235  1.00  0.00    -0.380 A  
HETATM   10  N   UNL     1     -10.633  11.222  64.494  1.00  0.00    -0.331 NA 
BRANCH  10  11
HETATM   11  C   UNL     1     -11.769  12.078  64.877  1.00  0.00    -0.258 C  
HETATM   12  C   UNL     1     -12.676  12.337  63.671  1.00  0.00    -0.526 C  
BRANCH  11  13
HETATM   13  C   UNL     1     -11.327  13.340  65.613  1.00  0.00    -0.325 A  
HETATM   14  C   UNL     1     -11.875  13.624  66.877  1.00  0.00    -0.451 A  
HETATM   15  C   UNL     1     -11.535  14.795  67.557  1.00  0.00    -0.369 A  
HETATM   16  C   UNL     1     -10.639  15.696  66.991  1.00  0.00    -0.311 A  
HETATM   17  C   UNL     1     -10.070  15.422  65.751  1.00  0.00    -0.391 A  
HETATM   18  C   UNL     1     -10.407  14.252  65.067  1.00  0.00    -0.448 A  
ENDBRANCH  11  13
ENDBRANCH  10  11
ENDBRANCH   4   6
ENDBRANCH   3   4
ENDBRANCH   2   3
TORSDOF 5
ENDMDL
MODEL       48
REMARK 921   NORMALIZED FREE ENERGY PREDICTED BY IDOCK:   -4.58 KCAL/MOL
REMARK 922        TOTAL FREE ENERGY PREDICTED BY IDOCK:   -6.47 KCAL/MOL
REMARK 923 INTER-LIGAND FREE ENERGY PREDICTED BY IDOCK:   -5.79 KCAL/MOL
REMARK 924 INTRA-LIGAND FREE ENERGY PREDICTED BY IDOCK:   -0.68 KCAL/MOL
REMARK 927      BINDING AFFINITY PREDICTED BY RF-SCORE:    0.00 PKD
ROOT
HETATM    1  C   UNL     1     -10.902   6.869  67.080  1.00  0.00    -0.436 C  
HETATM    2  C   UNL     1     -10.168   8.165  66.786  1.00  0.00    -0.302 C  
ENDROOT
BRANCH   2   3
HETATM    3  O   UNL     1     -10.784   9.201  67.563  1.00  0.00    -0.273 OA 
BRANCH   3   4
HETATM    4  C   UNL     1      -9.944   9.907  68.371  1.00  0.00    -0.158 C  
HETATM    5  O   UNL     1      -8.734   9.743  68.428  1.00  0.00    -0.118 OA 
BRANCH   4   6
HETATM    6  C   UNL     1     -10.690  10.933  69.052  1.00  0.00    -0.224 A  
HETATM    7  C   UNL     1     -11.466  10.826  70.191  1.00  0.00    -0.331 A  
HETATM    8  N   UNL     1     -12.066  12.011  70.507  1.00  0.00    -0.364 NA 
HETATM    9  C   UNL     1     -11.676  12.850  69.579  1.00  0.00    -0.323 A  
HETATM   10  N   UNL     1     -10.829  12.260  68.678  1.00  0.00    -0.229 NA 
BRANCH  10  11
HETATM   11  C   UNL     1     -10.154  12.939  67.560  1.00  0.00    -0.214 C  
HETATM   12  C   UNL     1     -10.018  14.437  67.844  1.00  0.00    -0.228 C  
BRANCH  11  13
HETATM   13  C   UNL     1     -10.788  12.612  66.210  1.00  0.00    -0.300 A  
HETATM   14  C   UNL     1     -10.061  11.850  65.278  1.00  0.00    -0.290 A  
HETATM   15  C   UNL     1     -10.585  11.575  64.014  1.00  0.00    -0.437 A  
HETATM   16  C   UNL     1     -11.846  12.050  63.663  1.00  0.00    -0.602 A  
HETATM   17  C   UNL     1     -12.589  12.787  64.580  1.00  0.00    -0.463 A  
HETATM   18  C   UNL     1     -12.068  13.064  65.845  1.00  0.00    -0.503 A  
ENDBRANCH  11  13
ENDBRANCH  10  11
ENDBRANCH   4   6
ENDBRANCH   3   4
ENDBRANCH   2   3
TORSDOF 5
ENDMDL
MODEL       49
REMARK 921   NORMALIZED FREE ENERGY PREDICTED BY IDOCK:   -4.57 KCAL/MOL
REMARK 922        TOTAL FREE ENERGY PREDICTED BY IDOCK:   -6.46 KCAL/MOL
REMARK 923 INTER-LIGAND FREE ENERGY PREDICTED BY IDOCK:   -5.72 KCAL/MOL
REMARK 924 INTRA-LIGAND FREE ENERGY PREDICTED BY IDOCK:   -0.74 KCAL/MOL
REMARK 927      BINDING AFFINITY PREDICTED BY RF-SCORE:    0.00 PKD
ROOT
HETATM    1  C   UNL     1      -8.275  10.489  68.481  1.00  0.00    -0.123 C  
HETATM    2  C   UNL     1      -9.369  11.321  67.836  1.00  0.00    -0.161 C  
ENDROOT
BRANCH   2   3
HETATM    3  O   UNL     1     -10.173  11.875  68.886  1.00  0.00    -0.176 OA 
BRANCH   3   4
HETATM    4  C   UNL     1     -11.508  11.621  68.799  1.00  0.00    -0.285 C  
HETATM    5  O   UNL     1     -12.054  11.095  67.840  1.00  0.00    -0.627 OA 
BRANCH   4   6
HETATM    6  C   UNL     1     -12.142  11.969  70.044  1.00  0.00    -0.280 A  
HETATM    7  C   UNL     1     -12.364  13.224  70.581  1.00  0.00    -0.339 A  
HETATM    8  N   UNL     1     -12.946  13.151  71.814  1.00  0.00    -0.360 NA 
HETATM    9  C   UNL     1     -13.084  11.869  72.050  1.00  0.00    -0.336 A  
HETATM   10  N   UNL     1     -12.630  11.104  71.010  1.00  0.00    -0.393 NA 
BRANCH  10  11
HETATM   11  C   UNL     1     -12.707   9.635  70.924  1.00  0.00    -0.202 C  
HETATM   12  C   UNL     1     -14.081   9.142  71.386  1.00  0.00    -0.194 C  
BRANCH  11  13
HETATM   13  C   UNL     1     -11.530   8.948  71.611  1.00  0.00    -0.409 A  
HETATM   14  C   UNL     1     -11.783   7.998  72.617  1.00  0.00    -0.418 A  
HETATM   15  C   UNL     1     -10.732   7.387  73.305  1.00  0.00    -0.441 A  
HETATM   16  C   UNL     1      -9.414   7.709  72.993  1.00  0.00    -0.282 A  
HETATM   17  C   UNL     1      -9.145   8.630  71.986  1.00  0.00    -0.311 A  
HETATM   18  C   UNL     1     -10.192   9.243  71.296  1.00  0.00    -0.383 A  
ENDBRANCH  11  13
ENDBRANCH  10  11
ENDBRANCH   4   6
ENDBRANCH   3   4
ENDBRANCH   2   3
TORSDOF 5
ENDMDL
MODEL       50
REMARK 921   NORMALIZED FREE ENERGY PREDICTED BY IDOCK:   -4.55 KCAL/MOL
REMARK 922        TOTAL FREE ENERGY PREDICTED BY IDOCK:   -6.43 KCAL/MOL
REMARK 923 INTER-LIGAND FREE ENERGY PREDICTED BY IDOCK:   -5.76 KCAL/MOL
REMARK 924 INTRA-LIGAND FREE ENERGY PREDICTED BY IDOCK:   -0.67 KCAL/MOL
REMARK 927      BINDING AFFINITY PREDICTED BY RF-SCORE:    0.00 PKD
ROOT
HETATM    1  C   UNL     1     -12.195   9.052  71.450  1.00  0.00    -0.387 C  
HETATM    2  C   UNL     1     -12.682  10.488  71.362  1.00  0.00    -0.442 C  
ENDROOT
BRANCH   2   3
HETATM    3  O   UNL     1     -12.633  10.882  69.984  1.00  0.00    -0.295 OA 
BRANCH   3   4
HETATM    4  C   UNL     1     -11.966  12.042  69.728  1.00  0.00    -0.300 C  
HETATM    5  O   UNL     1     -12.140  13.090  70.332  1.00  0.00    -0.359 OA 
BRANCH   4   6
HETATM    6  C   UNL     1     -10.965  11.804  68.721  1.00  0.00    -0.234 A  
HETATM    7  C   UNL     1      -9.871  10.960  68.771  1.00  0.00    -0.196 A  
HETATM    8  N   UNL     1      -9.113  11.046  67.638  1.00  0.00    -0.144 NA 
HETATM    9  C   UNL     1      -9.721  11.933  66.888  1.00  0.00    -0.200 A  
HETATM   10  N   UNL     1     -10.855  12.417  67.482  1.00  0.00    -0.230 NA 
BRANCH  10  11
HETATM   11  C   UNL     1     -11.804  13.368  66.880  1.00  0.00    -0.403 C  
HETATM   12  C   UNL     1     -12.232  12.892  65.489  1.00  0.00    -0.527 C  
BRANCH  11  13
HETATM   13  C   UNL     1     -11.294  14.806  66.921  1.00  0.00    -0.358 A  
HETATM   14  C   UNL     1     -10.689  15.352  65.774  1.00  0.00    -0.360 A  
HETATM   15  C   UNL     1     -10.163  16.645  65.789  1.00  0.00    -0.328 A  
HETATM   16  C   UNL     1     -10.239  17.416  66.946  1.00  0.00    -0.322 A  
HETATM   17  C   UNL     1     -10.853  16.901  68.083  1.00  0.00    -0.351 A  
HETATM   18  C   UNL     1     -11.380  15.608  68.072  1.00  0.00    -0.324 A  
ENDBRANCH  11  13
ENDBRANCH  10  11
ENDBRANCH   4   6
ENDBRANCH   3   4
ENDBRANCH   2   3
TORSDOF 5
ENDMDL
MODEL       51
REMARK 921   NORMALIZED FREE ENERGY PREDICTED BY IDOCK:   -4.55 KCAL/MOL
REMARK 922        TOTAL FREE ENERGY PREDICTED BY IDOCK:   -6.42 KCAL/MOL
REMARK 923 INTER-LIGAND FREE ENERGY PREDICTED BY IDOCK:   -6.00 KCAL/MOL
REMARK 924 INTRA-LIGAND FREE ENERGY PREDICTED BY IDOCK:   -0.42 KCAL/MOL
REMARK 927      BINDING AFFINITY PREDICTED BY RF-SCORE:    0.00 PKD
ROOT
HETATM    1  C   UNL     1     -10.162   8.447  69.372  1.00  0.00    -0.208 C  
HETATM    2  C   UNL     1     -10.155   9.928  69.705  1.00  0.00    -0.230 C  
ENDROOT
BRANCH   2   3
HETATM    3  O   UNL     1      -9.931  10.649  68.485  1.00  0.00    -0.155 OA 
BRANCH   3   4
HETATM    4  C   UNL     1     -10.991  10.702  67.632  1.00  0.00    -0.310 C  
HETATM    5  O   UNL     1     -12.141  10.948  67.967  1.00  0.00    -0.563 OA 
BRANCH   4   6
HETATM    6  C   UNL     1     -10.524  10.533  66.281  1.00  0.00    -0.183 A  
HETATM    7  C   UNL     1      -9.609   9.620  65.790  1.00  0.00    -0.263 A  
HETATM    8  N   UNL     1      -9.377   9.803  64.457  1.00  0.00    -0.263 NA 
HETATM    9  C   UNL     1     -10.134  10.818  64.115  1.00  0.00    -0.353 A  
HETATM   10  N   UNL     1     -10.863  11.293  65.172  1.00  0.00    -0.241 NA 
BRANCH  10  11
HETATM   11  C   UNL     1     -11.861  12.374  65.113  1.00  0.00    -0.388 C  
HETATM   12  C   UNL     1     -12.358  12.567  63.678  1.00  0.00    -0.618 C  
BRANCH  11  13
HETATM   13  C   UNL     1     -11.375  13.654  65.787  1.00  0.00    -0.315 A  
HETATM   14  C   UNL     1     -10.328  14.385  65.196  1.00  0.00    -0.447 A  
HETATM   15  C   UNL     1      -9.821  15.532  65.810  1.00  0.00    -0.392 A  
HETATM   16  C   UNL     1     -10.355  15.971  67.018  1.00  0.00    -0.292 A  
HETATM   17  C   UNL     1     -11.406  15.274  67.605  1.00  0.00    -0.315 A  
HETATM   18  C   UNL     1     -11.916  14.127  66.995  1.00  0.00    -0.471 A  
ENDBRANCH  11  13
ENDBRANCH  10  11
ENDBRANCH   4   6
ENDBRANCH   3   4
ENDBRANCH   2   3
TORSDOF 5
ENDMDL
MODEL       52
REMARK 921   NORMALIZED FREE ENERGY PREDICTED BY IDOCK:   -4.52 KCAL/MOL
REMARK 922        TOTAL FREE ENERGY PREDICTED BY IDOCK:   -6.39 KCAL/MOL
REMARK 923 INTER-LIGAND FREE ENERGY PREDICTED BY IDOCK:   -5.87 KCAL/MOL
REMARK 924 INTRA-LIGAND FREE ENERGY PREDICTED BY IDOCK:   -0.52 KCAL/MOL
REMARK 927      BINDING AFFINITY PREDICTED BY RF-SCORE:    0.00 PKD
ROOT
HETATM    1  C   UNL     1      -9.089   8.246  66.676  1.00  0.00    -0.204 C  
HETATM    2  C   UNL     1      -8.708   9.208  65.564  1.00  0.00    -0.181 C  
ENDROOT
BRANCH   2   3
HETATM    3  O   UNL     1      -9.915   9.613  64.904  1.00  0.00    -0.173 OA 
BRANCH   3   4
HETATM    4  C   UNL     1      -9.822  10.748  64.156  1.00  0.00    -0.326 C  
HETATM    5  O   UNL     1      -8.886  11.018  63.417  1.00  0.00    -0.161 OA 
BRANCH   4   6
HETATM    6  C   UNL     1     -11.036  11.510  64.293  1.00  0.00    -0.341 A  
HETATM    7  C   UNL     1     -12.024  11.739  63.354  1.00  0.00    -0.338 A  
HETATM    8  N   UNL     1     -13.001  12.561  63.838  1.00  0.00    -0.750 NA 
HETATM    9  C   UNL     1     -12.631  12.847  65.062  1.00  0.00    -0.472 A  
HETATM   10  N   UNL     1     -11.457  12.229  65.401  1.00  0.00    -0.345 NA 
BRANCH  10  11
HETATM   11  C   UNL     1     -10.806  12.281  66.721  1.00  0.00    -0.253 C  
HETATM   12  C   UNL     1     -11.255  11.102  67.588  1.00  0.00    -0.364 C  
BRANCH  11  13
HETATM   13  C   UNL     1     -10.954  13.645  67.391  1.00  0.00    -0.289 A  
HETATM   14  C   UNL     1     -11.708  13.749  68.574  1.00  0.00    -0.391 A  
HETATM   15  C   UNL     1     -11.911  14.987  69.187  1.00  0.00    -0.338 A  
HETATM   16  C   UNL     1     -11.358  16.138  68.633  1.00  0.00    -0.365 A  
HETATM   17  C   UNL     1     -10.592  16.052  67.476  1.00  0.00    -0.313 A  
HETATM   18  C   UNL     1     -10.387  14.816  66.860  1.00  0.00    -0.267 A  
ENDBRANCH  11  13
ENDBRANCH  10  11
ENDBRANCH   4   6
ENDBRANCH   3   4
ENDBRANCH   2   3
TORSDOF 5
ENDMDL
MODEL       53
REMARK 921   NORMALIZED FREE ENERGY PREDICTED BY IDOCK:   -4.50 KCAL/MOL
REMARK 922        TOTAL FREE ENERGY PREDICTED BY IDOCK:   -6.37 KCAL/MOL
REMARK 923 INTER-LIGAND FREE ENERGY PREDICTED BY IDOCK:   -6.01 KCAL/MOL
REMARK 924 INTRA-LIGAND FREE ENERGY PREDICTED BY IDOCK:   -0.36 KCAL/MOL
REMARK 927      BINDING AFFINITY PREDICTED BY RF-SCORE:    0.00 PKD
ROOT
HETATM    1  C   UNL     1      -8.989   9.980  62.379  1.00  0.00    -0.287 C  
HETATM    2  C   UNL     1      -9.247   9.837  63.869  1.00  0.00    -0.198 C  
ENDROOT
BRANCH   2   3
HETATM    3  O   UNL     1     -10.289  10.758  64.221  1.00  0.00    -0.359 OA 
BRANCH   3   4
HETATM    4  C   UNL     1      -9.997  11.612  65.241  1.00  0.00    -0.255 C  
HETATM    5  O   UNL     1      -8.922  11.658  65.822  1.00  0.00    -0.170 OA 
BRANCH   4   6
HETATM    6  C   UNL     1     -11.105  12.508  65.444  1.00  0.00    -0.302 A  
HETATM    7  C   UNL     1     -11.902  13.128  64.499  1.00  0.00    -0.377 A  
HETATM    8  N   UNL     1     -12.822  13.955  65.076  1.00  0.00    -0.733 NA 
HETATM    9  C   UNL     1     -12.605  13.860  66.365  1.00  0.00    -0.268 A  
HETATM   10  N   UNL     1     -11.589  12.988  66.651  1.00  0.00    -0.340 NA 
BRANCH  10  11
HETATM   11  C   UNL     1     -11.143  12.599  68.000  1.00  0.00    -0.251 C  
HETATM   12  C   UNL     1     -11.829  11.303  68.439  1.00  0.00    -0.331 C  
BRANCH  11  13
HETATM   13  C   UNL     1     -11.257  13.742  69.005  1.00  0.00    -0.313 A  
HETATM   14  C   UNL     1     -12.209  13.654  70.038  1.00  0.00    -0.395 A  
HETATM   15  C   UNL     1     -12.381  14.702  70.944  1.00  0.00    -0.406 A  
HETATM   16  C   UNL     1     -11.600  15.850  70.839  1.00  0.00    -0.456 A  
HETATM   17  C   UNL     1     -10.638  15.945  69.838  1.00  0.00    -0.327 A  
HETATM   18  C   UNL     1     -10.464  14.899  68.930  1.00  0.00    -0.242 A  
ENDBRANCH  11  13
ENDBRANCH  10  11
ENDBRANCH   4   6
ENDBRANCH   3   4
ENDBRANCH   2   3
TORSDOF 5
ENDMDL
MODEL       54
REMARK 921   NORMALIZED FREE ENERGY PREDICTED BY IDOCK:   -4.50 KCAL/MOL
REMARK 922        TOTAL FREE ENERGY PREDICTED BY IDOCK:   -6.36 KCAL/MOL
REMARK 923 INTER-LIGAND FREE ENERGY PREDICTED BY IDOCK:   -5.72 KCAL/MOL
REMARK 924 INTRA-LIGAND FREE ENERGY PREDICTED BY IDOCK:   -0.65 KCAL/MOL
REMARK 927      BINDING AFFINITY PREDICTED BY RF-SCORE:    0.00 PKD
ROOT
HETATM    1  C   UNL     1     -14.340   8.585  72.041  1.00  0.00    -0.537 C  
HETATM    2  C   UNL     1     -12.929   9.143  72.108  1.00  0.00    -0.425 C  
ENDROOT
BRANCH   2   3
HETATM    3  O   UNL     1     -12.041   8.053  72.387  1.00  0.00    -0.340 OA 
BRANCH   3   4
HETATM    4  C   UNL     1     -11.413   7.515  71.305  1.00  0.00    -0.274 C  
HETATM    5  O   UNL     1     -11.852   6.590  70.636  1.00  0.00    -0.384 OA 
BRANCH   4   6
HETATM    6  C   UNL     1     -10.224   8.274  71.017  1.00  0.00    -0.191 A  
HETATM    7  C   UNL     1      -9.027   8.301  71.709  1.00  0.00    -0.181 A  
HETATM    8  N   UNL     1      -8.146   9.190  71.162  1.00  0.00    -0.306 NA 
HETATM    9  C   UNL     1      -8.782   9.717  70.144  1.00  0.00    -0.231 A  
HETATM   10  N   UNL     1     -10.038   9.192  69.996  1.00  0.00    -0.194 NA 
BRANCH  10  11
HETATM   11  C   UNL     1     -10.982   9.511  68.911  1.00  0.00    -0.086 C  
HETATM   12  C   UNL     1     -10.513   8.893  67.592  1.00  0.00    -0.320 C  
BRANCH  11  13
HETATM   13  C   UNL     1     -11.293  11.003  68.830  1.00  0.00    -0.349 A  
HETATM   14  C   UNL     1     -11.718  11.679  69.988  1.00  0.00    -0.402 A  
HETATM   15  C   UNL     1     -12.063  13.031  69.942  1.00  0.00    -0.347 A  
HETATM   16  C   UNL     1     -11.983  13.731  68.741  1.00  0.00    -0.400 A  
HETATM   17  C   UNL     1     -11.544  13.085  67.590  1.00  0.00    -0.403 A  
HETATM   18  C   UNL     1     -11.197  11.733  67.632  1.00  0.00    -0.345 A  
ENDBRANCH  11  13
ENDBRANCH  10  11
ENDBRANCH   4   6
ENDBRANCH   3   4
ENDBRANCH   2   3
TORSDOF 5
ENDMDL
MODEL       55
REMARK 921   NORMALIZED FREE ENERGY PREDICTED BY IDOCK:   -4.48 KCAL/MOL
REMARK 922        TOTAL FREE ENERGY PREDICTED BY IDOCK:   -6.34 KCAL/MOL
REMARK 923 INTER-LIGAND FREE ENERGY PREDICTED BY IDOCK:   -5.54 KCAL/MOL
REMARK 924 INTRA-LIGAND FREE ENERGY PREDICTED BY IDOCK:   -0.80 KCAL/MOL
REMARK 927      BINDING AFFINITY PREDICTED BY RF-SCORE:    0.00 PKD
ROOT
HETATM    1  C   UNL     1     -12.383   6.944  71.058  1.00  0.00    -0.401 C  
HETATM    2  C   UNL     1     -11.298   6.638  70.041  1.00  0.00    -0.382 C  
ENDROOT
BRANCH   2   3
HETATM    3  O   UNL     1     -10.549   7.842  69.824  1.00  0.00    -0.235 OA 
BRANCH   3   4
HETATM    4  C   UNL     1     -10.303   8.154  68.521  1.00  0.00    -0.198 C  
HETATM    5  O   UNL     1     -10.753   7.540  67.563  1.00  0.00    -0.256 OA 
BRANCH   4   6
HETATM    6  C   UNL     1      -9.531   9.367  68.459  1.00  0.00    -0.145 A  
HETATM    7  C   UNL     1      -8.157   9.520  68.487  1.00  0.00    -0.101 A  
HETATM    8  N   UNL     1      -7.794  10.836  68.464  1.00  0.00    -0.114 NA 
HETATM    9  C   UNL     1      -8.924  11.501  68.426  1.00  0.00    -0.173 A  
HETATM   10  N   UNL     1     -10.009  10.667  68.406  1.00  0.00    -0.158 NA 
BRANCH  10  11
HETATM   11  C   UNL     1     -11.416  11.087  68.289  1.00  0.00    -0.304 C  
HETATM   12  C   UNL     1     -11.584  12.087  67.142  1.00  0.00    -0.387 C  
BRANCH  11  13
HETATM   13  C   UNL     1     -11.997  11.556  69.621  1.00  0.00    -0.407 A  
HETATM   14  C   UNL     1     -12.505  10.602  70.521  1.00  0.00    -0.445 A  
HETATM   15  C   UNL     1     -13.092  10.995  71.725  1.00  0.00    -0.554 A  
HETATM   16  C   UNL     1     -13.175  12.346  72.052  1.00  0.00    -0.514 A  
HETATM   17  C   UNL     1     -12.658  13.303  71.184  1.00  0.00    -0.412 A  
HETATM   18  C   UNL     1     -12.070  12.913  69.979  1.00  0.00    -0.357 A  
ENDBRANCH  11  13
ENDBRANCH  10  11
ENDBRANCH   4   6
ENDBRANCH   3   4
ENDBRANCH   2   3
TORSDOF 5
ENDMDL
MODEL       56
REMARK 921   NORMALIZED FREE ENERGY PREDICTED BY IDOCK:   -4.47 KCAL/MOL
REMARK 922        TOTAL FREE ENERGY PREDICTED BY IDOCK:   -6.32 KCAL/MOL
REMARK 923 INTER-LIGAND FREE ENERGY PREDICTED BY IDOCK:   -6.04 KCAL/MOL
REMARK 924 INTRA-LIGAND FREE ENERGY PREDICTED BY IDOCK:   -0.28 KCAL/MOL
REMARK 927      BINDING AFFINITY PREDICTED BY RF-SCORE:    0.00 PKD
ROOT
HETATM    1  C   UNL     1     -12.241   9.733  71.322  1.00  0.00    -0.465 C  
HETATM    2  C   UNL     1     -12.018  10.964  70.461  1.00  0.00    -0.371 C  
ENDROOT
BRANCH   2   3
HETATM    3  O   UNL     1     -10.989  10.654  69.512  1.00  0.00    -0.236 OA 
BRANCH   3   4
HETATM    4  C   UNL     1     -11.348  10.755  68.202  1.00  0.00    -0.308 C  
HETATM    5  O   UNL     1     -12.140  11.576  67.761  1.00  0.00    -0.626 OA 
BRANCH   4   6
HETATM    6  C   UNL     1     -10.573   9.827  67.422  1.00  0.00    -0.267 A  
HETATM    7  C   UNL     1     -10.617   8.445  67.427  1.00  0.00    -0.243 A  
HETATM    8  N   UNL     1      -9.686   7.906  66.586  1.00  0.00    -0.227 NA 
HETATM    9  C   UNL     1      -9.064   8.934  66.063  1.00  0.00    -0.214 A  
HETATM   10  N   UNL     1      -9.565  10.124  66.518  1.00  0.00    -0.179 NA 
BRANCH  10  11
HETATM   11  C   UNL     1      -9.141  11.462  66.074  1.00  0.00    -0.208 C  
HETATM   12  C   UNL     1      -8.674  12.300  67.267  1.00  0.00    -0.188 C  
BRANCH  11  13
HETATM   13  C   UNL     1     -10.188  12.146  65.199  1.00  0.00    -0.308 A  
HETATM   14  C   UNL     1     -10.438  13.520  65.374  1.00  0.00    -0.322 A  
HETATM   15  C   UNL     1     -11.424  14.169  64.630  1.00  0.00    -0.392 A  
HETATM   16  C   UNL     1     -12.172  13.459  63.694  1.00  0.00    -0.480 A  
HETATM   17  C   UNL     1     -11.924  12.106  63.491  1.00  0.00    -0.619 A  
HETATM   18  C   UNL     1     -10.938  11.453  64.233  1.00  0.00    -0.390 A  
ENDBRANCH  11  13
ENDBRANCH  10  11
ENDBRANCH   4   6
ENDBRANCH   3   4
ENDBRANCH   2   3
TORSDOF 5
ENDMDL
MODEL       57
REMARK 921   NORMALIZED FREE ENERGY PREDICTED BY IDOCK:   -4.47 KCAL/MOL
REMARK 922        TOTAL FREE ENERGY PREDICTED BY IDOCK:   -6.32 KCAL/MOL
REMARK 923 INTER-LIGAND FREE ENERGY PREDICTED BY IDOCK:   -5.80 KCAL/MOL
REMARK 924 INTRA-LIGAND FREE ENERGY PREDICTED BY IDOCK:   -0.53 KCAL/MOL
REMARK 927      BINDING AFFINITY PREDICTED BY RF-SCORE:    0.00 PKD
ROOT
HETATM    1  C   UNL     1     -12.776  10.896  71.185  1.00  0.00    -0.530 C  
HETATM    2  C   UNL     1     -11.526  10.923  70.324  1.00  0.00    -0.302 C  
ENDROOT
BRANCH   2   3
HETATM    3  O   UNL     1     -11.548  12.135  69.559  1.00  0.00    -0.295 OA 
BRANCH   3   4
HETATM    4  C   UNL     1     -11.340  11.989  68.220  1.00  0.00    -0.286 C  
HETATM    5  O   UNL     1     -12.155  11.520  67.438  1.00  0.00    -0.593 OA 
BRANCH   4   6
HETATM    6  C   UNL     1     -10.069  12.566  67.869  1.00  0.00    -0.214 A  
HETATM    7  C   UNL     1      -8.799  12.124  68.193  1.00  0.00    -0.187 A  
HETATM    8  N   UNL     1      -7.835  12.970  67.726  1.00  0.00    -0.142 NA 
HETATM    9  C   UNL     1      -8.489  13.931  67.120  1.00  0.00    -0.180 A  
HETATM   10  N   UNL     1      -9.843  13.735  67.160  1.00  0.00    -0.237 NA 
BRANCH  10  11
HETATM   11  C   UNL     1     -10.856  14.587  66.514  1.00  0.00    -0.314 C  
HETATM   12  C   UNL     1     -10.951  14.268  65.020  1.00  0.00    -0.394 C  
BRANCH  11  13
HETATM   13  C   UNL     1     -10.660  16.067  66.828  1.00  0.00    -0.297 A  
HETATM   14  C   UNL     1     -10.639  16.486  68.171  1.00  0.00    -0.329 A  
HETATM   15  C   UNL     1     -10.516  17.838  68.498  1.00  0.00    -0.332 A  
HETATM   16  C   UNL     1     -10.403  18.791  67.490  1.00  0.00    -0.471 A  
HETATM   17  C   UNL     1     -10.399  18.394  66.157  1.00  0.00    -0.431 A  
HETATM   18  C   UNL     1     -10.523  17.043  65.826  1.00  0.00    -0.261 A  
ENDBRANCH  11  13
ENDBRANCH  10  11
ENDBRANCH   4   6
ENDBRANCH   3   4
ENDBRANCH   2   3
TORSDOF 5
ENDMDL
MODEL       58
REMARK 921   NORMALIZED FREE ENERGY PREDICTED BY IDOCK:   -4.47 KCAL/MOL
REMARK 922        TOTAL FREE ENERGY PREDICTED BY IDOCK:   -6.32 KCAL/MOL
REMARK 923 INTER-LIGAND FREE ENERGY PREDICTED BY IDOCK:   -5.73 KCAL/MOL
REMARK 924 INTRA-LIGAND FREE ENERGY PREDICTED BY IDOCK:   -0.59 KCAL/MOL
REMARK 927      BINDING AFFINITY PREDICTED BY RF-SCORE:    0.00 PKD
ROOT
HETATM    1  C   UNL     1     -13.722  15.103  71.504  1.00  0.00    -0.582 C  
HETATM    2  C   UNL     1     -12.437  14.361  71.180  1.00  0.00    -0.359 C  
ENDROOT
BRANCH   2   3
HETATM    3  O   UNL     1     -12.327  14.282  69.753  1.00  0.00    -0.328 OA 
BRANCH   3   4
HETATM    4  C   UNL     1     -11.209  14.846  69.218  1.00  0.00    -0.284 C  
HETATM    5  O   UNL     1     -10.675  15.863  69.638  1.00  0.00    -0.252 OA 
BRANCH   4   6
HETATM    6  C   UNL     1     -10.705  14.002  68.166  1.00  0.00    -0.246 A  
HETATM    7  C   UNL     1     -10.211  12.714  68.252  1.00  0.00    -0.239 A  
HETATM    8  N   UNL     1      -9.773  12.258  67.041  1.00  0.00    -0.201 NA 
HETATM    9  C   UNL     1      -9.985  13.247  66.208  1.00  0.00    -0.291 A  
HETATM   10  N   UNL     1     -10.562  14.324  66.825  1.00  0.00    -0.276 NA 
BRANCH  10  11
HETATM   11  C   UNL     1     -10.996  15.566  66.163  1.00  0.00    -0.247 C  
HETATM   12  C   UNL     1     -11.415  15.285  64.717  1.00  0.00    -0.364 C  
BRANCH  11  13
HETATM   13  C   UNL     1      -9.980  16.694  66.314  1.00  0.00    -0.336 A  
HETATM   14  C   UNL     1     -10.439  18.005  66.538  1.00  0.00    -0.341 A  
HETATM   15  C   UNL     1      -9.544  19.072  66.629  1.00  0.00    -0.378 A  
HETATM   16  C   UNL     1      -8.176  18.846  66.504  1.00  0.00    -0.306 A  
HETATM   17  C   UNL     1      -7.701  17.554  66.304  1.00  0.00    -0.334 A  
HETATM   18  C   UNL     1      -8.594  16.485  66.213  1.00  0.00    -0.367 A  
ENDBRANCH  11  13
ENDBRANCH  10  11
ENDBRANCH   4   6
ENDBRANCH   3   4
ENDBRANCH   2   3
TORSDOF 5
ENDMDL
MODEL       59
REMARK 921   NORMALIZED FREE ENERGY PREDICTED BY IDOCK:   -4.43 KCAL/MOL
REMARK 922        TOTAL FREE ENERGY PREDICTED BY IDOCK:   -6.28 KCAL/MOL
REMARK 923 INTER-LIGAND FREE ENERGY PREDICTED BY IDOCK:   -5.89 KCAL/MOL
REMARK 924 INTRA-LIGAND FREE ENERGY PREDICTED BY IDOCK:   -0.39 KCAL/MOL
REMARK 927      BINDING AFFINITY PREDICTED BY RF-SCORE:    0.00 PKD
ROOT
HETATM    1  C   UNL     1     -12.088  16.069  71.857  1.00  0.00    -0.590 C  
HETATM    2  C   UNL     1     -12.849  15.223  70.851  1.00  0.00    -0.449 C  
ENDROOT
BRANCH   2   3
HETATM    3  O   UNL     1     -12.372  15.565  69.543  1.00  0.00    -0.292 OA 
BRANCH   3   4
HETATM    4  C   UNL     1     -11.639  14.603  68.916  1.00  0.00    -0.310 C  
HETATM    5  O   UNL     1     -11.406  13.495  69.379  1.00  0.00    -0.260 OA 
BRANCH   4   6
HETATM    6  C   UNL     1     -11.283  15.059  67.598  1.00  0.00    -0.326 A  
HETATM    7  C   UNL     1     -11.460  14.420  66.384  1.00  0.00    -0.360 A  
HETATM    8  N   UNL     1     -10.941  15.145  65.350  1.00  0.00    -0.354 NA 
HETATM    9  C   UNL     1     -10.443  16.223  65.906  1.00  0.00    -0.345 A  
HETATM   10  N   UNL     1     -10.632  16.236  67.262  1.00  0.00    -0.311 NA 
BRANCH  10  11
HETATM   11  C   UNL     1     -10.259  17.331  68.173  1.00  0.00    -0.343 C  
HETATM   12  C   UNL     1     -10.698  18.680  67.598  1.00  0.00    -0.428 C  
BRANCH  11  13
HETATM   13  C   UNL     1      -8.791  17.273  68.585  1.00  0.00    -0.261 A  
HETATM   14  C   UNL     1      -8.263  16.062  69.072  1.00  0.00    -0.235 A  
HETATM   15  C   UNL     1      -6.940  15.983  69.509  1.00  0.00    -0.191 A  
HETATM   16  C   UNL     1      -6.120  17.107  69.461  1.00  0.00    -0.238 A  
HETATM   17  C   UNL     1      -6.618  18.307  68.962  1.00  0.00    -0.263 A  
HETATM   18  C   UNL     1      -7.941  18.390  68.524  1.00  0.00    -0.333 A  
ENDBRANCH  11  13
ENDBRANCH  10  11
ENDBRANCH   4   6
ENDBRANCH   3   4
ENDBRANCH   2   3
TORSDOF 5
ENDMDL
MODEL       60
REMARK 921   NORMALIZED FREE ENERGY PREDICTED BY IDOCK:   -4.43 KCAL/MOL
REMARK 922        TOTAL FREE ENERGY PREDICTED BY IDOCK:   -6.27 KCAL/MOL
REMARK 923 INTER-LIGAND FREE ENERGY PREDICTED BY IDOCK:   -6.25 KCAL/MOL
REMARK 924 INTRA-LIGAND FREE ENERGY PREDICTED BY IDOCK:   -0.02 KCAL/MOL
REMARK 927      BINDING AFFINITY PREDICTED BY RF-SCORE:    0.00 PKD
ROOT
HETATM    1  C   UNL     1      -7.096  16.009  67.237  1.00  0.00    -0.238 C  
HETATM    2  C   UNL     1      -7.361  14.537  67.496  1.00  0.00    -0.189 C  
ENDROOT
BRANCH   2   3
HETATM    3  O   UNL     1      -8.273  14.445  68.599  1.00  0.00    -0.147 OA 
BRANCH   3   4
HETATM    4  C   UNL     1      -9.299  15.341  68.589  1.00  0.00    -0.201 C  
HETATM    5  O   UNL     1      -9.273  16.432  69.142  1.00  0.00    -0.257 OA 
BRANCH   4   6
HETATM    6  C   UNL     1     -10.355  14.848  67.745  1.00  0.00    -0.244 A  
HETATM    7  C   UNL     1     -10.700  15.249  66.467  1.00  0.00    -0.311 A  
HETATM    8  N   UNL     1     -11.800  14.583  66.008  1.00  0.00    -0.362 NA 
HETATM    9  C   UNL     1     -12.143  13.778  66.983  1.00  0.00    -0.397 A  
HETATM   10  N   UNL     1     -11.298  13.881  68.055  1.00  0.00    -0.273 NA 
BRANCH  10  11
HETATM   11  C   UNL     1     -11.359  13.066  69.281  1.00  0.00    -0.251 C  
HETATM   12  C   UNL     1     -11.761  11.627  68.949  1.00  0.00    -0.397 C  
BRANCH  11  13
HETATM   13  C   UNL     1     -12.202  13.718  70.373  1.00  0.00    -0.433 A  
HETATM   14  C   UNL     1     -12.710  12.919  71.415  1.00  0.00    -0.366 A  
HETATM   15  C   UNL     1     -13.528  13.468  72.403  1.00  0.00    -0.685 A  
HETATM   16  C   UNL     1     -13.847  14.823  72.372  1.00  0.00    -0.578 A  
HETATM   17  C   UNL     1     -13.337  15.632  71.362  1.00  0.00    -0.512 A  
HETATM   18  C   UNL     1     -12.517  15.087  70.372  1.00  0.00    -0.407 A  
ENDBRANCH  11  13
ENDBRANCH  10  11
ENDBRANCH   4   6
ENDBRANCH   3   4
ENDBRANCH   2   3
TORSDOF 5
ENDMDL
MODEL       61
REMARK 921   NORMALIZED FREE ENERGY PREDICTED BY IDOCK:   -4.40 KCAL/MOL
REMARK 922        TOTAL FREE ENERGY PREDICTED BY IDOCK:   -6.24 KCAL/MOL
REMARK 923 INTER-LIGAND FREE ENERGY PREDICTED BY IDOCK:   -5.68 KCAL/MOL
REMARK 924 INTRA-LIGAND FREE ENERGY PREDICTED BY IDOCK:   -0.56 KCAL/MOL
REMARK 927      BINDING AFFINITY PREDICTED BY RF-SCORE:    0.00 PKD
ROOT
HETATM    1  C   UNL     1     -10.207   8.191  67.527  1.00  0.00    -0.309 C  
HETATM    2  C   UNL     1     -10.386   9.445  68.365  1.00  0.00    -0.205 C  
ENDROOT
BRANCH   2   3
HETATM    3  O   UNL     1     -10.044  10.570  67.545  1.00  0.00    -0.176 OA 
BRANCH   3   4
HETATM    4  C   UNL     1     -11.093  11.199  66.945  1.00  0.00    -0.247 C  
HETATM    5  O   UNL     1     -12.122  11.531  67.515  1.00  0.00    -0.614 OA 
BRANCH   4   6
HETATM    6  C   UNL     1     -10.750  11.501  65.580  1.00  0.00    -0.272 A  
HETATM    7  C   UNL     1     -10.256  10.654  64.604  1.00  0.00    -0.334 A  
HETATM    8  N   UNL     1      -9.998  11.319  63.440  1.00  0.00    -0.356 NA 
HETATM    9  C   UNL     1     -10.320  12.567  63.682  1.00  0.00    -0.350 A  
HETATM   10  N   UNL     1     -10.796  12.737  64.954  1.00  0.00    -0.287 NA 
BRANCH  10  11
HETATM   11  C   UNL     1     -11.312  13.995  65.519  1.00  0.00    -0.313 C  
HETATM   12  C   UNL     1     -12.263  14.677  64.532  1.00  0.00    -0.473 C  
BRANCH  11  13
HETATM   13  C   UNL     1     -10.200  14.898  66.045  1.00  0.00    -0.317 A  
HETATM   14  C   UNL     1     -10.280  16.285  65.823  1.00  0.00    -0.390 A  
HETATM   15  C   UNL     1      -9.257  17.138  66.242  1.00  0.00    -0.260 A  
HETATM   16  C   UNL     1      -8.142  16.621  66.895  1.00  0.00    -0.249 A  
HETATM   17  C   UNL     1      -8.055  15.255  67.143  1.00  0.00    -0.248 A  
HETATM   18  C   UNL     1      -9.076  14.399  66.726  1.00  0.00    -0.278 A  
ENDBRANCH  11  13
ENDBRANCH  10  11
ENDBRANCH   4   6
ENDBRANCH   3   4
ENDBRANCH   2   3
TORSDOF 5
ENDMDL
MODEL       62
REMARK 921   NORMALIZED FREE ENERGY PREDICTED BY IDOCK:   -4.40 KCAL/MOL
REMARK 922        TOTAL FREE ENERGY PREDICTED BY IDOCK:   -6.23 KCAL/MOL
REMARK 923 INTER-LIGAND FREE ENERGY PREDICTED BY IDOCK:   -5.73 KCAL/MOL
REMARK 924 INTRA-LIGAND FREE ENERGY PREDICTED BY IDOCK:   -0.50 KCAL/MOL
REMARK 927      BINDING AFFINITY PREDICTED BY RF-SCORE:    0.00 PKD
ROOT
HETATM    1  C   UNL     1      -7.129  19.963  65.446  1.00  0.00    -0.289 C  
HETATM    2  C   UNL     1      -8.322  19.694  66.346  1.00  0.00    -0.353 C  
ENDROOT
BRANCH   2   3
HETATM    3  O   UNL     1      -7.821  19.298  67.630  1.00  0.00    -0.254 OA 
BRANCH   3   4
HETATM    4  C   UNL     1      -8.740  18.759  68.478  1.00  0.00    -0.346 C  
HETATM    5  O   UNL     1      -9.746  19.334  68.869  1.00  0.00    -0.409 OA 
BRANCH   4   6
HETATM    6  C   UNL     1      -8.393  17.388  68.748  1.00  0.00    -0.223 A  
HETATM    7  C   UNL     1      -7.155  16.852  69.050  1.00  0.00    -0.232 A  
HETATM    8  N   UNL     1      -7.210  15.495  69.187  1.00  0.00    -0.159 NA 
HETATM    9  C   UNL     1      -8.465  15.182  68.970  1.00  0.00    -0.214 A  
HETATM   10  N   UNL     1      -9.232  16.286  68.714  1.00  0.00    -0.230 NA 
BRANCH  10  11
HETATM   11  C   UNL     1     -10.690  16.291  68.503  1.00  0.00    -0.307 C  
HETATM   12  C   UNL     1     -11.416  15.803  69.759  1.00  0.00    -0.350 C  
BRANCH  11  13
HETATM   13  C   UNL     1     -11.096  15.567  67.222  1.00  0.00    -0.271 A  
HETATM   14  C   UNL     1     -10.626  16.046  65.985  1.00  0.00    -0.324 A  
HETATM   15  C   UNL     1     -11.018  15.444  64.789  1.00  0.00    -0.411 A  
HETATM   16  C   UNL     1     -11.878  14.350  64.807  1.00  0.00    -0.439 A  
HETATM   17  C   UNL     1     -12.336  13.849  66.021  1.00  0.00    -0.511 A  
HETATM   18  C   UNL     1     -11.946  14.448  67.220  1.00  0.00    -0.409 A  
ENDBRANCH  11  13
ENDBRANCH  10  11
ENDBRANCH   4   6
ENDBRANCH   3   4
ENDBRANCH   2   3
TORSDOF 5
ENDMDL
MODEL       63
REMARK 921   NORMALIZED FREE ENERGY PREDICTED BY IDOCK:   -4.38 KCAL/MOL
REMARK 922        TOTAL FREE ENERGY PREDICTED BY IDOCK:   -6.21 KCAL/MOL
REMARK 923 INTER-LIGAND FREE ENERGY PREDICTED BY IDOCK:   -5.94 KCAL/MOL
REMARK 924 INTRA-LIGAND FREE ENERGY PREDICTED BY IDOCK:   -0.28 KCAL/MOL
REMARK 927      BINDING AFFINITY PREDICTED BY RF-SCORE:    0.00 PKD
ROOT
HETATM    1  C   UNL     1      -8.975  19.591  68.641  1.00  0.00    -0.386 C  
HETATM    2  C   UNL     1      -8.689  18.119  68.403  1.00  0.00    -0.291 C  
ENDROOT
BRANCH   2   3
HETATM    3  O   UNL     1      -9.581  17.662  67.376  1.00  0.00    -0.259 OA 
BRANCH   3   4
HETATM    4  C   UNL     1      -9.377  16.386  66.947  1.00  0.00    -0.227 C  
HETATM    5  O   UNL     1      -8.358  15.992  66.396  1.00  0.00    -0.293 OA 
BRANCH   4   6
HETATM    6  C   UNL     1     -10.493  15.567  67.341  1.00  0.00    -0.281 A  
HETATM    7  C   UNL     1     -11.093  15.460  68.582  1.00  0.00    -0.289 A  
HETATM    8  N   UNL     1     -12.095  14.533  68.582  1.00  0.00    -0.265 NA 
HETATM    9  C   UNL     1     -12.123  14.061  67.359  1.00  0.00    -0.349 A  
HETATM   10  N   UNL     1     -11.187  14.658  66.558  1.00  0.00    -0.341 NA 
BRANCH  10  11
HETATM   11  C   UNL     1     -11.005  14.411  65.117  1.00  0.00    -0.373 C  
HETATM   12  C   UNL     1     -12.255  14.827  64.339  1.00  0.00    -0.447 C  
BRANCH  11  13
HETATM   13  C   UNL     1     -10.526  12.992  64.824  1.00  0.00    -0.382 A  
HETATM   14  C   UNL     1      -9.788  12.302  65.804  1.00  0.00    -0.260 A  
HETATM   15  C   UNL     1      -9.287  11.023  65.553  1.00  0.00    -0.242 A  
HETATM   16  C   UNL     1      -9.521  10.410  64.325  1.00  0.00    -0.349 A  
HETATM   17  C   UNL     1     -10.267  11.069  63.353  1.00  0.00    -0.404 A  
HETATM   18  C   UNL     1     -10.769  12.348  63.599  1.00  0.00    -0.497 A  
ENDBRANCH  11  13
ENDBRANCH  10  11
ENDBRANCH   4   6
ENDBRANCH   3   4
ENDBRANCH   2   3
TORSDOF 5
ENDMDL
MODEL       64
REMARK 921   NORMALIZED FREE ENERGY PREDICTED BY IDOCK:   -4.37 KCAL/MOL
REMARK 922        TOTAL FREE ENERGY PREDICTED BY IDOCK:   -6.20 KCAL/MOL
REMARK 923 INTER-LIGAND FREE ENERGY PREDICTED BY IDOCK:   -6.48 KCAL/MOL
REMARK 924 INTRA-LIGAND FREE ENERGY PREDICTED BY IDOCK:    0.28 KCAL/MOL
REMARK 927      BINDING AFFINITY PREDICTED BY RF-SCORE:    0.00 PKD
ROOT
HETATM    1  C   UNL     1      -9.102  10.178  63.353  1.00  0.00    -0.301 C  
HETATM    2  C   UNL     1      -9.105  10.054  64.867  1.00  0.00    -0.221 C  
ENDROOT
BRANCH   2   3
HETATM    3  O   UNL     1      -9.601  11.288  65.404  1.00  0.00    -0.216 OA 
BRANCH   3   4
HETATM    4  C   UNL     1     -10.675  11.177  66.234  1.00  0.00    -0.240 C  
HETATM    5  O   UNL     1     -10.835  10.277  67.047  1.00  0.00    -0.248 OA 
BRANCH   4   6
HETATM    6  C   UNL     1     -11.520  12.331  66.077  1.00  0.00    -0.381 A  
HETATM    7  C   UNL     1     -12.432  12.606  65.074  1.00  0.00    -0.487 A  
HETATM    8  N   UNL     1     -13.009  13.833  65.236  1.00  0.00    -0.754 NA 
HETATM    9  C   UNL     1     -12.464  14.325  66.322  1.00  0.00    -0.300 A  
HETATM   10  N   UNL     1     -11.567  13.457  66.885  1.00  0.00    -0.346 NA 
BRANCH  10  11
HETATM   11  C   UNL     1     -10.838  13.670  68.147  1.00  0.00    -0.246 C  
HETATM   12  C   UNL     1      -9.408  13.135  68.037  1.00  0.00    -0.219 C  
BRANCH  11  13
HETATM   13  C   UNL     1     -11.609  13.157  69.360  1.00  0.00    -0.360 A  
HETATM   14  C   UNL     1     -12.263  14.080  70.197  1.00  0.00    -0.425 A  
HETATM   15  C   UNL     1     -12.934  13.654  71.345  1.00  0.00    -0.427 A  
HETATM   16  C   UNL     1     -12.968  12.302  71.671  1.00  0.00    -0.416 A  
HETATM   17  C   UNL     1     -12.346  11.372  70.844  1.00  0.00    -0.483 A  
HETATM   18  C   UNL     1     -11.674  11.794  69.695  1.00  0.00    -0.413 A  
ENDBRANCH  11  13
ENDBRANCH  10  11
ENDBRANCH   4   6
ENDBRANCH   3   4
ENDBRANCH   2   3
TORSDOF 5
ENDMDL
MODEL       65
REMARK 921   NORMALIZED FREE ENERGY PREDICTED BY IDOCK:   -4.37 KCAL/MOL
REMARK 922        TOTAL FREE ENERGY PREDICTED BY IDOCK:   -6.19 KCAL/MOL
REMARK 923 INTER-LIGAND FREE ENERGY PREDICTED BY IDOCK:   -5.80 KCAL/MOL
REMARK 924 INTRA-LIGAND FREE ENERGY PREDICTED BY IDOCK:   -0.39 KCAL/MOL
REMARK 927      BINDING AFFINITY PREDICTED BY RF-SCORE:    0.00 PKD
ROOT
HETATM    1  C   UNL     1     -11.573  14.184  65.986  1.00  0.00    -0.364 C  
HETATM    2  C   UNL     1     -11.922  14.154  67.464  1.00  0.00    -0.384 C  
ENDROOT
BRANCH   2   3
HETATM    3  O   UNL     1     -10.930  13.361  68.130  1.00  0.00    -0.239 OA 
BRANCH   3   4
HETATM    4  C   UNL     1     -11.412  12.378  68.940  1.00  0.00    -0.307 C  
HETATM    5  O   UNL     1     -12.149  12.566  69.898  1.00  0.00    -0.304 OA 
BRANCH   4   6
HETATM    6  C   UNL     1     -11.007  11.096  68.427  1.00  0.00    -0.227 A  
HETATM    7  C   UNL     1     -10.807  10.714  67.113  1.00  0.00    -0.270 A  
HETATM    8  N   UNL     1     -10.479   9.392  67.014  1.00  0.00    -0.248 NA 
HETATM    9  C   UNL     1     -10.477   8.948  68.248  1.00  0.00    -0.195 A  
HETATM   10  N   UNL     1     -10.774   9.935  69.149  1.00  0.00    -0.217 NA 
BRANCH  10  11
HETATM   11  C   UNL     1     -10.783   9.789  70.614  1.00  0.00    -0.326 C  
HETATM   12  C   UNL     1      -9.469   9.171  71.099  1.00  0.00    -0.331 C  
BRANCH  11  13
HETATM   13  C   UNL     1     -12.035   9.081  71.123  1.00  0.00    -0.356 A  
HETATM   14  C   UNL     1     -12.064   7.675  71.152  1.00  0.00    -0.322 A  
HETATM   15  C   UNL     1     -13.210   6.990  71.560  1.00  0.00    -0.382 A  
HETATM   16  C   UNL     1     -14.343   7.698  71.952  1.00  0.00    -0.536 A  
HETATM   17  C   UNL     1     -14.326   9.089  71.951  1.00  0.00    -0.300 A  
HETATM   18  C   UNL     1     -13.181   9.777  71.543  1.00  0.00    -0.493 A  
ENDBRANCH  11  13
ENDBRANCH  10  11
ENDBRANCH   4   6
ENDBRANCH   3   4
ENDBRANCH   2   3
TORSDOF 5
ENDMDL
MODEL       66
REMARK 921   NORMALIZED FREE ENERGY PREDICTED BY IDOCK:   -4.36 KCAL/MOL
REMARK 922        TOTAL FREE ENERGY PREDICTED BY IDOCK:   -6.19 KCAL/MOL
REMARK 923 INTER-LIGAND FREE ENERGY PREDICTED BY IDOCK:   -5.75 KCAL/MOL
REMARK 924 INTRA-LIGAND FREE ENERGY PREDICTED BY IDOCK:   -0.44 KCAL/MOL
REMARK 927      BINDING AFFINITY PREDICTED BY RF-SCORE:    0.00 PKD
ROOT
HETATM    1  C   UNL     1     -10.757  19.566  67.153  1.00  0.00    -0.599 C  
HETATM    2  C   UNL     1      -9.889  18.540  66.446  1.00  0.00    -0.361 C  
ENDROOT
BRANCH   2   3
HETATM    3  O   UNL     1     -10.745  17.484  65.989  1.00  0.00    -0.264 OA 
BRANCH   3   4
HETATM    4  C   UNL     1     -10.142  16.277  65.805  1.00  0.00    -0.347 C  
HETATM    5  O   UNL     1      -8.932  16.107  65.745  1.00  0.00    -0.385 OA 
BRANCH   4   6
HETATM    6  C   UNL     1     -11.141  15.240  65.803  1.00  0.00    -0.301 A  
HETATM    7  C   UNL     1     -11.843  14.718  64.732  1.00  0.00    -0.423 A  
HETATM    8  N   UNL     1     -12.752  13.780  65.132  1.00  0.00    -0.686 NA 
HETATM    9  C   UNL     1     -12.625  13.717  66.435  1.00  0.00    -0.259 A  
HETATM   10  N   UNL     1     -11.656  14.566  66.899  1.00  0.00    -0.375 NA 
BRANCH  10  11
HETATM   11  C   UNL     1     -11.214  14.686  68.298  1.00  0.00    -0.285 C  
HETATM   12  C   UNL     1     -11.640  16.035  68.883  1.00  0.00    -0.354 C  
BRANCH  11  13
HETATM   13  C   UNL     1      -9.731  14.367  68.472  1.00  0.00    -0.225 A  
HETATM   14  C   UNL     1      -8.919  15.259  69.195  1.00  0.00    -0.233 A  
HETATM   15  C   UNL     1      -7.548  15.029  69.330  1.00  0.00    -0.195 A  
HETATM   16  C   UNL     1      -6.969  13.903  68.752  1.00  0.00    -0.108 A  
HETATM   17  C   UNL     1      -7.761  12.999  68.051  1.00  0.00    -0.145 A  
HETATM   18  C   UNL     1      -9.132  13.225  67.914  1.00  0.00    -0.203 A  
ENDBRANCH  11  13
ENDBRANCH  10  11
ENDBRANCH   4   6
ENDBRANCH   3   4
ENDBRANCH   2   3
TORSDOF 5
ENDMDL
MODEL       67
REMARK 921   NORMALIZED FREE ENERGY PREDICTED BY IDOCK:   -4.35 KCAL/MOL
REMARK 922        TOTAL FREE ENERGY PREDICTED BY IDOCK:   -6.17 KCAL/MOL
REMARK 923 INTER-LIGAND FREE ENERGY PREDICTED BY IDOCK:   -5.72 KCAL/MOL
REMARK 924 INTRA-LIGAND FREE ENERGY PREDICTED BY IDOCK:   -0.45 KCAL/MOL
REMARK 927      BINDING AFFINITY PREDICTED BY RF-SCORE:    0.00 PKD
ROOT
HETATM    1  C   UNL     1     -10.401  16.949  65.894  1.00  0.00    -0.327 C  
HETATM    2  C   UNL     1      -9.110  16.178  66.109  1.00  0.00    -0.347 C  
ENDROOT
BRANCH   2   3
HETATM    3  O   UNL     1      -9.442  14.786  66.194  1.00  0.00    -0.296 OA 
BRANCH   3   4
HETATM    4  C   UNL     1      -9.054  14.159  67.340  1.00  0.00    -0.198 C  
HETATM    5  O   UNL     1      -7.903  13.837  67.600  1.00  0.00    -0.149 OA 
BRANCH   4   6
HETATM    6  C   UNL     1     -10.184  14.039  68.223  1.00  0.00    -0.249 A  
HETATM    7  C   UNL     1     -10.659  14.948  69.151  1.00  0.00    -0.246 A  
HETATM    8  N   UNL     1     -11.725  14.454  69.845  1.00  0.00    -0.287 NA 
HETATM    9  C   UNL     1     -11.916  13.249  69.364  1.00  0.00    -0.301 A  
HETATM   10  N   UNL     1     -11.025  12.946  68.370  1.00  0.00    -0.246 NA 
BRANCH  10  11
HETATM   11  C   UNL     1     -11.013  11.708  67.573  1.00  0.00    -0.259 C  
HETATM   12  C   UNL     1      -9.758  10.886  67.877  1.00  0.00    -0.178 C  
BRANCH  11  13
HETATM   13  C   UNL     1     -11.249  11.967  66.087  1.00  0.00    -0.394 A  
HETATM   14  C   UNL     1     -12.359  12.737  65.694  1.00  0.00    -0.444 A  
HETATM   15  C   UNL     1     -12.638  12.952  64.343  1.00  0.00    -0.392 A  
HETATM   16  C   UNL     1     -11.810  12.408  63.365  1.00  0.00    -0.571 A  
HETATM   17  C   UNL     1     -10.695  11.663  63.735  1.00  0.00    -0.482 A  
HETATM   18  C   UNL     1     -10.413  11.446  65.085  1.00  0.00    -0.351 A  
ENDBRANCH  11  13
ENDBRANCH  10  11
ENDBRANCH   4   6
ENDBRANCH   3   4
ENDBRANCH   2   3
TORSDOF 5
ENDMDL
MODEL       68
REMARK 921   NORMALIZED FREE ENERGY PREDICTED BY IDOCK:   -4.34 KCAL/MOL
REMARK 922        TOTAL FREE ENERGY PREDICTED BY IDOCK:   -6.15 KCAL/MOL
REMARK 923 INTER-LIGAND FREE ENERGY PREDICTED BY IDOCK:   -5.90 KCAL/MOL
REMARK 924 INTRA-LIGAND FREE ENERGY PREDICTED BY IDOCK:   -0.25 KCAL/MOL
REMARK 927      BINDING AFFINITY PREDICTED BY RF-SCORE:    0.00 PKD
ROOT
HETATM    1  C   UNL     1     -13.028  10.493  71.682  1.00  0.00    -0.581 C  
HETATM    2  C   UNL     1     -11.940  10.160  70.676  1.00  0.00    -0.332 C  
ENDROOT
BRANCH   2   3
HETATM    3  O   UNL     1     -11.571  11.376  70.013  1.00  0.00    -0.298 OA 
BRANCH   3   4
HETATM    4  C   UNL     1     -11.317  11.264  68.680  1.00  0.00    -0.273 C  
HETATM    5  O   UNL     1     -12.152  10.971  67.836  1.00  0.00    -0.600 OA 
BRANCH   4   6
HETATM    6  C   UNL     1      -9.954  11.648  68.420  1.00  0.00    -0.201 A  
HETATM    7  C   UNL     1      -8.788  11.025  68.823  1.00  0.00    -0.147 A  
HETATM    8  N   UNL     1      -7.680  11.719  68.429  1.00  0.00    -0.124 NA 
HETATM    9  C   UNL     1      -8.144  12.766  67.790  1.00  0.00    -0.168 A  
HETATM   10  N   UNL     1      -9.512  12.771  67.738  1.00  0.00    -0.198 NA 
BRANCH  10  11
HETATM   11  C   UNL     1     -10.343  13.762  67.034  1.00  0.00    -0.260 C  
HETATM   12  C   UNL     1     -11.307  14.444  68.008  1.00  0.00    -0.316 C  
BRANCH  11  13
HETATM   13  C   UNL     1     -11.011  13.184  65.789  1.00  0.00    -0.295 A  
HETATM   14  C   UNL     1     -12.365  13.475  65.541  1.00  0.00    -0.524 A  
HETATM   15  C   UNL     1     -13.026  12.923  64.443  1.00  0.00    -0.107 A  
HETATM   16  C   UNL     1     -12.345  12.077  63.571  1.00  0.00    -0.661 A  
HETATM   17  C   UNL     1     -11.001  11.796  63.788  1.00  0.00    -0.500 A  
HETATM   18  C   UNL     1     -10.336  12.346  64.886  1.00  0.00    -0.319 A  
ENDBRANCH  11  13
ENDBRANCH  10  11
ENDBRANCH   4   6
ENDBRANCH   3   4
ENDBRANCH   2   3
TORSDOF 5
ENDMDL
MODEL       69
REMARK 921   NORMALIZED FREE ENERGY PREDICTED BY IDOCK:   -4.33 KCAL/MOL
REMARK 922        TOTAL FREE ENERGY PREDICTED BY IDOCK:   -6.15 KCAL/MOL
REMARK 923 INTER-LIGAND FREE ENERGY PREDICTED BY IDOCK:   -5.46 KCAL/MOL
REMARK 924 INTRA-LIGAND FREE ENERGY PREDICTED BY IDOCK:   -0.69 KCAL/MOL
REMARK 927      BINDING AFFINITY PREDICTED BY RF-SCORE:    0.00 PKD
ROOT
HETATM    1  C   UNL     1     -12.832  10.358  70.431  1.00  0.00    -0.249 C  
HETATM    2  C   UNL     1     -11.795  11.161  69.667  1.00  0.00    -0.348 C  
ENDROOT
BRANCH   2   3
HETATM    3  O   UNL     1     -12.273  11.329  68.326  1.00  0.00    -0.611 OA 
BRANCH   3   4
HETATM    4  C   UNL     1     -11.851  12.457  67.689  1.00  0.00    -0.295 C  
HETATM    5  O   UNL     1     -11.688  13.541  68.232  1.00  0.00    -0.318 OA 
BRANCH   4   6
HETATM    6  C   UNL     1     -11.530  12.141  66.322  1.00  0.00    -0.374 A  
HETATM    7  C   UNL     1     -12.176  12.541  65.167  1.00  0.00    -0.448 A  
HETATM    8  N   UNL     1     -11.610  11.991  64.053  1.00  0.00    -0.392 NA 
HETATM    9  C   UNL     1     -10.624  11.252  64.502  1.00  0.00    -0.336 A  
HETATM   10  N   UNL     1     -10.516  11.314  65.866  1.00  0.00    -0.255 NA 
BRANCH  10  11
HETATM   11  C   UNL     1      -9.473  10.663  66.677  1.00  0.00    -0.167 C  
HETATM   12  C   UNL     1      -8.114  11.323  66.433  1.00  0.00    -0.138 C  
BRANCH  11  13
HETATM   13  C   UNL     1      -9.472   9.145  66.517  1.00  0.00    -0.266 A  
HETATM   14  C   UNL     1     -10.535   8.398  67.057  1.00  0.00    -0.375 A  
HETATM   15  C   UNL     1     -10.543   7.005  66.978  1.00  0.00    -0.412 A  
HETATM   16  C   UNL     1      -9.495   6.336  66.353  1.00  0.00    -0.165 A  
HETATM   17  C   UNL     1      -8.446   7.059  65.793  1.00  0.00    -0.154 A  
HETATM   18  C   UNL     1      -8.435   8.452  65.870  1.00  0.00    -0.159 A  
ENDBRANCH  11  13
ENDBRANCH  10  11
ENDBRANCH   4   6
ENDBRANCH   3   4
ENDBRANCH   2   3
TORSDOF 5
ENDMDL
MODEL       70
REMARK 921   NORMALIZED FREE ENERGY PREDICTED BY IDOCK:   -4.33 KCAL/MOL
REMARK 922        TOTAL FREE ENERGY PREDICTED BY IDOCK:   -6.14 KCAL/MOL
REMARK 923 INTER-LIGAND FREE ENERGY PREDICTED BY IDOCK:   -5.42 KCAL/MOL
REMARK 924 INTRA-LIGAND FREE ENERGY PREDICTED BY IDOCK:   -0.72 KCAL/MOL
REMARK 927      BINDING AFFINITY PREDICTED BY RF-SCORE:    0.00 PKD
ROOT
HETATM    1  C   UNL     1     -14.273   7.439  71.455  1.00  0.00    -0.571 C  
HETATM    2  C   UNL     1     -13.930   8.725  72.187  1.00  0.00    -0.460 C  
ENDROOT
BRANCH   2   3
HETATM    3  O   UNL     1     -12.536   8.680  72.518  1.00  0.00    -0.391 OA 
BRANCH   3   4
HETATM    4  C   UNL     1     -11.715   9.394  71.698  1.00  0.00    -0.398 C  
HETATM    5  O   UNL     1     -11.960  10.515  71.275  1.00  0.00    -0.345 OA 
BRANCH   4   6
HETATM    6  C   UNL     1     -10.486   8.670  71.506  1.00  0.00    -0.274 A  
HETATM    7  C   UNL     1      -9.406   8.555  72.362  1.00  0.00    -0.278 A  
HETATM    8  N   UNL     1      -8.394   7.826  71.805  1.00  0.00    -0.107 NA 
HETATM    9  C   UNL     1      -8.830   7.492  70.615  1.00  0.00    -0.146 A  
HETATM   10  N   UNL     1     -10.095   7.959  70.381  1.00  0.00    -0.193 NA 
BRANCH  10  11
HETATM   11  C   UNL     1     -10.901   7.698  69.177  1.00  0.00    -0.068 C  
HETATM   12  C   UNL     1     -10.880   6.207  68.830  1.00  0.00    -0.402 C  
BRANCH  11  13
HETATM   13  C   UNL     1     -10.530   8.618  68.016  1.00  0.00    -0.254 A  
HETATM   14  C   UNL     1     -10.847   9.986  68.098  1.00  0.00    -0.303 A  
HETATM   15  C   UNL     1     -10.572  10.849  67.036  1.00  0.00    -0.307 A  
HETATM   16  C   UNL     1      -9.971  10.362  65.879  1.00  0.00    -0.317 A  
HETATM   17  C   UNL     1      -9.631   9.016  65.788  1.00  0.00    -0.287 A  
HETATM   18  C   UNL     1      -9.903   8.150  66.849  1.00  0.00    -0.316 A  
ENDBRANCH  11  13
ENDBRANCH  10  11
ENDBRANCH   4   6
ENDBRANCH   3   4
ENDBRANCH   2   3
TORSDOF 5
ENDMDL
MODEL       71
REMARK 921   NORMALIZED FREE ENERGY PREDICTED BY IDOCK:   -4.30 KCAL/MOL
REMARK 922        TOTAL FREE ENERGY PREDICTED BY IDOCK:   -6.11 KCAL/MOL
REMARK 923 INTER-LIGAND FREE ENERGY PREDICTED BY IDOCK:   -5.83 KCAL/MOL
REMARK 924 INTRA-LIGAND FREE ENERGY PREDICTED BY IDOCK:   -0.28 KCAL/MOL
REMARK 927      BINDING AFFINITY PREDICTED BY RF-SCORE:    0.00 PKD
ROOT
HETATM    1  C   UNL     1     -10.657  19.582  67.416  1.00  0.00    -0.607 C  
HETATM    2  C   UNL     1     -10.057  18.589  66.436  1.00  0.00    -0.405 C  
ENDROOT
BRANCH   2   3
HETATM    3  O   UNL     1     -10.611  17.299  66.727  1.00  0.00    -0.286 OA 
BRANCH   3   4
HETATM    4  C   UNL     1     -10.031  16.250  66.080  1.00  0.00    -0.345 C  
HETATM    5  O   UNL     1      -8.830  16.016  66.074  1.00  0.00    -0.333 OA 
BRANCH   4   6
HETATM    6  C   UNL     1     -11.055  15.418  65.505  1.00  0.00    -0.298 A  
HETATM    7  C   UNL     1     -11.668  15.528  64.271  1.00  0.00    -0.190 A  
HETATM    8  N   UNL     1     -12.638  14.582  64.101  1.00  0.00    -0.768 NA 
HETATM    9  C   UNL     1     -12.637  13.890  65.214  1.00  0.00    -0.478 A  
HETATM   10  N   UNL     1     -11.692  14.338  66.097  1.00  0.00    -0.378 NA 
BRANCH  10  11
HETATM   11  C   UNL     1     -11.381  13.737  67.405  1.00  0.00    -0.324 C  
HETATM   12  C   UNL     1     -11.611  14.749  68.530  1.00  0.00    -0.348 C  
BRANCH  11  13
HETATM   13  C   UNL     1     -10.007  13.072  67.430  1.00  0.00    -0.228 A  
HETATM   14  C   UNL     1      -9.750  11.998  66.559  1.00  0.00    -0.230 A  
HETATM   15  C   UNL     1      -8.524  11.330  66.589  1.00  0.00    -0.168 A  
HETATM   16  C   UNL     1      -7.534  11.728  67.483  1.00  0.00    -0.131 A  
HETATM   17  C   UNL     1      -7.763  12.803  68.337  1.00  0.00    -0.132 A  
HETATM   18  C   UNL     1      -8.987  13.473  68.309  1.00  0.00    -0.180 A  
ENDBRANCH  11  13
ENDBRANCH  10  11
ENDBRANCH   4   6
ENDBRANCH   3   4
ENDBRANCH   2   3
TORSDOF 5
ENDMDL
MODEL       72
REMARK 921   NORMALIZED FREE ENERGY PREDICTED BY IDOCK:   -4.30 KCAL/MOL
REMARK 922        TOTAL FREE ENERGY PREDICTED BY IDOCK:   -6.10 KCAL/MOL
REMARK 923 INTER-LIGAND FREE ENERGY PREDICTED BY IDOCK:   -5.78 KCAL/MOL
REMARK 924 INTRA-LIGAND FREE ENERGY PREDICTED BY IDOCK:   -0.32 KCAL/MOL
REMARK 927      BINDING AFFINITY PREDICTED BY RF-SCORE:    0.00 PKD
ROOT
HETATM    1  C   UNL     1     -10.389  10.810  65.535  1.00  0.00    -0.308 C  
HETATM    2  C   UNL     1      -9.556  11.420  66.649  1.00  0.00    -0.191 C  
ENDROOT
BRANCH   2   3
HETATM    3  O   UNL     1      -9.321  12.795  66.315  1.00  0.00    -0.228 OA 
BRANCH   3   4
HETATM    4  C   UNL     1     -10.437  13.551  66.119  1.00  0.00    -0.296 C  
HETATM    5  O   UNL     1     -10.975  13.728  65.035  1.00  0.00    -0.322 OA 
BRANCH   4   6
HETATM    6  C   UNL     1     -10.933  14.008  67.391  1.00  0.00    -0.293 A  
HETATM    7  C   UNL     1     -12.021  13.550  68.111  1.00  0.00    -0.341 A  
HETATM    8  N   UNL     1     -12.212  14.272  69.254  1.00  0.00    -0.296 NA 
HETATM    9  C   UNL     1     -11.261  15.174  69.250  1.00  0.00    -0.278 A  
HETATM   10  N   UNL     1     -10.445  15.055  68.157  1.00  0.00    -0.241 NA 
BRANCH  10  11
HETATM   11  C   UNL     1      -9.243  15.862  67.888  1.00  0.00    -0.198 C  
HETATM   12  C   UNL     1      -8.233  15.717  69.030  1.00  0.00    -0.234 C  
BRANCH  11  13
HETATM   13  C   UNL     1      -9.577  17.306  67.526  1.00  0.00    -0.259 A  
HETATM   14  C   UNL     1      -9.410  18.313  68.495  1.00  0.00    -0.334 A  
HETATM   15  C   UNL     1      -9.756  19.636  68.218  1.00  0.00    -0.500 A  
HETATM   16  C   UNL     1     -10.266  19.978  66.969  1.00  0.00    -0.587 A  
HETATM   17  C   UNL     1     -10.417  19.001  65.991  1.00  0.00    -0.530 A  
HETATM   18  C   UNL     1     -10.073  17.675  66.264  1.00  0.00    -0.344 A  
ENDBRANCH  11  13
ENDBRANCH  10  11
ENDBRANCH   4   6
ENDBRANCH   3   4
ENDBRANCH   2   3
TORSDOF 5
ENDMDL
MODEL       73
REMARK 921   NORMALIZED FREE ENERGY PREDICTED BY IDOCK:   -4.29 KCAL/MOL
REMARK 922        TOTAL FREE ENERGY PREDICTED BY IDOCK:   -6.09 KCAL/MOL
REMARK 923 INTER-LIGAND FREE ENERGY PREDICTED BY IDOCK:   -5.47 KCAL/MOL
REMARK 924 INTRA-LIGAND FREE ENERGY PREDICTED BY IDOCK:   -0.61 KCAL/MOL
REMARK 927      BINDING AFFINITY PREDICTED BY RF-SCORE:    0.00 PKD
ROOT
HETATM    1  C   UNL     1     -10.781  19.652  67.394  1.00  0.00    -0.563 C  
HETATM    2  C   UNL     1      -9.737  18.991  68.276  1.00  0.00    -0.361 C  
ENDROOT
BRANCH   2   3
HETATM    3  O   UNL     1      -9.419  17.718  67.697  1.00  0.00    -0.251 OA 
BRANCH   3   4
HETATM    4  C   UNL     1     -10.313  16.721  67.943  1.00  0.00    -0.319 C  
HETATM    5  O   UNL     1     -11.029  16.659  68.933  1.00  0.00    -0.320 OA 
BRANCH   4   6
HETATM    6  C   UNL     1     -10.353  15.827  66.816  1.00  0.00    -0.293 A  
HETATM    7  C   UNL     1     -10.784  16.080  65.526  1.00  0.00    -0.361 A  
HETATM    8  N   UNL     1     -10.723  14.962  64.744  1.00  0.00    -0.390 NA 
HETATM    9  C   UNL     1     -10.265  14.020  65.532  1.00  0.00    -0.343 A  
HETATM   10  N   UNL     1     -10.007  14.485  66.793  1.00  0.00    -0.257 NA 
BRANCH  10  11
HETATM   11  C   UNL     1      -9.418  13.705  67.895  1.00  0.00    -0.213 C  
HETATM   12  C   UNL     1      -8.178  12.948  67.412  1.00  0.00    -0.187 C  
BRANCH  11  13
HETATM   13  C   UNL     1     -10.447  12.834  68.610  1.00  0.00    -0.230 A  
HETATM   14  C   UNL     1     -11.208  13.390  69.654  1.00  0.00    -0.115 A  
HETATM   15  C   UNL     1     -12.121  12.611  70.367  1.00  0.00    -0.381 A  
HETATM   16  C   UNL     1     -12.295  11.268  70.044  1.00  0.00    -0.330 A  
HETATM   17  C   UNL     1     -11.567  10.707  69.000  1.00  0.00    -0.332 A  
HETATM   18  C   UNL     1     -10.653  11.483  68.284  1.00  0.00    -0.228 A  
ENDBRANCH  11  13
ENDBRANCH  10  11
ENDBRANCH   4   6
ENDBRANCH   3   4
ENDBRANCH   2   3
TORSDOF 5
ENDMDL
MODEL       74
REMARK 921   NORMALIZED FREE ENERGY PREDICTED BY IDOCK:   -4.29 KCAL/MOL
REMARK 922        TOTAL FREE ENERGY PREDICTED BY IDOCK:   -6.09 KCAL/MOL
REMARK 923 INTER-LIGAND FREE ENERGY PREDICTED BY IDOCK:   -5.67 KCAL/MOL
REMARK 924 INTRA-LIGAND FREE ENERGY PREDICTED BY IDOCK:   -0.41 KCAL/MOL
REMARK 927      BINDING AFFINITY PREDICTED BY RF-SCORE:    0.00 PKD
ROOT
HETATM    1  C   UNL     1     -10.958   6.472  67.207  1.00  0.00    -0.475 C  
HETATM    2  C   UNL     1      -9.972   7.350  67.958  1.00  0.00    -0.164 C  
ENDROOT
BRANCH   2   3
HETATM    3  O   UNL     1     -10.697   8.473  68.479  1.00  0.00    -0.151 OA 
BRANCH   3   4
HETATM    4  C   UNL     1     -10.280   8.928  69.693  1.00  0.00    -0.206 C  
HETATM    5  O   UNL     1      -9.123   8.895  70.088  1.00  0.00    -0.155 OA 
BRANCH   4   6
HETATM    6  C   UNL     1     -11.387   9.543  70.377  1.00  0.00    -0.264 A  
HETATM    7  C   UNL     1     -11.696  10.886  70.491  1.00  0.00    -0.342 A  
HETATM    8  N   UNL     1     -12.800  11.088  71.269  1.00  0.00    -0.414 NA 
HETATM    9  C   UNL     1     -13.177   9.889  71.642  1.00  0.00    -0.421 A  
HETATM   10  N   UNL     1     -12.371   8.912  71.122  1.00  0.00    -0.273 NA 
BRANCH  10  11
HETATM   11  C   UNL     1     -12.562   7.461  71.286  1.00  0.00    -0.340 C  
HETATM   12  C   UNL     1     -14.045   7.134  71.483  1.00  0.00    -0.467 C  
BRANCH  11  13
HETATM   13  C   UNL     1     -11.642   6.868  72.349  1.00  0.00    -0.278 A  
HETATM   14  C   UNL     1     -11.752   5.501  72.666  1.00  0.00    -0.240 A  
HETATM   15  C   UNL     1     -10.966   4.933  73.669  1.00  0.00    -0.387 A  
HETATM   16  C   UNL     1     -10.051   5.718  74.367  1.00  0.00    -0.293 A  
HETATM   17  C   UNL     1      -9.913   7.066  74.053  1.00  0.00    -0.353 A  
HETATM   18  C   UNL     1     -10.698   7.637  73.050  1.00  0.00    -0.449 A  
ENDBRANCH  11  13
ENDBRANCH  10  11
ENDBRANCH   4   6
ENDBRANCH   3   4
ENDBRANCH   2   3
TORSDOF 5
ENDMDL
MODEL       75
REMARK 921   NORMALIZED FREE ENERGY PREDICTED BY IDOCK:   -4.28 KCAL/MOL
REMARK 922        TOTAL FREE ENERGY PREDICTED BY IDOCK:   -6.08 KCAL/MOL
REMARK 923 INTER-LIGAND FREE ENERGY PREDICTED BY IDOCK:   -6.71 KCAL/MOL
REMARK 924 INTRA-LIGAND FREE ENERGY PREDICTED BY IDOCK:    0.62 KCAL/MOL
REMARK 927      BINDING AFFINITY PREDICTED BY RF-SCORE:    0.00 PKD
ROOT
HETATM    1  C   UNL     1     -10.698  17.258  67.641  1.00  0.00    -0.307 C  
HETATM    2  C   UNL     1     -11.108  15.807  67.824  1.00  0.00    -0.313 C  
ENDROOT
BRANCH   2   3
HETATM    3  O   UNL     1     -11.945  15.733  68.985  1.00  0.00    -0.385 OA 
BRANCH   3   4
HETATM    4  C   UNL     1     -11.355  15.224  70.103  1.00  0.00    -0.289 C  
HETATM    5  O   UNL     1     -10.181  15.388  70.404  1.00  0.00    -0.244 OA 
BRANCH   4   6
HETATM    6  C   UNL     1     -12.349  14.566  70.910  1.00  0.00    -0.345 A  
HETATM    7  C   UNL     1     -13.311  15.130  71.728  1.00  0.00    -0.413 A  
HETATM    8  N   UNL     1     -14.041  14.179  72.380  1.00  0.00    -0.611 NA 
HETATM    9  C   UNL     1     -13.542  13.034  71.982  1.00  0.00    -0.441 A  
HETATM   10  N   UNL     1     -12.526  13.202  71.080  1.00  0.00    -0.364 NA 
BRANCH  10  11
HETATM   11  C   UNL     1     -11.805  12.123  70.384  1.00  0.00    -0.187 C  
HETATM   12  C   UNL     1     -12.141  12.128  68.891  1.00  0.00    -0.187 C  
BRANCH  11  13
HETATM   13  C   UNL     1     -11.985  10.768  71.064  1.00  0.00    -0.409 A  
HETATM   14  C   UNL     1     -10.942   9.825  70.999  1.00  0.00    -0.402 A  
HETATM   15  C   UNL     1     -11.089   8.557  71.562  1.00  0.00    -0.343 A  
HETATM   16  C   UNL     1     -12.275   8.212  72.205  1.00  0.00    -0.398 A  
HETATM   17  C   UNL     1     -13.308   9.138  72.298  1.00  0.00    -0.540 A  
HETATM   18  C   UNL     1     -13.165  10.408  71.736  1.00  0.00    -0.529 A  
ENDBRANCH  11  13
ENDBRANCH  10  11
ENDBRANCH   4   6
ENDBRANCH   3   4
ENDBRANCH   2   3
TORSDOF 5
ENDMDL
MODEL       76
REMARK 921   NORMALIZED FREE ENERGY PREDICTED BY IDOCK:   -4.27 KCAL/MOL
REMARK 922        TOTAL FREE ENERGY PREDICTED BY IDOCK:   -6.07 KCAL/MOL
REMARK 923 INTER-LIGAND FREE ENERGY PREDICTED BY IDOCK:   -6.25 KCAL/MOL
REMARK 924 INTRA-LIGAND FREE ENERGY PREDICTED BY IDOCK:    0.18 KCAL/MOL
REMARK 927      BINDING AFFINITY PREDICTED BY RF-SCORE:    0.00 PKD
ROOT
HETATM    1  C   UNL     1     -10.796  10.601  67.718  1.00  0.00    -0.338 C  
HETATM    2  C   UNL     1     -10.250  11.629  68.693  1.00  0.00    -0.206 C  
ENDROOT
BRANCH   2   3
HETATM    3  O   UNL     1      -9.837  12.774  67.934  1.00  0.00    -0.209 OA 
BRANCH   3   4
HETATM    4  C   UNL     1     -10.581  13.900  68.119  1.00  0.00    -0.252 C  
HETATM    5  O   UNL     1     -10.592  14.564  69.146  1.00  0.00    -0.244 OA 
BRANCH   4   6
HETATM    6  C   UNL     1     -11.253  14.235  66.891  1.00  0.00    -0.326 A  
HETATM    7  C   UNL     1     -12.435  13.725  66.385  1.00  0.00    -0.355 A  
HETATM    8  N   UNL     1     -12.728  14.249  65.159  1.00  0.00    -0.632 NA 
HETATM    9  C   UNL     1     -11.743  15.073  64.896  1.00  0.00    -0.336 A  
HETATM   10  N   UNL     1     -10.828  15.119  65.913  1.00  0.00    -0.330 NA 
BRANCH  10  11
HETATM   11  C   UNL     1      -9.645  15.996  65.967  1.00  0.00    -0.350 C  
HETATM   12  C   UNL     1      -8.431  15.227  66.495  1.00  0.00    -0.202 C  
BRANCH  11  13
HETATM   13  C   UNL     1      -9.924  17.307  66.697  1.00  0.00    -0.296 A  
HETATM   14  C   UNL     1      -9.717  17.376  68.087  1.00  0.00    -0.291 A  
HETATM   15  C   UNL     1     -10.011  18.540  68.798  1.00  0.00    -0.417 A  
HETATM   16  C   UNL     1     -10.508  19.657  68.132  1.00  0.00    -0.503 A  
HETATM   17  C   UNL     1     -10.698  19.615  66.755  1.00  0.00    -0.562 A  
HETATM   18  C   UNL     1     -10.406  18.452  66.040  1.00  0.00    -0.397 A  
ENDBRANCH  11  13
ENDBRANCH  10  11
ENDBRANCH   4   6
ENDBRANCH   3   4
ENDBRANCH   2   3
TORSDOF 5
ENDMDL
MODEL       77
REMARK 921   NORMALIZED FREE ENERGY PREDICTED BY IDOCK:   -4.27 KCAL/MOL
REMARK 922        TOTAL FREE ENERGY PREDICTED BY IDOCK:   -6.06 KCAL/MOL
REMARK 923 INTER-LIGAND FREE ENERGY PREDICTED BY IDOCK:   -5.56 KCAL/MOL
REMARK 924 INTRA-LIGAND FREE ENERGY PREDICTED BY IDOCK:   -0.51 KCAL/MOL
REMARK 927      BINDING AFFINITY PREDICTED BY RF-SCORE:    0.00 PKD
ROOT
HETATM    1  C   UNL     1      -6.096  14.288  70.170  1.00  0.00    -0.160 C  
HETATM    2  C   UNL     1      -6.875  13.342  69.273  1.00  0.00    -0.031 C  
ENDROOT
BRANCH   2   3
HETATM    3  O   UNL     1      -7.932  14.093  68.659  1.00  0.00    -0.138 OA 
BRANCH   3   4
HETATM    4  C   UNL     1      -8.299  13.679  67.415  1.00  0.00    -0.192 C  
HETATM    5  O   UNL     1      -8.134  12.547  66.982  1.00  0.00    -0.169 OA 
BRANCH   4   6
HETATM    6  C   UNL     1      -9.000  14.744  66.746  1.00  0.00    -0.266 A  
HETATM    7  C   UNL     1      -8.531  15.991  66.377  1.00  0.00    -0.327 A  
HETATM    8  N   UNL     1      -9.511  16.753  65.810  1.00  0.00    -0.527 NA 
HETATM    9  C   UNL     1     -10.582  15.998  65.826  1.00  0.00    -0.353 A  
HETATM   10  N   UNL     1     -10.333  14.766  66.367  1.00  0.00    -0.284 NA 
BRANCH  10  11
HETATM   11  C   UNL     1     -11.299  13.658  66.466  1.00  0.00    -0.319 C  
HETATM   12  C   UNL     1     -12.488  13.897  65.532  1.00  0.00    -0.541 C  
BRANCH  11  13
HETATM   13  C   UNL     1     -11.687  13.350  67.910  1.00  0.00    -0.396 A  
HETATM   14  C   UNL     1     -12.049  14.409  68.763  1.00  0.00    -0.276 A  
HETATM   15  C   UNL     1     -12.359  14.173  70.104  1.00  0.00    -0.413 A  
HETATM   16  C   UNL     1     -12.321  12.878  70.611  1.00  0.00    -0.385 A  
HETATM   17  C   UNL     1     -11.987  11.816  69.777  1.00  0.00    -0.392 A  
HETATM   18  C   UNL     1     -11.676  12.047  68.436  1.00  0.00    -0.390 A  
ENDBRANCH  11  13
ENDBRANCH  10  11
ENDBRANCH   4   6
ENDBRANCH   3   4
ENDBRANCH   2   3
TORSDOF 5
ENDMDL
MODEL       78
REMARK 921   NORMALIZED FREE ENERGY PREDICTED BY IDOCK:   -4.26 KCAL/MOL
REMARK 922        TOTAL FREE ENERGY PREDICTED BY IDOCK:   -6.05 KCAL/MOL
REMARK 923 INTER-LIGAND FREE ENERGY PREDICTED BY IDOCK:   -5.55 KCAL/MOL
REMARK 924 INTRA-LIGAND FREE ENERGY PREDICTED BY IDOCK:   -0.50 KCAL/MOL
REMARK 927      BINDING AFFINITY PREDICTED BY RF-SCORE:    0.00 PKD
ROOT
HETATM    1  C   UNL     1      -8.216  10.214  67.189  1.00  0.00    -0.121 C  
HETATM    2  C   UNL     1      -8.222  11.716  66.966  1.00  0.00    -0.170 C  
ENDROOT
BRANCH   2   3
HETATM    3  O   UNL     1      -8.337  12.347  68.249  1.00  0.00    -0.165 OA 
BRANCH   3   4
HETATM    4  C   UNL     1      -8.699  13.660  68.226  1.00  0.00    -0.171 C  
HETATM    5  O   UNL     1      -7.956  14.591  68.505  1.00  0.00    -0.129 OA 
BRANCH   4   6
HETATM    6  C   UNL     1     -10.043  13.776  67.724  1.00  0.00    -0.245 A  
HETATM    7  C   UNL     1     -10.471  14.244  66.495  1.00  0.00    -0.287 A  
HETATM    8  N   UNL     1     -11.833  14.255  66.403  1.00  0.00    -0.399 NA 
HETATM    9  C   UNL     1     -12.256  13.804  67.559  1.00  0.00    -0.227 A  
HETATM   10  N   UNL     1     -11.220  13.483  68.395  1.00  0.00    -0.261 NA 
BRANCH  10  11
HETATM   11  C   UNL     1     -11.349  12.884  69.734  1.00  0.00    -0.037 C  
HETATM   12  C   UNL     1     -11.834  11.436  69.630  1.00  0.00    -0.431 C  
BRANCH  11  13
HETATM   13  C   UNL     1     -12.167  13.752  70.686  1.00  0.00    -0.434 A  
HETATM   14  C   UNL     1     -11.797  15.096  70.877  1.00  0.00    -0.373 A  
HETATM   15  C   UNL     1     -12.487  15.907  71.779  1.00  0.00    -0.512 A  
HETATM   16  C   UNL     1     -13.562  15.393  72.499  1.00  0.00    -0.634 A  
HETATM   17  C   UNL     1     -13.957  14.073  72.307  1.00  0.00    -0.651 A  
HETATM   18  C   UNL     1     -13.269  13.258  71.405  1.00  0.00    -0.304 A  
ENDBRANCH  11  13
ENDBRANCH  10  11
ENDBRANCH   4   6
ENDBRANCH   3   4
ENDBRANCH   2   3
TORSDOF 5
ENDMDL
MODEL       79
REMARK 921   NORMALIZED FREE ENERGY PREDICTED BY IDOCK:   -4.25 KCAL/MOL
REMARK 922        TOTAL FREE ENERGY PREDICTED BY IDOCK:   -6.05 KCAL/MOL
REMARK 923 INTER-LIGAND FREE ENERGY PREDICTED BY IDOCK:   -5.41 KCAL/MOL
REMARK 924 INTRA-LIGAND FREE ENERGY PREDICTED BY IDOCK:   -0.64 KCAL/MOL
REMARK 927      BINDING AFFINITY PREDICTED BY RF-SCORE:    0.00 PKD
ROOT
HETATM    1  C   UNL     1     -10.992   6.320  67.588  1.00  0.00    -0.438 C  
HETATM    2  C   UNL     1     -11.183   6.254  69.093  1.00  0.00    -0.371 C  
ENDROOT
BRANCH   2   3
HETATM    3  O   UNL     1     -10.484   5.097  69.572  1.00  0.00    -0.257 OA 
BRANCH   3   4
HETATM    4  C   UNL     1      -9.414   5.348  70.377  1.00  0.00    -0.164 C  
HETATM    5  O   UNL     1      -8.307   5.680  69.977  1.00  0.00    -0.116 OA 
BRANCH   4   6
HETATM    6  C   UNL     1      -9.824   5.267  71.754  1.00  0.00    -0.170 A  
HETATM    7  C   UNL     1     -10.239   4.158  72.469  1.00  0.00    -0.174 A  
HETATM    8  N   UNL     1     -10.603   4.485  73.744  1.00  0.00    -0.225 NA 
HETATM    9  C   UNL     1     -10.424   5.781  73.827  1.00  0.00    -0.271 A  
HETATM   10  N   UNL     1      -9.940   6.309  72.660  1.00  0.00    -0.171 NA 
BRANCH  10  11
HETATM   11  C   UNL     1      -9.561   7.715  72.443  1.00  0.00    -0.168 C  
HETATM   12  C   UNL     1      -8.870   8.283  73.685  1.00  0.00    -0.228 C  
BRANCH  11  13
HETATM   13  C   UNL     1     -10.725   8.560  71.931  1.00  0.00    -0.394 A  
HETATM   14  C   UNL     1     -10.488   9.513  70.923  1.00  0.00    -0.382 A  
HETATM   15  C   UNL     1     -11.514  10.341  70.466  1.00  0.00    -0.427 A  
HETATM   16  C   UNL     1     -12.794  10.227  71.002  1.00  0.00    -0.490 A  
HETATM   17  C   UNL     1     -13.052   9.276  71.984  1.00  0.00    -0.512 A  
HETATM   18  C   UNL     1     -12.028   8.445  72.444  1.00  0.00    -0.451 A  
ENDBRANCH  11  13
ENDBRANCH  10  11
ENDBRANCH   4   6
ENDBRANCH   3   4
ENDBRANCH   2   3
TORSDOF 5
ENDMDL
MODEL       80
REMARK 921   NORMALIZED FREE ENERGY PREDICTED BY IDOCK:   -4.24 KCAL/MOL
REMARK 922        TOTAL FREE ENERGY PREDICTED BY IDOCK:   -6.03 KCAL/MOL
REMARK 923 INTER-LIGAND FREE ENERGY PREDICTED BY IDOCK:   -6.13 KCAL/MOL
REMARK 924 INTRA-LIGAND FREE ENERGY PREDICTED BY IDOCK:    0.10 KCAL/MOL
REMARK 927      BINDING AFFINITY PREDICTED BY RF-SCORE:    0.00 PKD
ROOT
HETATM    1  C   UNL     1     -11.986  14.701  64.573  1.00  0.00    -0.473 C  
HETATM    2  C   UNL     1     -11.067  15.872  64.869  1.00  0.00    -0.389 C  
ENDROOT
BRANCH   2   3
HETATM    3  O   UNL     1      -9.902  15.357  65.528  1.00  0.00    -0.342 OA 
BRANCH   3   4
HETATM    4  C   UNL     1      -9.194  16.261  66.260  1.00  0.00    -0.328 C  
HETATM    5  O   UNL     1      -8.288  16.955  65.820  1.00  0.00    -0.472 OA 
BRANCH   4   6
HETATM    6  C   UNL     1      -9.750  16.342  67.585  1.00  0.00    -0.238 A  
HETATM    7  C   UNL     1      -9.985  15.322  68.489  1.00  0.00    -0.222 A  
HETATM    8  N   UNL     1     -10.579  15.782  69.629  1.00  0.00    -0.270 NA 
HETATM    9  C   UNL     1     -10.719  17.072  69.443  1.00  0.00    -0.184 A  
HETATM   10  N   UNL     1     -10.223  17.473  68.231  1.00  0.00    -0.343 NA 
BRANCH  10  11
HETATM   11  C   UNL     1     -10.159  18.862  67.745  1.00  0.00    -0.369 C  
HETATM   12  C   UNL     1     -10.781  18.972  66.351  1.00  0.00    -0.410 C  
BRANCH  11  13
HETATM   13  C   UNL     1      -8.756  19.454  67.854  1.00  0.00    -0.359 A  
HETATM   14  C   UNL     1      -7.991  19.196  69.007  1.00  0.00    -0.280 A  
HETATM   15  C   UNL     1      -6.726  19.763  69.167  1.00  0.00    -0.381 A  
HETATM   16  C   UNL     1      -6.201  20.589  68.177  1.00  0.00    -0.336 A  
HETATM   17  C   UNL     1      -6.933  20.837  67.021  1.00  0.00    -0.386 A  
HETATM   18  C   UNL     1      -8.199  20.272  66.856  1.00  0.00    -0.345 A  
ENDBRANCH  11  13
ENDBRANCH  10  11
ENDBRANCH   4   6
ENDBRANCH   3   4
ENDBRANCH   2   3
TORSDOF 5
ENDMDL
MODEL       81
REMARK 921   NORMALIZED FREE ENERGY PREDICTED BY IDOCK:   -4.24 KCAL/MOL
REMARK 922        TOTAL FREE ENERGY PREDICTED BY IDOCK:   -6.02 KCAL/MOL
REMARK 923 INTER-LIGAND FREE ENERGY PREDICTED BY IDOCK:   -5.70 KCAL/MOL
REMARK 924 INTRA-LIGAND FREE ENERGY PREDICTED BY IDOCK:   -0.32 KCAL/MOL
REMARK 927      BINDING AFFINITY PREDICTED BY RF-SCORE:    0.00 PKD
ROOT
HETATM    1  C   UNL     1      -7.814  12.435  68.164  1.00  0.00    -0.146 C  
HETATM    2  C   UNL     1      -7.709  13.797  67.502  1.00  0.00    -0.176 C  
ENDROOT
BRANCH   2   3
HETATM    3  O   UNL     1      -8.795  13.917  66.574  1.00  0.00    -0.141 OA 
BRANCH   3   4
HETATM    4  C   UNL     1      -9.737  14.848  66.891  1.00  0.00    -0.240 C  
HETATM    5  O   UNL     1      -9.578  15.749  67.702  1.00  0.00    -0.218 OA 
BRANCH   4   6
HETATM    6  C   UNL     1     -10.890  14.666  66.048  1.00  0.00    -0.318 A  
HETATM    7  C   UNL     1     -11.257  15.374  64.919  1.00  0.00    -0.403 A  
HETATM    8  N   UNL     1     -12.452  14.943  64.417  1.00  0.00    -0.616 NA 
HETATM    9  C   UNL     1     -12.832  13.981  65.222  1.00  0.00    -0.384 A  
HETATM   10  N   UNL     1     -11.922  13.756  66.220  1.00  0.00    -0.403 NA 
BRANCH  10  11
HETATM   11  C   UNL     1     -12.009  12.701  67.243  1.00  0.00    -0.253 C  
HETATM   12  C   UNL     1     -11.697  13.270  68.629  1.00  0.00    -0.376 C  
BRANCH  11  13
HETATM   13  C   UNL     1     -11.196  11.462  66.875  1.00  0.00    -0.331 A  
HETATM   14  C   UNL     1     -10.716  11.324  65.560  1.00  0.00    -0.283 A  
HETATM   15  C   UNL     1     -10.014  10.181  65.171  1.00  0.00    -0.379 A  
HETATM   16  C   UNL     1      -9.775   9.163  66.089  1.00  0.00    -0.357 A  
HETATM   17  C   UNL     1     -10.223   9.293  67.400  1.00  0.00    -0.304 A  
HETATM   18  C   UNL     1     -10.925  10.434  67.793  1.00  0.00    -0.369 A  
ENDBRANCH  11  13
ENDBRANCH  10  11
ENDBRANCH   4   6
ENDBRANCH   3   4
ENDBRANCH   2   3
TORSDOF 5
ENDMDL
MODEL       82
REMARK 921   NORMALIZED FREE ENERGY PREDICTED BY IDOCK:   -4.23 KCAL/MOL
REMARK 922        TOTAL FREE ENERGY PREDICTED BY IDOCK:   -6.01 KCAL/MOL
REMARK 923 INTER-LIGAND FREE ENERGY PREDICTED BY IDOCK:   -5.53 KCAL/MOL
REMARK 924 INTRA-LIGAND FREE ENERGY PREDICTED BY IDOCK:   -0.48 KCAL/MOL
REMARK 927      BINDING AFFINITY PREDICTED BY RF-SCORE:    0.00 PKD
ROOT
HETATM    1  C   UNL     1     -10.553  18.383  65.931  1.00  0.00    -0.313 C  
HETATM    2  C   UNL     1      -9.554  17.240  65.909  1.00  0.00    -0.046 C  
ENDROOT
BRANCH   2   3
HETATM    3  O   UNL     1     -10.197  16.109  65.305  1.00  0.00    -0.520 OA 
BRANCH   3   4
HETATM    4  C   UNL     1     -10.787  15.238  66.171  1.00  0.00    -0.320 C  
HETATM    5  O   UNL     1     -11.892  14.739  66.008  1.00  0.00    -0.311 OA 
BRANCH   4   6
HETATM    6  C   UNL     1      -9.868  14.925  67.233  1.00  0.00    -0.229 A  
HETATM    7  C   UNL     1      -8.722  14.151  67.186  1.00  0.00    -0.224 A  
HETATM    8  N   UNL     1      -8.138  14.036  68.415  1.00  0.00    -0.144 NA 
HETATM    9  C   UNL     1      -8.907  14.724  69.223  1.00  0.00    -0.029 A  
HETATM   10  N   UNL     1      -9.961  15.298  68.565  1.00  0.00    -0.217 NA 
BRANCH  10  11
HETATM   11  C   UNL     1     -10.967  16.192  69.163  1.00  0.00    -0.309 C  
HETATM   12  C   UNL     1     -10.380  17.589  69.384  1.00  0.00    -0.067 C  
BRANCH  11  13
HETATM   13  C   UNL     1     -11.625  15.585  70.400  1.00  0.00    -0.359 A  
HETATM   14  C   UNL     1     -12.343  14.382  70.273  1.00  0.00    -0.410 A  
HETATM   15  C   UNL     1     -13.003  13.824  71.369  1.00  0.00    -0.433 A  
HETATM   16  C   UNL     1     -12.951  14.453  72.609  1.00  0.00    -0.533 A  
HETATM   17  C   UNL     1     -12.227  15.632  72.759  1.00  0.00    -0.557 A  
HETATM   18  C   UNL     1     -11.566  16.193  71.665  1.00  0.00    -0.503 A  
ENDBRANCH  11  13
ENDBRANCH  10  11
ENDBRANCH   4   6
ENDBRANCH   3   4
ENDBRANCH   2   3
TORSDOF 5
ENDMDL
MODEL       83
REMARK 921   NORMALIZED FREE ENERGY PREDICTED BY IDOCK:   -4.22 KCAL/MOL
REMARK 922        TOTAL FREE ENERGY PREDICTED BY IDOCK:   -6.01 KCAL/MOL
REMARK 923 INTER-LIGAND FREE ENERGY PREDICTED BY IDOCK:   -5.40 KCAL/MOL
REMARK 924 INTRA-LIGAND FREE ENERGY PREDICTED BY IDOCK:   -0.61 KCAL/MOL
REMARK 927      BINDING AFFINITY PREDICTED BY RF-SCORE:    0.00 PKD
ROOT
HETATM    1  C   UNL     1     -10.112   5.182  70.044  1.00  0.00    -0.345 C  
HETATM    2  C   UNL     1      -9.290   6.455  70.142  1.00  0.00    -0.157 C  
ENDROOT
BRANCH   2   3
HETATM    3  O   UNL     1     -10.171   7.562  69.914  1.00  0.00    -0.201 OA 
BRANCH   3   4
HETATM    4  C   UNL     1      -9.938   8.665  70.678  1.00  0.00    -0.192 C  
HETATM    5  O   UNL     1     -10.177   8.744  71.875  1.00  0.00    -0.301 OA 
BRANCH   4   6
HETATM    6  C   UNL     1      -9.276   9.666  69.883  1.00  0.00    -0.229 A  
HETATM    7  C   UNL     1      -7.921   9.910  69.752  1.00  0.00    -0.174 A  
HETATM    8  N   UNL     1      -7.676  10.985  68.946  1.00  0.00    -0.133 NA 
HETATM    9  C   UNL     1      -8.859  11.412  68.579  1.00  0.00    -0.151 A  
HETATM   10  N   UNL     1      -9.867  10.646  69.101  1.00  0.00    -0.212 NA 
BRANCH  10  11
HETATM   11  C   UNL     1     -11.304  10.810  68.826  1.00  0.00    -0.288 C  
HETATM   12  C   UNL     1     -11.521  11.372  67.418  1.00  0.00    -0.328 C  
BRANCH  11  13
HETATM   13  C   UNL     1     -12.025  11.583  69.928  1.00  0.00    -0.426 A  
HETATM   14  C   UNL     1     -11.990  12.989  69.914  1.00  0.00    -0.381 A  
HETATM   15  C   UNL     1     -12.591  13.730  70.933  1.00  0.00    -0.428 A  
HETATM   16  C   UNL     1     -13.243  13.079  71.977  1.00  0.00    -0.543 A  
HETATM   17  C   UNL     1     -13.307  11.689  71.995  1.00  0.00    -0.405 A  
HETATM   18  C   UNL     1     -12.707  10.945  70.978  1.00  0.00    -0.505 A  
ENDBRANCH  11  13
ENDBRANCH  10  11
ENDBRANCH   4   6
ENDBRANCH   3   4
ENDBRANCH   2   3
TORSDOF 5
ENDMDL
MODEL       84
REMARK 921   NORMALIZED FREE ENERGY PREDICTED BY IDOCK:   -4.20 KCAL/MOL
REMARK 922        TOTAL FREE ENERGY PREDICTED BY IDOCK:   -5.98 KCAL/MOL
REMARK 923 INTER-LIGAND FREE ENERGY PREDICTED BY IDOCK:   -5.23 KCAL/MOL
REMARK 924 INTRA-LIGAND FREE ENERGY PREDICTED BY IDOCK:   -0.75 KCAL/MOL
REMARK 927      BINDING AFFINITY PREDICTED BY RF-SCORE:    0.00 PKD
ROOT
HETATM    1  C   UNL     1     -13.917   7.395  71.586  1.00  0.00    -0.523 C  
HETATM    2  C   UNL     1     -12.417   7.335  71.811  1.00  0.00    -0.343 C  
ENDROOT
BRANCH   2   3
HETATM    3  O   UNL     1     -11.993   8.623  72.277  1.00  0.00    -0.364 OA 
BRANCH   3   4
HETATM    4  C   UNL     1     -11.418   9.426  71.339  1.00  0.00    -0.379 C  
HETATM    5  O   UNL     1     -11.861  10.511  70.987  1.00  0.00    -0.350 OA 
BRANCH   4   6
HETATM    6  C   UNL     1     -10.168   8.849  70.919  1.00  0.00    -0.240 A  
HETATM    7  C   UNL     1      -8.988   8.730  71.629  1.00  0.00    -0.231 A  
HETATM    8  N   UNL     1      -7.996   8.173  70.873  1.00  0.00    -0.091 NA 
HETATM    9  C   UNL     1      -8.544   7.950  69.703  1.00  0.00    -0.133 A  
HETATM   10  N   UNL     1      -9.861   8.323  69.674  1.00  0.00    -0.181 NA 
BRANCH  10  11
HETATM   11  C   UNL     1     -10.782   8.140  68.539  1.00  0.00    -0.014 C  
HETATM   12  C   UNL     1     -10.712   6.702  68.018  1.00  0.00    -0.330 C  
BRANCH  11  13
HETATM   13  C   UNL     1     -10.603   9.207  67.463  1.00  0.00    -0.317 A  
HETATM   14  C   UNL     1      -9.863   8.898  66.307  1.00  0.00    -0.355 A  
HETATM   15  C   UNL     1      -9.632   9.863  65.326  1.00  0.00    -0.361 A  
HETATM   16  C   UNL     1     -10.142  11.149  65.478  1.00  0.00    -0.309 A  
HETATM   17  C   UNL     1     -10.894  11.467  66.604  1.00  0.00    -0.335 A  
HETATM   18  C   UNL     1     -11.128  10.505  67.588  1.00  0.00    -0.375 A  
ENDBRANCH  11  13
ENDBRANCH  10  11
ENDBRANCH   4   6
ENDBRANCH   3   4
ENDBRANCH   2   3
TORSDOF 5
ENDMDL
MODEL       85
REMARK 921   NORMALIZED FREE ENERGY PREDICTED BY IDOCK:   -4.20 KCAL/MOL
REMARK 922        TOTAL FREE ENERGY PREDICTED BY IDOCK:   -5.97 KCAL/MOL
REMARK 923 INTER-LIGAND FREE ENERGY PREDICTED BY IDOCK:   -5.80 KCAL/MOL
REMARK 924 INTRA-LIGAND FREE ENERGY PREDICTED BY IDOCK:   -0.17 KCAL/MOL
REMARK 927      BINDING AFFINITY PREDICTED BY RF-SCORE:    0.00 PKD
ROOT
HETATM    1  C   UNL     1     -12.243  12.048  63.455  1.00  0.00    -0.653 C  
HETATM    2  C   UNL     1     -10.917  12.714  63.780  1.00  0.00    -0.435 C  
ENDROOT
BRANCH   2   3
HETATM    3  O   UNL     1     -10.780  12.741  65.207  1.00  0.00    -0.282 OA 
BRANCH   3   4
HETATM    4  C   UNL     1     -11.663  13.541  65.867  1.00  0.00    -0.352 C  
HETATM    5  O   UNL     1     -12.563  13.134  66.590  1.00  0.00    -0.263 OA 
BRANCH   4   6
HETATM    6  C   UNL     1     -11.302  14.919  65.664  1.00  0.00    -0.325 A  
HETATM    7  C   UNL     1     -11.427  15.687  64.521  1.00  0.00    -0.300 A  
HETATM    8  N   UNL     1     -10.920  16.943  64.697  1.00  0.00    -0.963 NA 
HETATM    9  C   UNL     1     -10.480  16.962  65.932  1.00  0.00    -0.285 A  
HETATM   10  N   UNL     1     -10.696  15.772  66.573  1.00  0.00    -0.308 NA 
BRANCH  10  11
HETATM   11  C   UNL     1     -10.388  15.487  67.985  1.00  0.00    -0.247 C  
HETATM   12  C   UNL     1     -10.798  16.665  68.872  1.00  0.00    -0.321 C  
BRANCH  11  13
HETATM   13  C   UNL     1      -8.949  15.020  68.186  1.00  0.00    -0.173 A  
HETATM   14  C   UNL     1      -8.220  15.501  69.289  1.00  0.00    -0.255 A  
HETATM   15  C   UNL     1      -6.886  15.139  69.478  1.00  0.00    -0.179 A  
HETATM   16  C   UNL     1      -6.259  14.286  68.573  1.00  0.00    -0.090 A  
HETATM   17  C   UNL     1      -6.970  13.783  67.488  1.00  0.00    -0.161 A  
HETATM   18  C   UNL     1      -8.306  14.143  67.296  1.00  0.00    -0.212 A  
ENDBRANCH  11  13
ENDBRANCH  10  11
ENDBRANCH   4   6
ENDBRANCH   3   4
ENDBRANCH   2   3
TORSDOF 5
ENDMDL
MODEL       86
REMARK 921   NORMALIZED FREE ENERGY PREDICTED BY IDOCK:   -4.18 KCAL/MOL
REMARK 922        TOTAL FREE ENERGY PREDICTED BY IDOCK:   -5.94 KCAL/MOL
REMARK 923 INTER-LIGAND FREE ENERGY PREDICTED BY IDOCK:   -5.12 KCAL/MOL
REMARK 924 INTRA-LIGAND FREE ENERGY PREDICTED BY IDOCK:   -0.83 KCAL/MOL
REMARK 927      BINDING AFFINITY PREDICTED BY RF-SCORE:    0.00 PKD
ROOT
HETATM    1  C   UNL     1     -11.757  12.520  69.501  1.00  0.00    -0.375 C  
HETATM    2  C   UNL     1     -11.905  12.733  68.004  1.00  0.00    -0.336 C  
ENDROOT
BRANCH   2   3
HETATM    3  O   UNL     1     -11.634  11.482  67.356  1.00  0.00    -0.495 OA 
BRANCH   3   4
HETATM    4  C   UNL     1     -10.362  11.324  66.895  1.00  0.00    -0.234 C  
HETATM    5  O   UNL     1      -9.647  12.235  66.504  1.00  0.00    -0.226 OA 
BRANCH   4   6
HETATM    6  C   UNL     1      -9.970   9.947  67.044  1.00  0.00    -0.200 A  
HETATM    7  C   UNL     1      -9.982   8.937  66.100  1.00  0.00    -0.220 A  
HETATM    8  N   UNL     1      -9.588   7.743  66.631  1.00  0.00    -0.210 NA 
HETATM    9  C   UNL     1      -9.334   7.997  67.891  1.00  0.00    -0.138 A  
HETATM   10  N   UNL     1      -9.532   9.317  68.198  1.00  0.00    -0.137 NA 
BRANCH  10  11
HETATM   11  C   UNL     1      -9.268   9.946  69.503  1.00  0.00    -0.223 C  
HETATM   12  C   UNL     1      -7.764  10.139  69.712  1.00  0.00    -0.176 C  
BRANCH  11  13
HETATM   13  C   UNL     1      -9.974   9.229  70.651  1.00  0.00    -0.336 A  
HETATM   14  C   UNL     1      -9.212   8.745  71.729  1.00  0.00    -0.332 A  
HETATM   15  C   UNL     1      -9.814   8.038  72.771  1.00  0.00    -0.351 A  
HETATM   16  C   UNL     1     -11.187   7.808  72.757  1.00  0.00    -0.456 A  
HETATM   17  C   UNL     1     -11.960   8.298  71.709  1.00  0.00    -0.364 A  
HETATM   18  C   UNL     1     -11.362   9.006  70.665  1.00  0.00    -0.311 A  
ENDBRANCH  11  13
ENDBRANCH  10  11
ENDBRANCH   4   6
ENDBRANCH   3   4
ENDBRANCH   2   3
TORSDOF 5
ENDMDL
MODEL       87
REMARK 921   NORMALIZED FREE ENERGY PREDICTED BY IDOCK:   -4.16 KCAL/MOL
REMARK 922        TOTAL FREE ENERGY PREDICTED BY IDOCK:   -5.92 KCAL/MOL
REMARK 923 INTER-LIGAND FREE ENERGY PREDICTED BY IDOCK:   -5.51 KCAL/MOL
REMARK 924 INTRA-LIGAND FREE ENERGY PREDICTED BY IDOCK:   -0.41 KCAL/MOL
REMARK 927      BINDING AFFINITY PREDICTED BY RF-SCORE:    0.00 PKD
ROOT
HETATM    1  C   UNL     1     -12.091  11.746  63.400  1.00  0.00    -0.449 C  
HETATM    2  C   UNL     1     -11.498  12.657  64.461  1.00  0.00    -0.339 C  
ENDROOT
BRANCH   2   3
HETATM    3  O   UNL     1     -12.262  12.483  65.662  1.00  0.00    -0.554 OA 
BRANCH   3   4
HETATM    4  C   UNL     1     -11.631  11.813  66.666  1.00  0.00    -0.197 C  
HETATM    5  O   UNL     1     -10.974  10.793  66.515  1.00  0.00    -0.192 OA 
BRANCH   4   6
HETATM    6  C   UNL     1     -11.772  12.551  67.894  1.00  0.00    -0.359 A  
HETATM    7  C   UNL     1     -11.792  13.921  68.083  1.00  0.00    -0.372 A  
HETATM    8  N   UNL     1     -11.888  14.249  69.405  1.00  0.00    -0.306 NA 
HETATM    9  C   UNL     1     -11.923  13.102  70.038  1.00  0.00    -0.321 A  
HETATM   10  N   UNL     1     -11.872  12.038  69.178  1.00  0.00    -0.314 NA 
BRANCH  10  11
HETATM   11  C   UNL     1     -11.966  10.618  69.557  1.00  0.00    -0.247 C  
HETATM   12  C   UNL     1     -13.127  10.399  70.531  1.00  0.00    -0.203 C  
BRANCH  11  13
HETATM   13  C   UNL     1     -10.631  10.052  70.034  1.00  0.00    -0.344 A  
HETATM   14  C   UNL     1     -10.613   9.174  71.133  1.00  0.00    -0.379 A  
HETATM   15  C   UNL     1      -9.407   8.677  71.632  1.00  0.00    -0.333 A  
HETATM   16  C   UNL     1      -8.203   9.043  71.037  1.00  0.00    -0.220 A  
HETATM   17  C   UNL     1      -8.203   9.892  69.935  1.00  0.00    -0.199 A  
HETATM   18  C   UNL     1      -9.407  10.391  69.434  1.00  0.00    -0.186 A  
ENDBRANCH  11  13
ENDBRANCH  10  11
ENDBRANCH   4   6
ENDBRANCH   3   4
ENDBRANCH   2   3
TORSDOF 5
ENDMDL
MODEL       88
REMARK 921   NORMALIZED FREE ENERGY PREDICTED BY IDOCK:   -4.15 KCAL/MOL
REMARK 922        TOTAL FREE ENERGY PREDICTED BY IDOCK:   -5.92 KCAL/MOL
REMARK 923 INTER-LIGAND FREE ENERGY PREDICTED BY IDOCK:   -5.32 KCAL/MOL
REMARK 924 INTRA-LIGAND FREE ENERGY PREDICTED BY IDOCK:   -0.59 KCAL/MOL
REMARK 927      BINDING AFFINITY PREDICTED BY RF-SCORE:    0.00 PKD
ROOT
HETATM    1  C   UNL     1     -10.097  10.223  65.644  1.00  0.00    -0.341 C  
HETATM    2  C   UNL     1     -10.062   8.947  66.467  1.00  0.00    -0.286 C  
ENDROOT
BRANCH   2   3
HETATM    3  O   UNL     1     -10.894   9.147  67.618  1.00  0.00    -0.234 OA 
BRANCH   3   4
HETATM    4  C   UNL     1     -10.237   9.466  68.769  1.00  0.00    -0.203 C  
HETATM    5  O   UNL     1      -9.021   9.451  68.901  1.00  0.00    -0.132 OA 
BRANCH   4   6
HETATM    6  C   UNL     1     -11.187   9.919  69.750  1.00  0.00    -0.235 A  
HETATM    7  C   UNL     1     -11.763  11.169  69.884  1.00  0.00    -0.355 A  
HETATM    8  N   UNL     1     -12.580  11.236  70.976  1.00  0.00    -0.399 NA 
HETATM    9  C   UNL     1     -12.515  10.047  71.523  1.00  0.00    -0.419 A  
HETATM   10  N   UNL     1     -11.701   9.201  70.819  1.00  0.00    -0.277 NA 
BRANCH  10  11
HETATM   11  C   UNL     1     -11.470   7.778  71.120  1.00  0.00    -0.274 C  
HETATM   12  C   UNL     1     -12.801   7.033  71.245  1.00  0.00    -0.376 C  
BRANCH  11  13
HETATM   13  C   UNL     1     -10.525   7.578  72.302  1.00  0.00    -0.275 A  
HETATM   14  C   UNL     1      -9.383   8.393  72.413  1.00  0.00    -0.356 A  
HETATM   15  C   UNL     1      -8.468   8.206  73.450  1.00  0.00    -0.303 A  
HETATM   16  C   UNL     1      -8.681   7.207  74.397  1.00  0.00    -0.238 A  
HETATM   17  C   UNL     1      -9.816   6.407  74.316  1.00  0.00    -0.320 A  
HETATM   18  C   UNL     1     -10.734   6.591  73.280  1.00  0.00    -0.300 A  
ENDBRANCH  11  13
ENDBRANCH  10  11
ENDBRANCH   4   6
ENDBRANCH   3   4
ENDBRANCH   2   3
TORSDOF 5
ENDMDL
MODEL       89
REMARK 921   NORMALIZED FREE ENERGY PREDICTED BY IDOCK:   -4.15 KCAL/MOL
REMARK 922        TOTAL FREE ENERGY PREDICTED BY IDOCK:   -5.91 KCAL/MOL
REMARK 923 INTER-LIGAND FREE ENERGY PREDICTED BY IDOCK:   -5.57 KCAL/MOL
REMARK 924 INTRA-LIGAND FREE ENERGY PREDICTED BY IDOCK:   -0.33 KCAL/MOL
REMARK 927      BINDING AFFINITY PREDICTED BY RF-SCORE:    0.00 PKD
ROOT
HETATM    1  C   UNL     1      -7.094   8.703  71.559  1.00  0.00    -0.098 C  
HETATM    2  C   UNL     1      -8.464   9.083  71.023  1.00  0.00    -0.203 C  
ENDROOT
BRANCH   2   3
HETATM    3  O   UNL     1      -9.352   9.201  72.143  1.00  0.00    -0.300 OA 
BRANCH   3   4
HETATM    4  C   UNL     1      -9.870   8.030  72.608  1.00  0.00    -0.279 C  
HETATM    5  O   UNL     1      -9.766   7.635  73.760  1.00  0.00    -0.285 OA 
BRANCH   4   6
HETATM    6  C   UNL     1     -10.638   7.401  71.566  1.00  0.00    -0.206 A  
HETATM    7  C   UNL     1     -10.261   6.385  70.706  1.00  0.00    -0.190 A  
HETATM    8  N   UNL     1     -11.247   6.089  69.810  1.00  0.00    -0.411 NA 
HETATM    9  C   UNL     1     -12.228   6.909  70.099  1.00  0.00     0.057 A  
HETATM   10  N   UNL     1     -11.925   7.717  71.161  1.00  0.00    -0.299 NA 
BRANCH  10  11
HETATM   11  C   UNL     1     -12.832   8.696  71.784  1.00  0.00    -0.359 C  
HETATM   12  C   UNL     1     -14.280   8.203  71.718  1.00  0.00    -0.548 C  
BRANCH  11  13
HETATM   13  C   UNL     1     -12.625  10.109  71.247  1.00  0.00    -0.508 A  
HETATM   14  C   UNL     1     -11.877  10.291  70.069  1.00  0.00    -0.305 A  
HETATM   15  C   UNL     1     -11.620  11.571  69.575  1.00  0.00    -0.400 A  
HETATM   16  C   UNL     1     -12.112  12.689  70.244  1.00  0.00    -0.372 A  
HETATM   17  C   UNL     1     -12.872  12.527  71.398  1.00  0.00    -0.359 A  
HETATM   18  C   UNL     1     -13.131  11.248  71.895  1.00  0.00    -0.510 A  
ENDBRANCH  11  13
ENDBRANCH  10  11
ENDBRANCH   4   6
ENDBRANCH   3   4
ENDBRANCH   2   3
TORSDOF 5
ENDMDL
MODEL       90
REMARK 921   NORMALIZED FREE ENERGY PREDICTED BY IDOCK:   -4.14 KCAL/MOL
REMARK 922        TOTAL FREE ENERGY PREDICTED BY IDOCK:   -5.90 KCAL/MOL
REMARK 923 INTER-LIGAND FREE ENERGY PREDICTED BY IDOCK:   -5.59 KCAL/MOL
REMARK 924 INTRA-LIGAND FREE ENERGY PREDICTED BY IDOCK:   -0.30 KCAL/MOL
REMARK 927      BINDING AFFINITY PREDICTED BY RF-SCORE:    0.00 PKD
ROOT
HETATM    1  C   UNL     1     -13.835  14.430  72.433  1.00  0.00    -0.595 C  
HETATM    2  C   UNL     1     -13.818  12.916  72.319  1.00  0.00    -0.370 C  
ENDROOT
BRANCH   2   3
HETATM    3  O   UNL     1     -12.819  12.562  71.353  1.00  0.00    -0.366 OA 
BRANCH   3   4
HETATM    4  C   UNL     1     -12.561  11.229  71.237  1.00  0.00    -0.382 C  
HETATM    5  O   UNL     1     -12.974  10.372  72.005  1.00  0.00    -0.445 OA 
BRANCH   4   6
HETATM    6  C   UNL     1     -11.826  10.990  70.022  1.00  0.00    -0.355 A  
HETATM    7  C   UNL     1     -12.133  11.387  68.734  1.00  0.00    -0.189 A  
HETATM    8  N   UNL     1     -11.220  10.922  67.831  1.00  0.00    -0.306 NA 
HETATM    9  C   UNL     1     -10.355  10.240  68.541  1.00  0.00    -0.178 A  
HETATM   10  N   UNL     1     -10.659  10.257  69.875  1.00  0.00    -0.273 NA 
BRANCH  10  11
HETATM   11  C   UNL     1      -9.853   9.653  70.950  1.00  0.00    -0.098 C  
HETATM   12  C   UNL     1      -8.382   9.570  70.535  1.00  0.00    -0.203 C  
BRANCH  11  13
HETATM   13  C   UNL     1     -10.440   8.336  71.449  1.00  0.00    -0.276 A  
HETATM   14  C   UNL     1      -9.959   7.783  72.651  1.00  0.00    -0.298 A  
HETATM   15  C   UNL     1     -10.433   6.554  73.113  1.00  0.00    -0.272 A  
HETATM   16  C   UNL     1     -11.398   5.861  72.387  1.00  0.00    -0.358 A  
HETATM   17  C   UNL     1     -11.901   6.402  71.209  1.00  0.00    -0.333 A  
HETATM   18  C   UNL     1     -11.430   7.631  70.743  1.00  0.00    -0.295 A  
ENDBRANCH  11  13
ENDBRANCH  10  11
ENDBRANCH   4   6
ENDBRANCH   3   4
ENDBRANCH   2   3
TORSDOF 5
ENDMDL
MODEL       91
REMARK 921   NORMALIZED FREE ENERGY PREDICTED BY IDOCK:   -4.13 KCAL/MOL
REMARK 922        TOTAL FREE ENERGY PREDICTED BY IDOCK:   -5.89 KCAL/MOL
REMARK 923 INTER-LIGAND FREE ENERGY PREDICTED BY IDOCK:   -5.40 KCAL/MOL
REMARK 924 INTRA-LIGAND FREE ENERGY PREDICTED BY IDOCK:   -0.48 KCAL/MOL
REMARK 927      BINDING AFFINITY PREDICTED BY RF-SCORE:    0.00 PKD
ROOT
HETATM    1  C   UNL     1     -12.097  15.213  72.284  1.00  0.00    -0.478 C  
HETATM    2  C   UNL     1     -12.732  14.066  71.518  1.00  0.00    -0.363 C  
ENDROOT
BRANCH   2   3
HETATM    3  O   UNL     1     -11.809  13.657  70.500  1.00  0.00    -0.291 OA 
BRANCH   3   4
HETATM    4  C   UNL     1     -11.960  12.380  70.050  1.00  0.00    -0.299 C  
HETATM    5  O   UNL     1     -12.787  11.586  70.476  1.00  0.00    -0.149 OA 
BRANCH   4   6
HETATM    6  C   UNL     1     -11.074  12.159  68.938  1.00  0.00    -0.243 A  
HETATM    7  C   UNL     1     -10.055  11.232  68.814  1.00  0.00    -0.194 A  
HETATM    8  N   UNL     1      -9.394  11.362  67.626  1.00  0.00    -0.157 NA 
HETATM    9  C   UNL     1      -9.986  12.358  67.014  1.00  0.00    -0.212 A  
HETATM   10  N   UNL     1     -11.020  12.872  67.750  1.00  0.00    -0.236 NA 
BRANCH  10  11
HETATM   11  C   UNL     1     -11.933  13.944  67.321  1.00  0.00    -0.411 C  
HETATM   12  C   UNL     1     -12.633  13.562  66.015  1.00  0.00    -0.408 C  
BRANCH  11  13
HETATM   13  C   UNL     1     -11.256  15.312  67.294  1.00  0.00    -0.306 A  
HETATM   14  C   UNL     1     -11.176  16.061  68.482  1.00  0.00    -0.374 A  
HETATM   15  C   UNL     1     -10.612  17.338  68.486  1.00  0.00    -0.350 A  
HETATM   16  C   UNL     1     -10.111  17.883  67.307  1.00  0.00    -0.344 A  
HETATM   17  C   UNL     1     -10.161  17.148  66.127  1.00  0.00    -0.317 A  
HETATM   18  C   UNL     1     -10.724  15.871  66.119  1.00  0.00    -0.273 A  
ENDBRANCH  11  13
ENDBRANCH  10  11
ENDBRANCH   4   6
ENDBRANCH   3   4
ENDBRANCH   2   3
TORSDOF 5
ENDMDL
MODEL       92
REMARK 921   NORMALIZED FREE ENERGY PREDICTED BY IDOCK:   -4.13 KCAL/MOL
REMARK 922        TOTAL FREE ENERGY PREDICTED BY IDOCK:   -5.88 KCAL/MOL
REMARK 923 INTER-LIGAND FREE ENERGY PREDICTED BY IDOCK:   -5.37 KCAL/MOL
REMARK 924 INTRA-LIGAND FREE ENERGY PREDICTED BY IDOCK:   -0.51 KCAL/MOL
REMARK 927      BINDING AFFINITY PREDICTED BY RF-SCORE:    0.00 PKD
ROOT
HETATM    1  C   UNL     1     -10.993   6.219  68.452  1.00  0.00    -0.409 C  
HETATM    2  C   UNL     1     -10.693   7.462  67.632  1.00  0.00    -0.207 C  
ENDROOT
BRANCH   2   3
HETATM    3  O   UNL     1     -10.635   8.576  68.533  1.00  0.00    -0.193 OA 
BRANCH   3   4
HETATM    4  C   UNL     1     -10.688   9.806  67.950  1.00  0.00    -0.258 C  
HETATM    5  O   UNL     1     -11.668  10.538  67.959  1.00  0.00    -0.450 OA 
BRANCH   4   6
HETATM    6  C   UNL     1      -9.390  10.141  67.426  1.00  0.00    -0.148 A  
HETATM    7  C   UNL     1      -8.187  10.252  68.099  1.00  0.00    -0.114 A  
HETATM    8  N   UNL     1      -7.177  10.645  67.269  1.00  0.00    -0.088 NA 
HETATM    9  C   UNL     1      -7.737  10.781  66.092  1.00  0.00    -0.149 A  
HETATM   10  N   UNL     1      -9.071  10.476  66.119  1.00  0.00    -0.158 NA 
BRANCH  10  11
HETATM   11  C   UNL     1      -9.973  10.456  64.956  1.00  0.00    -0.330 C  
HETATM   12  C   UNL     1      -9.228   9.982  63.706  1.00  0.00    -0.314 C  
BRANCH  11  13
HETATM   13  C   UNL     1     -10.724  11.772  64.777  1.00  0.00    -0.355 A  
HETATM   14  C   UNL     1     -11.606  11.916  63.690  1.00  0.00    -0.559 A  
HETATM   15  C   UNL     1     -12.271  13.123  63.462  1.00  0.00    -0.552 A  
HETATM   16  C   UNL     1     -12.071  14.201  64.319  1.00  0.00    -0.471 A  
HETATM   17  C   UNL     1     -11.220  14.071  65.412  1.00  0.00    -0.319 A  
HETATM   18  C   UNL     1     -10.554  12.866  65.643  1.00  0.00    -0.295 A  
ENDBRANCH  11  13
ENDBRANCH  10  11
ENDBRANCH   4   6
ENDBRANCH   3   4
ENDBRANCH   2   3
TORSDOF 5
ENDMDL
MODEL       93
REMARK 921   NORMALIZED FREE ENERGY PREDICTED BY IDOCK:   -4.12 KCAL/MOL
REMARK 922        TOTAL FREE ENERGY PREDICTED BY IDOCK:   -5.87 KCAL/MOL
REMARK 923 INTER-LIGAND FREE ENERGY PREDICTED BY IDOCK:   -5.34 KCAL/MOL
REMARK 924 INTRA-LIGAND FREE ENERGY PREDICTED BY IDOCK:   -0.53 KCAL/MOL
REMARK 927      BINDING AFFINITY PREDICTED BY RF-SCORE:    0.00 PKD
ROOT
HETATM    1  C   UNL     1      -7.262   9.920  70.139  1.00  0.00    -0.159 C  
HETATM    2  C   UNL     1      -8.756   9.720  69.954  1.00  0.00    -0.217 C  
ENDROOT
BRANCH   2   3
HETATM    3  O   UNL     1      -9.173  10.536  68.852  1.00  0.00    -0.167 OA 
BRANCH   3   4
HETATM    4  C   UNL     1     -10.501  10.482  68.551  1.00  0.00    -0.188 C  
HETATM    5  O   UNL     1     -11.020   9.626  67.849  1.00  0.00    -0.243 OA 
BRANCH   4   6
HETATM    6  C   UNL     1     -11.195  11.517  69.272  1.00  0.00    -0.272 A  
HETATM    7  C   UNL     1     -12.039  11.397  70.361  1.00  0.00    -0.384 A  
HETATM    8  N   UNL     1     -12.555  12.603  70.737  1.00  0.00    -0.270 NA 
HETATM    9  C   UNL     1     -12.046  13.469  69.895  1.00  0.00    -0.341 A  
HETATM   10  N   UNL     1     -11.204  12.875  68.994  1.00  0.00    -0.267 NA 
BRANCH  10  11
HETATM   11  C   UNL     1     -10.415  13.572  67.964  1.00  0.00    -0.242 C  
HETATM   12  C   UNL     1     -10.371  15.076  68.247  1.00  0.00    -0.236 C  
BRANCH  11  13
HETATM   13  C   UNL     1     -10.856  13.212  66.548  1.00  0.00    -0.291 A  
HETATM   14  C   UNL     1     -12.178  13.489  66.151  1.00  0.00    -0.484 A  
HETATM   15  C   UNL     1     -12.634  13.127  64.883  1.00  0.00    -0.468 A  
HETATM   16  C   UNL     1     -11.778  12.490  63.989  1.00  0.00    -0.499 A  
HETATM   17  C   UNL     1     -10.462  12.228  64.356  1.00  0.00    -0.355 A  
HETATM   18  C   UNL     1     -10.002  12.588  65.623  1.00  0.00    -0.259 A  
ENDBRANCH  11  13
ENDBRANCH  10  11
ENDBRANCH   4   6
ENDBRANCH   3   4
ENDBRANCH   2   3
TORSDOF 5
ENDMDL
MODEL       94
REMARK 921   NORMALIZED FREE ENERGY PREDICTED BY IDOCK:   -4.11 KCAL/MOL
REMARK 922        TOTAL FREE ENERGY PREDICTED BY IDOCK:   -5.86 KCAL/MOL
REMARK 923 INTER-LIGAND FREE ENERGY PREDICTED BY IDOCK:   -5.23 KCAL/MOL
REMARK 924 INTRA-LIGAND FREE ENERGY PREDICTED BY IDOCK:   -0.63 KCAL/MOL
REMARK 927      BINDING AFFINITY PREDICTED BY RF-SCORE:    0.00 PKD
ROOT
HETATM    1  C   UNL     1     -11.298  15.092  67.752  1.00  0.00    -0.340 C  
HETATM    2  C   UNL     1     -10.829  14.452  66.457  1.00  0.00    -0.310 C  
ENDROOT
BRANCH   2   3
HETATM    3  O   UNL     1     -10.248  13.183  66.782  1.00  0.00    -0.245 OA 
BRANCH   3   4
HETATM    4  C   UNL     1     -10.991  12.093  66.443  1.00  0.00    -0.288 C  
HETATM    5  O   UNL     1     -12.027  11.758  67.001  1.00  0.00    -0.610 OA 
BRANCH   4   6
HETATM    6  C   UNL     1     -10.425  11.474  65.273  1.00  0.00    -0.283 A  
HETATM    7  C   UNL     1     -10.654  11.769  63.942  1.00  0.00    -0.393 A  
HETATM    8  N   UNL     1      -9.974  10.925  63.112  1.00  0.00    -0.340 NA 
HETATM    9  C   UNL     1      -9.329  10.109  63.910  1.00  0.00    -0.287 A  
HETATM   10  N   UNL     1      -9.549  10.400  65.230  1.00  0.00    -0.235 NA 
BRANCH  10  11
HETATM   11  C   UNL     1      -8.920   9.725  66.377  1.00  0.00    -0.151 C  
HETATM   12  C   UNL     1      -7.406   9.953  66.370  1.00  0.00    -0.101 C  
BRANCH  11  13
HETATM   13  C   UNL     1      -9.334   8.261  66.491  1.00  0.00    -0.263 A  
HETATM   14  C   UNL     1     -10.594   7.944  67.031  1.00  0.00    -0.381 A  
HETATM   15  C   UNL     1     -10.987   6.616  67.201  1.00  0.00    -0.478 A  
HETATM   16  C   UNL     1     -10.131   5.582  66.828  1.00  0.00    -0.242 A  
HETATM   17  C   UNL     1      -8.890   5.876  66.273  1.00  0.00    -0.143 A  
HETATM   18  C   UNL     1      -8.494   7.203  66.101  1.00  0.00    -0.143 A  
ENDBRANCH  11  13
ENDBRANCH  10  11
ENDBRANCH   4   6
ENDBRANCH   3   4
ENDBRANCH   2   3
TORSDOF 5
ENDMDL
MODEL       95
REMARK 921   NORMALIZED FREE ENERGY PREDICTED BY IDOCK:   -4.11 KCAL/MOL
REMARK 922        TOTAL FREE ENERGY PREDICTED BY IDOCK:   -5.86 KCAL/MOL
REMARK 923 INTER-LIGAND FREE ENERGY PREDICTED BY IDOCK:   -5.56 KCAL/MOL
REMARK 924 INTRA-LIGAND FREE ENERGY PREDICTED BY IDOCK:   -0.29 KCAL/MOL
REMARK 927      BINDING AFFINITY PREDICTED BY RF-SCORE:    0.00 PKD
ROOT
HETATM    1  C   UNL     1     -10.405   7.236  68.353  1.00  0.00    -0.213 C  
HETATM    2  C   UNL     1     -10.628   8.461  67.483  1.00  0.00    -0.215 C  
ENDROOT
BRANCH   2   3
HETATM    3  O   UNL     1     -10.057   9.588  68.161  1.00  0.00    -0.166 OA 
BRANCH   3   4
HETATM    4  C   UNL     1     -10.826  10.712  68.181  1.00  0.00    -0.245 C  
HETATM    5  O   UNL     1     -12.048  10.717  68.228  1.00  0.00    -0.496 OA 
BRANCH   4   6
HETATM    6  C   UNL     1      -9.974  11.871  68.246  1.00  0.00    -0.202 A  
HETATM    7  C   UNL     1      -8.597  11.940  68.138  1.00  0.00    -0.165 A  
HETATM    8  N   UNL     1      -8.139  13.215  68.308  1.00  0.00    -0.148 NA 
HETATM    9  C   UNL     1      -9.212  13.936  68.525  1.00  0.00    -0.154 A  
HETATM   10  N   UNL     1     -10.354  13.182  68.484  1.00  0.00    -0.250 NA 
BRANCH  10  11
HETATM   11  C   UNL     1     -11.729  13.695  68.613  1.00  0.00    -0.354 C  
HETATM   12  C   UNL     1     -12.031  14.708  67.506  1.00  0.00    -0.309 C  
BRANCH  11  13
HETATM   13  C   UNL     1     -12.036  14.195  70.022  1.00  0.00    -0.404 A  
HETATM   14  C   UNL     1     -12.592  13.305  70.960  1.00  0.00    -0.408 A  
HETATM   15  C   UNL     1     -12.935  13.739  72.241  1.00  0.00    -0.432 A  
HETATM   16  C   UNL     1     -12.722  15.064  72.610  1.00  0.00    -0.466 A  
HETATM   17  C   UNL     1     -12.152  15.953  71.704  1.00  0.00    -0.554 A  
HETATM   18  C   UNL     1     -11.807  15.523  70.421  1.00  0.00    -0.379 A  
ENDBRANCH  11  13
ENDBRANCH  10  11
ENDBRANCH   4   6
ENDBRANCH   3   4
ENDBRANCH   2   3
TORSDOF 5
ENDMDL
MODEL       96
REMARK 921   NORMALIZED FREE ENERGY PREDICTED BY IDOCK:   -4.07 KCAL/MOL
REMARK 922        TOTAL FREE ENERGY PREDICTED BY IDOCK:   -5.81 KCAL/MOL
REMARK 923 INTER-LIGAND FREE ENERGY PREDICTED BY IDOCK:   -5.16 KCAL/MOL
REMARK 924 INTRA-LIGAND FREE ENERGY PREDICTED BY IDOCK:   -0.65 KCAL/MOL
REMARK 927      BINDING AFFINITY PREDICTED BY RF-SCORE:    0.00 PKD
ROOT
HETATM    1  C   UNL     1      -7.331   7.884  69.244  1.00  0.00    -0.082 C  
HETATM    2  C   UNL     1      -7.837   9.104  69.994  1.00  0.00    -0.099 C  
ENDROOT
BRANCH   2   3
HETATM    3  O   UNL     1      -9.254   8.958  70.160  1.00  0.00    -0.161 OA 
BRANCH   3   4
HETATM    4  C   UNL     1      -9.688   8.865  71.448  1.00  0.00    -0.300 C  
HETATM    5  O   UNL     1      -8.956   8.841  72.427  1.00  0.00    -0.379 OA 
BRANCH   4   6
HETATM    6  C   UNL     1     -11.126   8.910  71.471  1.00  0.00    -0.326 A  
HETATM    7  C   UNL     1     -11.958  10.014  71.430  1.00  0.00    -0.383 A  
HETATM    8  N   UNL     1     -13.273   9.660  71.528  1.00  0.00    -0.380 NA 
HETATM    9  C   UNL     1     -13.268   8.353  71.633  1.00  0.00    -0.339 A  
HETATM   10  N   UNL     1     -11.999   7.840  71.589  1.00  0.00    -0.286 NA 
BRANCH  10  11
HETATM   11  C   UNL     1     -11.648   6.410  71.607  1.00  0.00    -0.310 C  
HETATM   12  C   UNL     1     -10.913   6.054  72.902  1.00  0.00    -0.303 C  
BRANCH  11  13
HETATM   13  C   UNL     1     -10.929   5.970  70.335  1.00  0.00    -0.399 A  
HETATM   14  C   UNL     1     -11.389   6.437  69.090  1.00  0.00    -0.366 A  
HETATM   15  C   UNL     1     -10.791   6.016  67.902  1.00  0.00    -0.378 A  
HETATM   16  C   UNL     1      -9.720   5.127  67.937  1.00  0.00    -0.184 A  
HETATM   17  C   UNL     1      -9.237   4.672  69.159  1.00  0.00    -0.184 A  
HETATM   18  C   UNL     1      -9.832   5.091  70.350  1.00  0.00    -0.301 A  
ENDBRANCH  11  13
ENDBRANCH  10  11
ENDBRANCH   4   6
ENDBRANCH   3   4
ENDBRANCH   2   3
TORSDOF 5
ENDMDL
MODEL       97
REMARK 921   NORMALIZED FREE ENERGY PREDICTED BY IDOCK:   -4.06 KCAL/MOL
REMARK 922        TOTAL FREE ENERGY PREDICTED BY IDOCK:   -5.79 KCAL/MOL
REMARK 923 INTER-LIGAND FREE ENERGY PREDICTED BY IDOCK:   -5.06 KCAL/MOL
REMARK 924 INTRA-LIGAND FREE ENERGY PREDICTED BY IDOCK:   -0.74 KCAL/MOL
REMARK 927      BINDING AFFINITY PREDICTED BY RF-SCORE:    0.00 PKD
ROOT
HETATM    1  C   UNL     1      -6.321  11.321  67.692  1.00  0.00    -0.059 C  
HETATM    2  C   UNL     1      -7.384  12.385  67.900  1.00  0.00    -0.112 C  
ENDROOT
BRANCH   2   3
HETATM    3  O   UNL     1      -8.501  12.056  67.064  1.00  0.00    -0.172 OA 
BRANCH   3   4
HETATM    4  C   UNL     1      -9.668  11.800  67.718  1.00  0.00    -0.183 C  
HETATM    5  O   UNL     1      -9.755  11.172  68.764  1.00  0.00    -0.197 OA 
BRANCH   4   6
HETATM    6  C   UNL     1     -10.749  12.472  67.045  1.00  0.00    -0.242 A  
HETATM    7  C   UNL     1     -11.536  12.016  66.004  1.00  0.00    -0.305 A  
HETATM    8  N   UNL     1     -12.428  12.964  65.591  1.00  0.00    -0.574 NA 
HETATM    9  C   UNL     1     -12.202  14.002  66.359  1.00  0.00    -0.460 A  
HETATM   10  N   UNL     1     -11.208  13.760  67.269  1.00  0.00    -0.301 NA 
BRANCH  10  11
HETATM   11  C   UNL     1     -10.761  14.687  68.322  1.00  0.00    -0.239 C  
HETATM   12  C   UNL     1     -11.898  14.967  69.309  1.00  0.00    -0.344 C  
BRANCH  11  13
HETATM   13  C   UNL     1     -10.100  15.941  67.755  1.00  0.00    -0.244 A  
HETATM   14  C   UNL     1     -10.610  17.204  68.107  1.00  0.00    -0.380 A  
HETATM   15  C   UNL     1     -10.066  18.371  67.567  1.00  0.00    -0.373 A  
HETATM   16  C   UNL     1      -9.001  18.296  66.674  1.00  0.00    -0.296 A  
HETATM   17  C   UNL     1      -8.470  17.057  66.331  1.00  0.00    -0.318 A  
HETATM   18  C   UNL     1      -9.011  15.887  66.869  1.00  0.00    -0.257 A  
ENDBRANCH  11  13
ENDBRANCH  10  11
ENDBRANCH   4   6
ENDBRANCH   3   4
ENDBRANCH   2   3
TORSDOF 5
ENDMDL
MODEL       98
REMARK 921   NORMALIZED FREE ENERGY PREDICTED BY IDOCK:   -4.05 KCAL/MOL
REMARK 922        TOTAL FREE ENERGY PREDICTED BY IDOCK:   -5.78 KCAL/MOL
REMARK 923 INTER-LIGAND FREE ENERGY PREDICTED BY IDOCK:   -5.04 KCAL/MOL
REMARK 924 INTRA-LIGAND FREE ENERGY PREDICTED BY IDOCK:   -0.74 KCAL/MOL
REMARK 927      BINDING AFFINITY PREDICTED BY RF-SCORE:    0.00 PKD
ROOT
HETATM    1  C   UNL     1     -12.153  10.132  71.257  1.00  0.00    -0.489 C  
HETATM    2  C   UNL     1     -11.503   8.898  71.858  1.00  0.00    -0.372 C  
ENDROOT
BRANCH   2   3
HETATM    3  O   UNL     1     -10.117   8.913  71.493  1.00  0.00    -0.267 OA 
BRANCH   3   4
HETATM    4  C   UNL     1      -9.839   8.505  70.223  1.00  0.00    -0.182 C  
HETATM    5  O   UNL     1     -10.339   7.528  69.683  1.00  0.00    -0.213 OA 
BRANCH   4   6
HETATM    6  C   UNL     1      -8.961   9.459  69.597  1.00  0.00    -0.173 A  
HETATM    7  C   UNL     1      -7.665   9.796  69.940  1.00  0.00    -0.157 A  
HETATM    8  N   UNL     1      -7.173  10.789  69.142  1.00  0.00    -0.096 NA 
HETATM    9  C   UNL     1      -8.146  11.074  68.312  1.00  0.00    -0.128 A  
HETATM   10  N   UNL     1      -9.250  10.292  68.528  1.00  0.00    -0.139 NA 
BRANCH  10  11
HETATM   11  C   UNL     1     -10.485  10.306  67.726  1.00  0.00    -0.226 C  
HETATM   12  C   UNL     1     -10.279   9.550  66.411  1.00  0.00    -0.302 C  
BRANCH  11  13
HETATM   13  C   UNL     1     -11.057  11.711  67.559  1.00  0.00    -0.333 A  
HETATM   14  C   UNL     1     -11.212  12.239  66.264  1.00  0.00    -0.367 A  
HETATM   15  C   UNL     1     -11.682  13.539  66.073  1.00  0.00    -0.389 A  
HETATM   16  C   UNL     1     -12.010  14.331  67.170  1.00  0.00    -0.449 A  
HETATM   17  C   UNL     1     -11.884  13.819  68.458  1.00  0.00    -0.406 A  
HETATM   18  C   UNL     1     -11.414  12.518  68.653  1.00  0.00    -0.348 A  
ENDBRANCH  11  13
ENDBRANCH  10  11
ENDBRANCH   4   6
ENDBRANCH   3   4
ENDBRANCH   2   3
TORSDOF 5
ENDMDL
MODEL       99
REMARK 921   NORMALIZED FREE ENERGY PREDICTED BY IDOCK:   -4.04 KCAL/MOL
REMARK 922        TOTAL FREE ENERGY PREDICTED BY IDOCK:   -5.77 KCAL/MOL
REMARK 923 INTER-LIGAND FREE ENERGY PREDICTED BY IDOCK:   -5.73 KCAL/MOL
REMARK 924 INTRA-LIGAND FREE ENERGY PREDICTED BY IDOCK:   -0.04 KCAL/MOL
REMARK 927      BINDING AFFINITY PREDICTED BY RF-SCORE:    0.00 PKD
ROOT
HETATM    1  C   UNL     1      -8.024  16.886  66.394  1.00  0.00    -0.352 C  
HETATM    2  C   UNL     1      -8.477  15.531  66.907  1.00  0.00    -0.254 C  
ENDROOT
BRANCH   2   3
HETATM    3  O   UNL     1      -9.363  14.968  65.930  1.00  0.00    -0.303 OA 
BRANCH   3   4
HETATM    4  C   UNL     1     -10.677  14.922  66.287  1.00  0.00    -0.320 C  
HETATM    5  O   UNL     1     -11.147  15.465  67.277  1.00  0.00    -0.325 OA 
BRANCH   4   6
HETATM    6  C   UNL     1     -11.424  14.233  65.268  1.00  0.00    -0.344 A  
HETATM    7  C   UNL     1     -11.951  14.736  64.093  1.00  0.00    -0.259 A  
HETATM    8  N   UNL     1     -12.649  13.786  63.403  1.00  0.00    -0.789 NA 
HETATM    9  C   UNL     1     -12.564  12.703  64.136  1.00  0.00    -0.353 A  
HETATM   10  N   UNL     1     -11.823  12.906  65.269  1.00  0.00    -0.367 NA 
BRANCH  10  11
HETATM   11  C   UNL     1     -11.474  11.879  66.265  1.00  0.00    -0.301 C  
HETATM   12  C   UNL     1     -11.671  12.418  67.684  1.00  0.00    -0.412 C  
BRANCH  11  13
HETATM   13  C   UNL     1     -10.100  11.263  66.013  1.00  0.00    -0.283 A  
HETATM   14  C   UNL     1      -9.024  11.626  66.843  1.00  0.00    -0.191 A  
HETATM   15  C   UNL     1      -7.742  11.125  66.612  1.00  0.00    -0.155 A  
HETATM   16  C   UNL     1      -7.515  10.251  65.553  1.00  0.00    -0.149 A  
HETATM   17  C   UNL     1      -8.571   9.864  64.735  1.00  0.00    -0.191 A  
HETATM   18  C   UNL     1      -9.855  10.362  64.963  1.00  0.00    -0.384 A  
ENDBRANCH  11  13
ENDBRANCH  10  11
ENDBRANCH   4   6
ENDBRANCH   3   4
ENDBRANCH   2   3
TORSDOF 5
ENDMDL
MODEL      100
REMARK 921   NORMALIZED FREE ENERGY PREDICTED BY IDOCK:   -4.03 KCAL/MOL
REMARK 922        TOTAL FREE ENERGY PREDICTED BY IDOCK:   -5.76 KCAL/MOL
REMARK 923 INTER-LIGAND FREE ENERGY PREDICTED BY IDOCK:   -5.14 KCAL/MOL
REMARK 924 INTRA-LIGAND FREE ENERGY PREDICTED BY IDOCK:   -0.62 KCAL/MOL
REMARK 927      BINDING AFFINITY PREDICTED BY RF-SCORE:    0.00 PKD
ROOT
HETATM    1  C   UNL     1     -11.202  15.311  70.869  1.00  0.00    -0.367 C  
HETATM    2  C   UNL     1     -12.087  14.676  69.811  1.00  0.00    -0.324 C  
ENDROOT
BRANCH   2   3
HETATM    3  O   UNL     1     -12.022  15.497  68.637  1.00  0.00    -0.335 OA 
BRANCH   3   4
HETATM    4  C   UNL     1     -11.668  14.855  67.490  1.00  0.00    -0.308 C  
HETATM    5  O   UNL     1     -12.343  13.998  66.937  1.00  0.00    -0.418 OA 
BRANCH   4   6
HETATM    6  C   UNL     1     -10.443  15.419  66.986  1.00  0.00    -0.295 A  
HETATM    7  C   UNL     1     -10.270  16.521  66.169  1.00  0.00    -0.346 A  
HETATM    8  N   UNL     1      -8.956  16.717  65.856  1.00  0.00    -0.505 NA 
HETATM    9  C   UNL     1      -8.313  15.750  66.463  1.00  0.00    -0.278 A  
HETATM   10  N   UNL     1      -9.156  14.941  67.176  1.00  0.00    -0.210 NA 
BRANCH  10  11
HETATM   11  C   UNL     1      -8.750  13.811  68.028  1.00  0.00    -0.181 C  
HETATM   12  C   UNL     1      -7.225  13.746  68.142  1.00  0.00    -0.121 C  
BRANCH  11  13
HETATM   13  C   UNL     1      -9.405  12.498  67.609  1.00  0.00    -0.189 A  
HETATM   14  C   UNL     1      -9.216  12.026  66.296  1.00  0.00    -0.208 A  
HETATM   15  C   UNL     1      -9.842  10.858  65.859  1.00  0.00    -0.285 A  
HETATM   16  C   UNL     1     -10.658  10.137  66.726  1.00  0.00    -0.239 A  
HETATM   17  C   UNL     1     -10.839  10.576  68.034  1.00  0.00    -0.312 A  
HETATM   18  C   UNL     1     -10.215  11.744  68.475  1.00  0.00    -0.215 A  
ENDBRANCH  11  13
ENDBRANCH  10  11
ENDBRANCH   4   6
ENDBRANCH   3   4
ENDBRANCH   2   3
TORSDOF 5
ENDMDL
MODEL      101
REMARK 921   NORMALIZED FREE ENERGY PREDICTED BY IDOCK:   -4.02 KCAL/MOL
REMARK 922        TOTAL FREE ENERGY PREDICTED BY IDOCK:   -5.74 KCAL/MOL
REMARK 923 INTER-LIGAND FREE ENERGY PREDICTED BY IDOCK:   -5.01 KCAL/MOL
REMARK 924 INTRA-LIGAND FREE ENERGY PREDICTED BY IDOCK:   -0.73 KCAL/MOL
REMARK 927      BINDING AFFINITY PREDICTED BY RF-SCORE:    0.00 PKD
ROOT
HETATM    1  C   UNL     1     -11.842  12.960  63.585  1.00  0.00    -0.599 C  
HETATM    2  C   UNL     1     -11.364  11.532  63.781  1.00  0.00    -0.329 C  
ENDROOT
BRANCH   2   3
HETATM    3  O   UNL     1     -10.124  11.581  64.499  1.00  0.00    -0.248 OA 
BRANCH   3   4
HETATM    4  C   UNL     1     -10.223  11.450  65.851  1.00  0.00    -0.246 C  
HETATM    5  O   UNL     1     -11.160  10.920  66.431  1.00  0.00    -0.158 OA 
BRANCH   4   6
HETATM    6  C   UNL     1      -9.014  11.932  66.466  1.00  0.00    -0.199 A  
HETATM    7  C   UNL     1      -7.832  11.254  66.701  1.00  0.00    -0.152 A  
HETATM    8  N   UNL     1      -6.924  12.032  67.360  1.00  0.00    -0.126 NA 
HETATM    9  C   UNL     1      -7.527  13.181  67.540  1.00  0.00    -0.160 A  
HETATM   10  N   UNL     1      -8.788  13.188  67.008  1.00  0.00    -0.219 NA 
BRANCH  10  11
HETATM   11  C   UNL     1      -9.702  14.343  66.974  1.00  0.00    -0.254 C  
HETATM   12  C   UNL     1      -8.971  15.592  66.474  1.00  0.00    -0.348 C  
BRANCH  11  13
HETATM   13  C   UNL     1     -10.447  14.537  68.292  1.00  0.00    -0.242 A  
HETATM   14  C   UNL     1     -11.546  13.709  68.586  1.00  0.00    -0.364 A  
HETATM   15  C   UNL     1     -12.285  13.890  69.756  1.00  0.00    -0.388 A  
HETATM   16  C   UNL     1     -11.935  14.895  70.654  1.00  0.00    -0.363 A  
HETATM   17  C   UNL     1     -10.839  15.709  70.390  1.00  0.00    -0.358 A  
HETATM   18  C   UNL     1     -10.097  15.531  69.221  1.00  0.00    -0.256 A  
ENDBRANCH  11  13
ENDBRANCH  10  11
ENDBRANCH   4   6
ENDBRANCH   3   4
ENDBRANCH   2   3
TORSDOF 5
ENDMDL
MODEL      102
REMARK 921   NORMALIZED FREE ENERGY PREDICTED BY IDOCK:   -4.02 KCAL/MOL
REMARK 922        TOTAL FREE ENERGY PREDICTED BY IDOCK:   -5.74 KCAL/MOL
REMARK 923 INTER-LIGAND FREE ENERGY PREDICTED BY IDOCK:   -5.88 KCAL/MOL
REMARK 924 INTRA-LIGAND FREE ENERGY PREDICTED BY IDOCK:    0.14 KCAL/MOL
REMARK 927      BINDING AFFINITY PREDICTED BY RF-SCORE:    0.00 PKD
ROOT
HETATM    1  C   UNL     1     -12.658  16.076  73.960  1.00  0.00    -0.733 C  
HETATM    2  C   UNL     1     -11.663  15.153  73.280  1.00  0.00    -0.213 C  
ENDROOT
BRANCH   2   3
HETATM    3  O   UNL     1     -11.762  15.370  71.866  1.00  0.00    -0.361 OA 
BRANCH   3   4
HETATM    4  C   UNL     1     -12.895  14.897  71.277  1.00  0.00    -0.348 C  
HETATM    5  O   UNL     1     -13.764  15.599  70.779  1.00  0.00    -0.490 OA 
BRANCH   4   6
HETATM    6  C   UNL     1     -12.849  13.458  71.241  1.00  0.00    -0.323 A  
HETATM    7  C   UNL     1     -13.477  12.551  72.075  1.00  0.00    -0.387 A  
HETATM    8  N   UNL     1     -13.148  11.264  71.761  1.00  0.00    -0.468 NA 
HETATM    9  C   UNL     1     -12.323  11.360  70.748  1.00  0.00    -0.386 A  
HETATM   10  N   UNL     1     -12.115  12.661  70.377  1.00  0.00    -0.352 NA 
BRANCH  10  11
HETATM   11  C   UNL     1     -11.304  13.111  69.233  1.00  0.00    -0.253 C  
HETATM   12  C   UNL     1     -12.111  14.061  68.343  1.00  0.00    -0.318 C  
BRANCH  11  13
HETATM   13  C   UNL     1     -10.655  11.950  68.484  1.00  0.00    -0.245 A  
HETATM   14  C   UNL     1      -9.288  11.683  68.686  1.00  0.00    -0.120 A  
HETATM   15  C   UNL     1      -8.647  10.664  67.980  1.00  0.00    -0.122 A  
HETATM   16  C   UNL     1      -9.360   9.890  67.069  1.00  0.00    -0.175 A  
HETATM   17  C   UNL     1     -10.717  10.125  66.873  1.00  0.00    -0.231 A  
HETATM   18  C   UNL     1     -11.363  11.144  67.577  1.00  0.00    -0.351 A  
ENDBRANCH  11  13
ENDBRANCH  10  11
ENDBRANCH   4   6
ENDBRANCH   3   4
ENDBRANCH   2   3
TORSDOF 5
ENDMDL
MODEL      103
REMARK 921   NORMALIZED FREE ENERGY PREDICTED BY IDOCK:   -4.01 KCAL/MOL
REMARK 922        TOTAL FREE ENERGY PREDICTED BY IDOCK:   -5.73 KCAL/MOL
REMARK 923 INTER-LIGAND FREE ENERGY PREDICTED BY IDOCK:   -5.58 KCAL/MOL
REMARK 924 INTRA-LIGAND FREE ENERGY PREDICTED BY IDOCK:   -0.14 KCAL/MOL
REMARK 927      BINDING AFFINITY PREDICTED BY RF-SCORE:    0.00 PKD
ROOT
HETATM    1  C   UNL     1      -9.538  11.936  66.336  1.00  0.00    -0.239 C  
HETATM    2  C   UNL     1      -8.369  12.455  67.154  1.00  0.00    -0.181 C  
ENDROOT
BRANCH   2   3
HETATM    3  O   UNL     1      -8.444  13.887  67.163  1.00  0.00    -0.203 OA 
BRANCH   3   4
HETATM    4  C   UNL     1      -8.287  14.475  68.382  1.00  0.00    -0.153 C  
HETATM    5  O   UNL     1      -7.444  14.152  69.206  1.00  0.00    -0.087 OA 
BRANCH   4   6
HETATM    6  C   UNL     1      -9.190  15.591  68.493  1.00  0.00    -0.197 A  
HETATM    7  C   UNL     1      -8.903  16.943  68.464  1.00  0.00    -0.251 A  
HETATM    8  N   UNL     1     -10.021  17.702  68.656  1.00  0.00    -0.349 NA 
HETATM    9  C   UNL     1     -10.997  16.840  68.808  1.00  0.00    -0.275 A  
HETATM   10  N   UNL     1     -10.560  15.547  68.704  1.00  0.00    -0.236 NA 
BRANCH  10  11
HETATM   11  C   UNL     1     -11.409  14.345  68.751  1.00  0.00    -0.273 C  
HETATM   12  C   UNL     1     -12.154  14.161  67.426  1.00  0.00    -0.379 C  
BRANCH  11  13
HETATM   13  C   UNL     1     -12.306  14.312  69.985  1.00  0.00    -0.403 A  
HETATM   14  C   UNL     1     -12.314  13.163  70.797  1.00  0.00    -0.404 A  
HETATM   15  C   UNL     1     -13.160  13.075  71.904  1.00  0.00    -0.483 A  
HETATM   16  C   UNL     1     -14.006  14.134  72.222  1.00  0.00    -0.646 A  
HETATM   17  C   UNL     1     -13.996  15.287  71.444  1.00  0.00    -0.601 A  
HETATM   18  C   UNL     1     -13.151  15.379  70.336  1.00  0.00    -0.223 A  
ENDBRANCH  11  13
ENDBRANCH  10  11
ENDBRANCH   4   6
ENDBRANCH   3   4
ENDBRANCH   2   3
TORSDOF 5
ENDMDL
MODEL      104
REMARK 921   NORMALIZED FREE ENERGY PREDICTED BY IDOCK:   -4.00 KCAL/MOL
REMARK 922        TOTAL FREE ENERGY PREDICTED BY IDOCK:   -5.72 KCAL/MOL
REMARK 923 INTER-LIGAND FREE ENERGY PREDICTED BY IDOCK:   -5.06 KCAL/MOL
REMARK 924 INTRA-LIGAND FREE ENERGY PREDICTED BY IDOCK:   -0.66 KCAL/MOL
REMARK 927      BINDING AFFINITY PREDICTED BY RF-SCORE:    0.00 PKD
ROOT
HETATM    1  C   UNL     1     -10.514   3.980  72.606  1.00  0.00    -0.222 C  
HETATM    2  C   UNL     1     -11.366   5.084  73.208  1.00  0.00    -0.317 C  
ENDROOT
BRANCH   2   3
HETATM    3  O   UNL     1     -11.329   6.202  72.311  1.00  0.00    -0.271 OA 
BRANCH   3   4
HETATM    4  C   UNL     1     -11.030   7.402  72.882  1.00  0.00    -0.361 C  
HETATM    5  O   UNL     1     -10.221   7.559  73.786  1.00  0.00    -0.322 OA 
BRANCH   4   6
HETATM    6  C   UNL     1     -11.728   8.450  72.184  1.00  0.00    -0.375 A  
HETATM    7  C   UNL     1     -12.931   9.051  72.505  1.00  0.00    -0.361 A  
HETATM    8  N   UNL     1     -13.303   9.972  71.568  1.00  0.00    -0.377 NA 
HETATM    9  C   UNL     1     -12.350   9.946  70.669  1.00  0.00    -0.214 A  
HETATM   10  N   UNL     1     -11.361   9.056  70.993  1.00  0.00    -0.278 NA 
BRANCH  10  11
HETATM   11  C   UNL     1     -10.117   8.839  70.236  1.00  0.00    -0.191 C  
HETATM   12  C   UNL     1      -9.413  10.171  69.964  1.00  0.00    -0.086 C  
BRANCH  11  13
HETATM   13  C   UNL     1     -10.332   7.978  68.994  1.00  0.00    -0.228 A  
HETATM   14  C   UNL     1     -10.592   6.603  69.149  1.00  0.00    -0.280 A  
HETATM   15  C   UNL     1     -10.742   5.774  68.037  1.00  0.00    -0.290 A  
HETATM   16  C   UNL     1     -10.642   6.303  66.753  1.00  0.00    -0.335 A  
HETATM   17  C   UNL     1     -10.408   7.663  66.580  1.00  0.00    -0.258 A  
HETATM   18  C   UNL     1     -10.258   8.497  67.690  1.00  0.00    -0.297 A  
ENDBRANCH  11  13
ENDBRANCH  10  11
ENDBRANCH   4   6
ENDBRANCH   3   4
ENDBRANCH   2   3
TORSDOF 5
ENDMDL
MODEL      105
REMARK 921   NORMALIZED FREE ENERGY PREDICTED BY IDOCK:   -4.00 KCAL/MOL
REMARK 922        TOTAL FREE ENERGY PREDICTED BY IDOCK:   -5.71 KCAL/MOL
REMARK 923 INTER-LIGAND FREE ENERGY PREDICTED BY IDOCK:   -5.31 KCAL/MOL
REMARK 924 INTRA-LIGAND FREE ENERGY PREDICTED BY IDOCK:   -0.40 KCAL/MOL
REMARK 927      BINDING AFFINITY PREDICTED BY RF-SCORE:    0.00 PKD
ROOT
HETATM    1  C   UNL     1      -8.082  13.543  67.915  1.00  0.00    -0.165 C  
HETATM    2  C   UNL     1      -8.457  12.322  67.094  1.00  0.00    -0.184 C  
ENDROOT
BRANCH   2   3
HETATM    3  O   UNL     1      -9.207  11.441  67.941  1.00  0.00    -0.155 OA 
BRANCH   3   4
HETATM    4  C   UNL     1     -10.241  10.788  67.340  1.00  0.00    -0.204 C  
HETATM    5  O   UNL     1     -11.222  10.353  67.926  1.00  0.00    -0.305 OA 
BRANCH   4   6
HETATM    6  C   UNL     1     -10.042  10.791  65.914  1.00  0.00    -0.256 A  
HETATM    7  C   UNL     1      -9.161  10.037  65.162  1.00  0.00    -0.204 A  
HETATM    8  N   UNL     1      -9.222  10.360  63.836  1.00  0.00    -0.242 NA 
HETATM    9  C   UNL     1     -10.126  11.306  63.758  1.00  0.00    -0.361 A  
HETATM   10  N   UNL     1     -10.669  11.600  64.979  1.00  0.00    -0.288 NA 
BRANCH  10  11
HETATM   11  C   UNL     1     -11.758  12.559  65.229  1.00  0.00    -0.386 C  
HETATM   12  C   UNL     1     -12.640  12.706  63.986  1.00  0.00    -0.429 C  
BRANCH  11  13
HETATM   13  C   UNL     1     -11.252  13.882  65.799  1.00  0.00    -0.303 A  
HETATM   14  C   UNL     1     -11.597  14.238  67.116  1.00  0.00    -0.402 A  
HETATM   15  C   UNL     1     -11.198  15.462  67.654  1.00  0.00    -0.311 A  
HETATM   16  C   UNL     1     -10.443  16.347  66.890  1.00  0.00    -0.289 A  
HETATM   17  C   UNL     1     -10.073  16.003  65.594  1.00  0.00    -0.384 A  
HETATM   18  C   UNL     1     -10.470  14.779  65.052  1.00  0.00    -0.443 A  
ENDBRANCH  11  13
ENDBRANCH  10  11
ENDBRANCH   4   6
ENDBRANCH   3   4
ENDBRANCH   2   3
TORSDOF 5
ENDMDL
MODEL      106
REMARK 921   NORMALIZED FREE ENERGY PREDICTED BY IDOCK:   -3.97 KCAL/MOL
REMARK 922        TOTAL FREE ENERGY PREDICTED BY IDOCK:   -5.68 KCAL/MOL
REMARK 923 INTER-LIGAND FREE ENERGY PREDICTED BY IDOCK:   -5.22 KCAL/MOL
REMARK 924 INTRA-LIGAND FREE ENERGY PREDICTED BY IDOCK:   -0.46 KCAL/MOL
REMARK 927      BINDING AFFINITY PREDICTED BY RF-SCORE:    0.00 PKD
ROOT
HETATM    1  C   UNL     1      -9.717  20.042  67.795  1.00  0.00    -0.528 C  
HETATM    2  C   UNL     1      -8.442  19.780  67.013  1.00  0.00    -0.319 C  
ENDROOT
BRANCH   2   3
HETATM    3  O   UNL     1      -7.747  18.705  67.659  1.00  0.00    -0.229 OA 
BRANCH   3   4
HETATM    4  C   UNL     1      -7.808  17.502  67.025  1.00  0.00    -0.214 C  
HETATM    5  O   UNL     1      -7.081  17.167  66.099  1.00  0.00    -0.265 OA 
BRANCH   4   6
HETATM    6  C   UNL     1      -8.775  16.664  67.683  1.00  0.00    -0.202 A  
HETATM    7  C   UNL     1      -8.888  16.364  69.028  1.00  0.00    -0.240 A  
HETATM    8  N   UNL     1      -9.904  15.484  69.268  1.00  0.00    -0.252 NA 
HETATM    9  C   UNL     1     -10.420  15.231  68.090  1.00  0.00    -0.246 A  
HETATM   10  N   UNL     1      -9.790  15.927  67.093  1.00  0.00    -0.229 NA 
BRANCH  10  11
HETATM   11  C   UNL     1     -10.171  15.927  65.670  1.00  0.00    -0.379 C  
HETATM   12  C   UNL     1     -11.023  17.155  65.342  1.00  0.00     0.034 C  
BRANCH  11  13
HETATM   13  C   UNL     1     -10.785  14.601  65.230  1.00  0.00    -0.396 A  
HETATM   14  C   UNL     1      -9.942  13.577  64.762  1.00  0.00    -0.156 A  
HETATM   15  C   UNL     1     -10.470  12.370  64.301  1.00  0.00    -0.389 A  
HETATM   16  C   UNL     1     -11.846  12.163  64.307  1.00  0.00    -0.460 A  
HETATM   17  C   UNL     1     -12.694  13.156  64.787  1.00  0.00    -0.373 A  
HETATM   18  C   UNL     1     -12.170  14.364  65.249  1.00  0.00    -0.377 A  
ENDBRANCH  11  13
ENDBRANCH  10  11
ENDBRANCH   4   6
ENDBRANCH   3   4
ENDBRANCH   2   3
TORSDOF 5
ENDMDL
MODEL      107
REMARK 921   NORMALIZED FREE ENERGY PREDICTED BY IDOCK:   -3.97 KCAL/MOL
REMARK 922        TOTAL FREE ENERGY PREDICTED BY IDOCK:   -5.68 KCAL/MOL
REMARK 923 INTER-LIGAND FREE ENERGY PREDICTED BY IDOCK:   -5.18 KCAL/MOL
REMARK 924 INTRA-LIGAND FREE ENERGY PREDICTED BY IDOCK:   -0.50 KCAL/MOL
REMARK 927      BINDING AFFINITY PREDICTED BY RF-SCORE:    0.00 PKD
ROOT
HETATM    1  C   UNL     1      -6.139   8.176  70.861  1.00  0.00    -0.033 C  
HETATM    2  C   UNL     1      -7.579   7.861  70.496  1.00  0.00    -0.081 C  
ENDROOT
BRANCH   2   3
HETATM    3  O   UNL     1      -8.413   8.848  71.119  1.00  0.00    -0.174 OA 
BRANCH   3   4
HETATM    4  C   UNL     1      -8.994   8.469  72.291  1.00  0.00    -0.229 C  
HETATM    5  O   UNL     1      -8.536   8.702  73.401  1.00  0.00    -0.385 OA 
BRANCH   4   6
HETATM    6  C   UNL     1     -10.268   7.858  72.016  1.00  0.00    -0.211 A  
HETATM    7  C   UNL     1     -10.625   6.525  72.104  1.00  0.00    -0.214 A  
HETATM    8  N   UNL     1     -11.915   6.319  71.706  1.00  0.00    -0.305 NA 
HETATM    9  C   UNL     1     -12.361   7.505  71.369  1.00  0.00    -0.345 A  
HETATM   10  N   UNL     1     -11.416   8.479  71.549  1.00  0.00    -0.270 NA 
BRANCH  10  11
HETATM   11  C   UNL     1     -11.616   9.922  71.337  1.00  0.00    -0.352 C  
HETATM   12  C   UNL     1     -12.965  10.367  71.908  1.00  0.00    -0.555 C  
BRANCH  11  13
HETATM   13  C   UNL     1     -11.380  10.337  69.887  1.00  0.00    -0.354 A  
HETATM   14  C   UNL     1     -11.719  11.643  69.484  1.00  0.00    -0.410 A  
HETATM   15  C   UNL     1     -11.567  12.043  68.156  1.00  0.00    -0.403 A  
HETATM   16  C   UNL     1     -11.070  11.150  67.210  1.00  0.00    -0.366 A  
HETATM   17  C   UNL     1     -10.709   9.863  67.595  1.00  0.00    -0.339 A  
HETATM   18  C   UNL     1     -10.859   9.459  68.923  1.00  0.00    -0.151 A  
ENDBRANCH  11  13
ENDBRANCH  10  11
ENDBRANCH   4   6
ENDBRANCH   3   4
ENDBRANCH   2   3
TORSDOF 5
ENDMDL
MODEL      108
REMARK 921   NORMALIZED FREE ENERGY PREDICTED BY IDOCK:   -3.97 KCAL/MOL
REMARK 922        TOTAL FREE ENERGY PREDICTED BY IDOCK:   -5.68 KCAL/MOL
REMARK 923 INTER-LIGAND FREE ENERGY PREDICTED BY IDOCK:   -6.02 KCAL/MOL
REMARK 924 INTRA-LIGAND FREE ENERGY PREDICTED BY IDOCK:    0.34 KCAL/MOL
REMARK 927      BINDING AFFINITY PREDICTED BY RF-SCORE:    0.00 PKD
ROOT
HETATM    1  C   UNL     1      -7.824  17.333  66.350  1.00  0.00    -0.345 C  
HETATM    2  C   UNL     1      -8.390  15.952  66.628  1.00  0.00    -0.293 C  
ENDROOT
BRANCH   2   3
HETATM    3  O   UNL     1      -9.335  16.074  67.699  1.00  0.00    -0.212 OA 
BRANCH   3   4
HETATM    4  C   UNL     1      -9.315  15.069  68.618  1.00  0.00    -0.202 C  
HETATM    5  O   UNL     1      -8.335  14.385  68.878  1.00  0.00    -0.148 OA 
BRANCH   4   6
HETATM    6  C   UNL     1     -10.584  15.017  69.296  1.00  0.00    -0.247 A  
HETATM    7  C   UNL     1     -11.283  16.044  69.904  1.00  0.00    -0.361 A  
HETATM    8  N   UNL     1     -12.430  15.596  70.493  1.00  0.00    -0.419 NA 
HETATM    9  C   UNL     1     -12.450  14.306  70.263  1.00  0.00    -0.361 A  
HETATM   10  N   UNL     1     -11.368  13.898  69.530  1.00  0.00    -0.256 NA 
BRANCH  10  11
HETATM   11  C   UNL     1     -11.126  12.531  69.039  1.00  0.00    -0.234 C  
HETATM   12  C   UNL     1     -11.766  12.334  67.662  1.00  0.00    -0.403 C  
BRANCH  11  13
HETATM   13  C   UNL     1     -11.505  11.467  70.066  1.00  0.00    -0.331 A  
HETATM   14  C   UNL     1     -10.693  10.326  70.202  1.00  0.00    -0.334 A  
HETATM   15  C   UNL     1     -11.035   9.306  71.092  1.00  0.00    -0.409 A  
HETATM   16  C   UNL     1     -12.188   9.412  71.864  1.00  0.00    -0.440 A  
HETATM   17  C   UNL     1     -12.992  10.543  71.759  1.00  0.00    -0.582 A  
HETATM   18  C   UNL     1     -12.653  11.565  70.870  1.00  0.00    -0.438 A  
ENDBRANCH  11  13
ENDBRANCH  10  11
ENDBRANCH   4   6
ENDBRANCH   3   4
ENDBRANCH   2   3
TORSDOF 5
ENDMDL
MODEL      109
REMARK 921   NORMALIZED FREE ENERGY PREDICTED BY IDOCK:   -3.97 KCAL/MOL
REMARK 922        TOTAL FREE ENERGY PREDICTED BY IDOCK:   -5.67 KCAL/MOL
REMARK 923 INTER-LIGAND FREE ENERGY PREDICTED BY IDOCK:   -4.61 KCAL/MOL
REMARK 924 INTRA-LIGAND FREE ENERGY PREDICTED BY IDOCK:   -1.06 KCAL/MOL
REMARK 927      BINDING AFFINITY PREDICTED BY RF-SCORE:    0.00 PKD
ROOT
HETATM    1  C   UNL     1     -10.758   5.631  69.848  1.00  0.00    -0.399 C  
HETATM    2  C   UNL     1      -9.863   6.321  70.862  1.00  0.00    -0.181 C  
ENDROOT
BRANCH   2   3
HETATM    3  O   UNL     1     -10.659   7.288  71.560  1.00  0.00    -0.205 OA 
BRANCH   3   4
HETATM    4  C   UNL     1     -10.127   8.539  71.638  1.00  0.00    -0.268 C  
HETATM    5  O   UNL     1      -8.990   8.789  72.013  1.00  0.00    -0.304 OA 
BRANCH   4   6
HETATM    6  C   UNL     1     -11.070   9.491  71.113  1.00  0.00    -0.379 A  
HETATM    7  C   UNL     1     -12.337   9.800  71.575  1.00  0.00    -0.405 A  
HETATM    8  N   UNL     1     -12.956  10.720  70.779  1.00  0.00    -0.312 NA 
HETATM    9  C   UNL     1     -12.093  10.983  69.828  1.00  0.00    -0.353 A  
HETATM   10  N   UNL     1     -10.928  10.282  69.984  1.00  0.00    -0.292 NA 
BRANCH  10  11
HETATM   11  C   UNL     1      -9.731  10.402  69.134  1.00  0.00    -0.220 C  
HETATM   12  C   UNL     1      -9.785  11.690  68.309  1.00  0.00    -0.197 C  
BRANCH  11  13
HETATM   13  C   UNL     1      -9.469   9.141  68.314  1.00  0.00    -0.152 A  
HETATM   14  C   UNL     1      -8.208   8.523  68.390  1.00  0.00    -0.123 A  
HETATM   15  C   UNL     1      -7.913   7.401  67.615  1.00  0.00    -0.114 A  
HETATM   16  C   UNL     1      -8.874   6.873  66.758  1.00  0.00    -0.129 A  
HETATM   17  C   UNL     1     -10.135   7.457  66.685  1.00  0.00    -0.253 A  
HETATM   18  C   UNL     1     -10.433   8.580  67.459  1.00  0.00    -0.328 A  
ENDBRANCH  11  13
ENDBRANCH  10  11
ENDBRANCH   4   6
ENDBRANCH   3   4
ENDBRANCH   2   3
TORSDOF 5
ENDMDL
MODEL      110
REMARK 921   NORMALIZED FREE ENERGY PREDICTED BY IDOCK:   -3.96 KCAL/MOL
REMARK 922        TOTAL FREE ENERGY PREDICTED BY IDOCK:   -5.67 KCAL/MOL
REMARK 923 INTER-LIGAND FREE ENERGY PREDICTED BY IDOCK:   -5.23 KCAL/MOL
REMARK 924 INTRA-LIGAND FREE ENERGY PREDICTED BY IDOCK:   -0.43 KCAL/MOL
REMARK 927      BINDING AFFINITY PREDICTED BY RF-SCORE:    0.00 PKD
ROOT
HETATM    1  C   UNL     1     -12.509  12.609  65.006  1.00  0.00    -0.556 C  
HETATM    2  C   UNL     1     -12.300  14.003  65.569  1.00  0.00    -0.483 C  
ENDROOT
BRANCH   2   3
HETATM    3  O   UNL     1     -10.888  14.248  65.615  1.00  0.00    -0.292 OA 
BRANCH   3   4
HETATM    4  C   UNL     1     -10.521  15.484  66.055  1.00  0.00    -0.323 C  
HETATM    5  O   UNL     1     -10.243  16.426  65.326  1.00  0.00    -0.575 OA 
BRANCH   4   6
HETATM    6  C   UNL     1     -10.619  15.528  67.490  1.00  0.00    -0.297 A  
HETATM    7  C   UNL     1     -11.474  16.278  68.277  1.00  0.00    -0.207 A  
HETATM    8  N   UNL     1     -11.231  16.093  69.608  1.00  0.00    -0.330 NA 
HETATM    9  C   UNL     1     -10.235  15.243  69.657  1.00  0.00    -0.244 A  
HETATM   10  N   UNL     1      -9.831  14.853  68.409  1.00  0.00    -0.210 NA 
BRANCH  10  11
HETATM   11  C   UNL     1      -8.789  13.854  68.114  1.00  0.00    -0.184 C  
HETATM   12  C   UNL     1      -7.782  14.411  67.105  1.00  0.00    -0.065 C  
BRANCH  11  13
HETATM   13  C   UNL     1      -9.373  12.496  67.734  1.00  0.00    -0.198 A  
HETATM   14  C   UNL     1      -8.778  11.761  66.692  1.00  0.00    -0.186 A  
HETATM   15  C   UNL     1      -9.314  10.541  66.280  1.00  0.00    -0.202 A  
HETATM   16  C   UNL     1     -10.448  10.030  66.906  1.00  0.00    -0.284 A  
HETATM   17  C   UNL     1     -11.037  10.732  67.953  1.00  0.00    -0.369 A  
HETATM   18  C   UNL     1     -10.504  11.953  68.368  1.00  0.00    -0.231 A  
ENDBRANCH  11  13
ENDBRANCH  10  11
ENDBRANCH   4   6
ENDBRANCH   3   4
ENDBRANCH   2   3
TORSDOF 5
ENDMDL
MODEL      111
REMARK 921   NORMALIZED FREE ENERGY PREDICTED BY IDOCK:   -3.95 KCAL/MOL
REMARK 922        TOTAL FREE ENERGY PREDICTED BY IDOCK:   -5.65 KCAL/MOL
REMARK 923 INTER-LIGAND FREE ENERGY PREDICTED BY IDOCK:   -5.05 KCAL/MOL
REMARK 924 INTRA-LIGAND FREE ENERGY PREDICTED BY IDOCK:   -0.60 KCAL/MOL
REMARK 927      BINDING AFFINITY PREDICTED BY RF-SCORE:    0.00 PKD
ROOT
HETATM    1  C   UNL     1     -11.014   6.228  68.499  1.00  0.00    -0.421 C  
HETATM    2  C   UNL     1     -10.903   6.687  67.056  1.00  0.00    -0.397 C  
ENDROOT
BRANCH   2   3
HETATM    3  O   UNL     1     -10.783   8.116  67.060  1.00  0.00    -0.321 OA 
BRANCH   3   4
HETATM    4  C   UNL     1      -9.587   8.606  66.631  1.00  0.00    -0.221 C  
HETATM    5  O   UNL     1      -8.570   7.939  66.500  1.00  0.00    -0.129 OA 
BRANCH   4   6
HETATM    6  C   UNL     1      -9.743   9.987  66.259  1.00  0.00    -0.214 A  
HETATM    7  C   UNL     1     -10.179  10.517  65.058  1.00  0.00    -0.295 A  
HETATM    8  N   UNL     1     -10.140  11.881  65.063  1.00  0.00    -0.260 NA 
HETATM    9  C   UNL     1      -9.683  12.205  66.248  1.00  0.00    -0.238 A  
HETATM   10  N   UNL     1      -9.439  11.104  67.022  1.00  0.00    -0.176 NA 
BRANCH  10  11
HETATM   11  C   UNL     1      -8.991  11.120  68.425  1.00  0.00    -0.165 C  
HETATM   12  C   UNL     1      -7.610  10.474  68.556  1.00  0.00    -0.097 C  
BRANCH  11  13
HETATM   13  C   UNL     1     -10.041  10.557  69.379  1.00  0.00    -0.233 A  
HETATM   14  C   UNL     1     -11.345  11.086  69.355  1.00  0.00    -0.352 A  
HETATM   15  C   UNL     1     -12.318  10.634  70.248  1.00  0.00    -0.406 A  
HETATM   16  C   UNL     1     -12.007   9.642  71.174  1.00  0.00    -0.452 A  
HETATM   17  C   UNL     1     -10.730   9.091  71.198  1.00  0.00    -0.358 A  
HETATM   18  C   UNL     1      -9.754   9.540  70.307  1.00  0.00    -0.314 A  
ENDBRANCH  11  13
ENDBRANCH  10  11
ENDBRANCH   4   6
ENDBRANCH   3   4
ENDBRANCH   2   3
TORSDOF 5
ENDMDL
MODEL      112
REMARK 921   NORMALIZED FREE ENERGY PREDICTED BY IDOCK:   -3.94 KCAL/MOL
REMARK 922        TOTAL FREE ENERGY PREDICTED BY IDOCK:   -5.64 KCAL/MOL
REMARK 923 INTER-LIGAND FREE ENERGY PREDICTED BY IDOCK:   -5.49 KCAL/MOL
REMARK 924 INTRA-LIGAND FREE ENERGY PREDICTED BY IDOCK:   -0.16 KCAL/MOL
REMARK 927      BINDING AFFINITY PREDICTED BY RF-SCORE:    0.00 PKD
ROOT
HETATM    1  C   UNL     1     -11.349  12.332  67.495  1.00  0.00    -0.388 C  
HETATM    2  C   UNL     1     -10.318  12.693  68.550  1.00  0.00    -0.221 C  
ENDROOT
BRANCH   2   3
HETATM    3  O   UNL     1     -10.073  14.102  68.458  1.00  0.00    -0.235 OA 
BRANCH   3   4
HETATM    4  C   UNL     1     -11.159  14.869  68.159  1.00  0.00    -0.283 C  
HETATM    5  O   UNL     1     -12.183  14.912  68.826  1.00  0.00    -0.209 OA 
BRANCH   4   6
HETATM    6  C   UNL     1     -10.864  15.687  67.012  1.00  0.00    -0.294 A  
HETATM    7  C   UNL     1     -10.939  15.356  65.671  1.00  0.00    -0.326 A  
HETATM    8  N   UNL     1     -10.524  16.383  64.873  1.00  0.00    -0.618 NA 
HETATM    9  C   UNL     1     -10.191  17.344  65.700  1.00  0.00    -0.101 A  
HETATM   10  N   UNL     1     -10.388  16.989  67.007  1.00  0.00    -0.309 NA 
BRANCH  10  11
HETATM   11  C   UNL     1     -10.183  17.860  68.176  1.00  0.00    -0.382 C  
HETATM   12  C   UNL     1     -10.768  19.251  67.918  1.00  0.00    -0.417 C  
BRANCH  11  13
HETATM   13  C   UNL     1      -8.733  17.867  68.652  1.00  0.00    -0.270 A  
HETATM   14  C   UNL     1      -8.060  19.096  68.781  1.00  0.00    -0.384 A  
HETATM   15  C   UNL     1      -6.718  19.140  69.162  1.00  0.00    -0.346 A  
HETATM   16  C   UNL     1      -6.029  17.959  69.428  1.00  0.00    -0.237 A  
HETATM   17  C   UNL     1      -6.684  16.736  69.327  1.00  0.00    -0.229 A  
HETATM   18  C   UNL     1      -8.026  16.688  68.946  1.00  0.00    -0.236 A  
ENDBRANCH  11  13
ENDBRANCH  10  11
ENDBRANCH   4   6
ENDBRANCH   3   4
ENDBRANCH   2   3
TORSDOF 5
ENDMDL
MODEL      113
REMARK 921   NORMALIZED FREE ENERGY PREDICTED BY IDOCK:   -3.94 KCAL/MOL
REMARK 922        TOTAL FREE ENERGY PREDICTED BY IDOCK:   -5.64 KCAL/MOL
REMARK 923 INTER-LIGAND FREE ENERGY PREDICTED BY IDOCK:   -4.99 KCAL/MOL
REMARK 924 INTRA-LIGAND FREE ENERGY PREDICTED BY IDOCK:   -0.65 KCAL/MOL
REMARK 927      BINDING AFFINITY PREDICTED BY RF-SCORE:    0.00 PKD
ROOT
HETATM    1  C   UNL     1      -8.840   4.461  71.375  1.00  0.00    -0.147 C  
HETATM    2  C   UNL     1     -10.049   4.601  70.466  1.00  0.00    -0.192 C  
ENDROOT
BRANCH   2   3
HETATM    3  O   UNL     1     -10.974   5.491  71.104  1.00  0.00    -0.221 OA 
BRANCH   3   4
HETATM    4  C   UNL     1     -11.506   6.457  70.303  1.00  0.00    -0.402 C  
HETATM    5  O   UNL     1     -11.300   6.554  69.102  1.00  0.00    -0.320 OA 
BRANCH   4   6
HETATM    6  C   UNL     1     -12.421   7.261  71.070  1.00  0.00    -0.285 A  
HETATM    7  C   UNL     1     -13.750   7.016  71.366  1.00  0.00    -0.195 A  
HETATM    8  N   UNL     1     -14.308   8.041  72.074  1.00  0.00    -0.416 NA 
HETATM    9  C   UNL     1     -13.346   8.920  72.217  1.00  0.00    -0.449 A  
HETATM   10  N   UNL     1     -12.176   8.498  71.644  1.00  0.00    -0.306 NA 
BRANCH  10  11
HETATM   11  C   UNL     1     -10.889   9.213  71.688  1.00  0.00    -0.372 C  
HETATM   12  C   UNL     1     -10.469   9.651  70.283  1.00  0.00    -0.338 C  
BRANCH  11  13
HETATM   13  C   UNL     1      -9.818   8.438  72.451  1.00  0.00    -0.378 A  
HETATM   14  C   UNL     1      -8.499   8.430  71.961  1.00  0.00    -0.245 A  
HETATM   15  C   UNL     1      -7.503   7.690  72.601  1.00  0.00    -0.098 A  
HETATM   16  C   UNL     1      -7.805   6.953  73.743  1.00  0.00    -0.109 A  
HETATM   17  C   UNL     1      -9.099   6.967  74.254  1.00  0.00    -0.250 A  
HETATM   18  C   UNL     1     -10.098   7.706  73.617  1.00  0.00    -0.269 A  
ENDBRANCH  11  13
ENDBRANCH  10  11
ENDBRANCH   4   6
ENDBRANCH   3   4
ENDBRANCH   2   3
TORSDOF 5
ENDMDL
MODEL      114
REMARK 921   NORMALIZED FREE ENERGY PREDICTED BY IDOCK:   -3.94 KCAL/MOL
REMARK 922        TOTAL FREE ENERGY PREDICTED BY IDOCK:   -5.63 KCAL/MOL
REMARK 923 INTER-LIGAND FREE ENERGY PREDICTED BY IDOCK:   -4.81 KCAL/MOL
REMARK 924 INTRA-LIGAND FREE ENERGY PREDICTED BY IDOCK:   -0.83 KCAL/MOL
REMARK 927      BINDING AFFINITY PREDICTED BY RF-SCORE:    0.00 PKD
ROOT
HETATM    1  C   UNL     1     -12.308  10.676  70.883  1.00  0.00    -0.502 C  
HETATM    2  C   UNL     1     -13.128   9.921  71.915  1.00  0.00    -0.459 C  
ENDROOT
BRANCH   2   3
HETATM    3  O   UNL     1     -12.418   8.719  72.242  1.00  0.00    -0.372 OA 
BRANCH   3   4
HETATM    4  C   UNL     1     -12.913   7.576  71.689  1.00  0.00    -0.358 C  
HETATM    5  O   UNL     1     -14.043   7.456  71.238  1.00  0.00    -0.396 OA 
BRANCH   4   6
HETATM    6  C   UNL     1     -11.870   6.586  71.627  1.00  0.00    -0.333 A  
HETATM    7  C   UNL     1     -11.555   5.602  72.546  1.00  0.00    -0.246 A  
HETATM    8  N   UNL     1     -10.459   4.884  72.163  1.00  0.00    -0.206 NA 
HETATM    9  C   UNL     1     -10.088   5.412  71.022  1.00  0.00    -0.216 A  
HETATM   10  N   UNL     1     -10.912   6.435  70.637  1.00  0.00    -0.277 NA 
BRANCH  10  11
HETATM   11  C   UNL     1     -10.818   7.188  69.375  1.00  0.00    -0.206 C  
HETATM   12  C   UNL     1     -11.043   6.261  68.179  1.00  0.00    -0.364 C  
BRANCH  11  13
HETATM   13  C   UNL     1      -9.545   8.026  69.289  1.00  0.00    -0.157 A  
HETATM   14  C   UNL     1      -9.194   8.853  70.372  1.00  0.00    -0.222 A  
HETATM   15  C   UNL     1      -8.067   9.674  70.309  1.00  0.00    -0.206 A  
HETATM   16  C   UNL     1      -7.269   9.678  69.168  1.00  0.00    -0.068 A  
HETATM   17  C   UNL     1      -7.588   8.850  68.097  1.00  0.00    -0.093 A  
HETATM   18  C   UNL     1      -8.714   8.028  68.155  1.00  0.00    -0.126 A  
ENDBRANCH  11  13
ENDBRANCH  10  11
ENDBRANCH   4   6
ENDBRANCH   3   4
ENDBRANCH   2   3
TORSDOF 5
ENDMDL
MODEL      115
REMARK 921   NORMALIZED FREE ENERGY PREDICTED BY IDOCK:   -3.93 KCAL/MOL
REMARK 922        TOTAL FREE ENERGY PREDICTED BY IDOCK:   -5.63 KCAL/MOL
REMARK 923 INTER-LIGAND FREE ENERGY PREDICTED BY IDOCK:   -5.16 KCAL/MOL
REMARK 924 INTRA-LIGAND FREE ENERGY PREDICTED BY IDOCK:   -0.47 KCAL/MOL
REMARK 927      BINDING AFFINITY PREDICTED BY RF-SCORE:    0.00 PKD
ROOT
HETATM    1  C   UNL     1      -9.978  10.752  64.353  1.00  0.00    -0.400 C  
HETATM    2  C   UNL     1     -10.081  10.561  65.856  1.00  0.00    -0.260 C  
ENDROOT
BRANCH   2   3
HETATM    3  O   UNL     1     -10.128   9.151  66.114  1.00  0.00    -0.290 OA 
BRANCH   3   4
HETATM    4  C   UNL     1      -9.291   8.705  67.092  1.00  0.00    -0.151 C  
HETATM    5  O   UNL     1      -8.183   9.171  67.323  1.00  0.00    -0.112 OA 
BRANCH   4   6
HETATM    6  C   UNL     1      -9.956   7.689  67.863  1.00  0.00    -0.169 A  
HETATM    7  C   UNL     1     -10.491   6.488  67.433  1.00  0.00    -0.252 A  
HETATM    8  N   UNL     1     -11.095   5.809  68.452  1.00  0.00    -0.093 NA 
HETATM    9  C   UNL     1     -10.946   6.574  69.506  1.00  0.00    -0.340 A  
HETATM   10  N   UNL     1     -10.252   7.718  69.217  1.00  0.00    -0.207 NA 
BRANCH  10  11
HETATM   11  C   UNL     1      -9.851   8.751  70.187  1.00  0.00    -0.176 C  
HETATM   12  C   UNL     1      -9.036   8.131  71.325  1.00  0.00    -0.179 C  
BRANCH  11  13
HETATM   13  C   UNL     1     -11.029   9.604  70.651  1.00  0.00    -0.386 A  
HETATM   14  C   UNL     1     -11.226  10.872  70.075  1.00  0.00    -0.340 A  
HETATM   15  C   UNL     1     -12.259  11.703  70.510  1.00  0.00    -0.451 A  
HETATM   16  C   UNL     1     -13.117  11.279  71.522  1.00  0.00    -0.459 A  
HETATM   17  C   UNL     1     -12.951  10.019  72.088  1.00  0.00    -0.460 A  
HETATM   18  C   UNL     1     -11.919   9.185  71.655  1.00  0.00    -0.437 A  
ENDBRANCH  11  13
ENDBRANCH  10  11
ENDBRANCH   4   6
ENDBRANCH   3   4
ENDBRANCH   2   3
TORSDOF 5
ENDMDL
MODEL      116
REMARK 921   NORMALIZED FREE ENERGY PREDICTED BY IDOCK:   -3.93 KCAL/MOL
REMARK 922        TOTAL FREE ENERGY PREDICTED BY IDOCK:   -5.62 KCAL/MOL
REMARK 923 INTER-LIGAND FREE ENERGY PREDICTED BY IDOCK:   -4.99 KCAL/MOL
REMARK 924 INTRA-LIGAND FREE ENERGY PREDICTED BY IDOCK:   -0.63 KCAL/MOL
REMARK 927      BINDING AFFINITY PREDICTED BY RF-SCORE:    0.00 PKD
ROOT
HETATM    1  C   UNL     1      -8.351  19.234  68.496  1.00  0.00    -0.401 C  
HETATM    2  C   UNL     1      -9.277  18.173  67.929  1.00  0.00    -0.269 C  
ENDROOT
BRANCH   2   3
HETATM    3  O   UNL     1      -9.848  17.457  69.033  1.00  0.00    -0.283 OA 
BRANCH   3   4
HETATM    4  C   UNL     1      -9.405  16.179  69.196  1.00  0.00    -0.238 C  
HETATM    5  O   UNL     1      -8.245  15.822  69.045  1.00  0.00    -0.199 OA 
BRANCH   4   6
HETATM    6  C   UNL     1     -10.486  15.357  69.672  1.00  0.00    -0.280 A  
HETATM    7  C   UNL     1     -11.114  15.382  70.904  1.00  0.00    -0.332 A  
HETATM    8  N   UNL     1     -12.064  14.406  71.007  1.00  0.00    -0.337 NA 
HETATM    9  C   UNL     1     -12.031  13.775  69.859  1.00  0.00    -0.347 A  
HETATM   10  N   UNL     1     -11.107  14.314  69.004  1.00  0.00    -0.250 NA 
BRANCH  10  11
HETATM   11  C   UNL     1     -10.870  13.889  67.614  1.00  0.00    -0.254 C  
HETATM   12  C   UNL     1     -12.147  14.037  66.782  1.00  0.00    -0.480 C  
BRANCH  11  13
HETATM   13  C   UNL     1     -10.222  12.510  67.528  1.00  0.00    -0.219 A  
HETATM   14  C   UNL     1     -10.966  11.433  67.012  1.00  0.00    -0.347 A  
HETATM   15  C   UNL     1     -10.427  10.146  66.966  1.00  0.00    -0.302 A  
HETATM   16  C   UNL     1      -9.134   9.916  67.427  1.00  0.00    -0.147 A  
HETATM   17  C   UNL     1      -8.374  10.972  67.920  1.00  0.00    -0.124 A  
HETATM   18  C   UNL     1      -8.911  12.260  67.967  1.00  0.00    -0.182 A  
ENDBRANCH  11  13
ENDBRANCH  10  11
ENDBRANCH   4   6
ENDBRANCH   3   4
ENDBRANCH   2   3
TORSDOF 5
ENDMDL
MODEL      117
REMARK 921   NORMALIZED FREE ENERGY PREDICTED BY IDOCK:   -3.93 KCAL/MOL
REMARK 922        TOTAL FREE ENERGY PREDICTED BY IDOCK:   -5.62 KCAL/MOL
REMARK 923 INTER-LIGAND FREE ENERGY PREDICTED BY IDOCK:   -5.09 KCAL/MOL
REMARK 924 INTRA-LIGAND FREE ENERGY PREDICTED BY IDOCK:   -0.53 KCAL/MOL
REMARK 927      BINDING AFFINITY PREDICTED BY RF-SCORE:    0.00 PKD
ROOT
HETATM    1  C   UNL     1     -10.025   1.905  71.659  1.00  0.00    -0.201 C  
HETATM    2  C   UNL     1      -9.739   3.394  71.739  1.00  0.00    -0.166 C  
ENDROOT
BRANCH   2   3
HETATM    3  O   UNL     1     -10.021   3.822  73.078  1.00  0.00    -0.129 OA 
BRANCH   3   4
HETATM    4  C   UNL     1     -10.912   4.847  73.191  1.00  0.00    -0.306 C  
HETATM    5  O   UNL     1     -12.125   4.709  73.255  1.00  0.00    -0.108 OA 
BRANCH   4   6
HETATM    6  C   UNL     1     -10.195   6.087  73.331  1.00  0.00    -0.216 A  
HETATM    7  C   UNL     1      -9.239   6.433  74.269  1.00  0.00    -0.176 A  
HETATM    8  N   UNL     1      -8.824   7.725  74.116  1.00  0.00    -0.243 NA 
HETATM    9  C   UNL     1      -9.512   8.186  73.099  1.00  0.00    -0.246 A  
HETATM   10  N   UNL     1     -10.347   7.237  72.573  1.00  0.00    -0.205 NA 
BRANCH  10  11
HETATM   11  C   UNL     1     -11.200   7.406  71.384  1.00  0.00    -0.246 C  
HETATM   12  C   UNL     1     -10.503   6.848  70.140  1.00  0.00    -0.233 C  
BRANCH  11  13
HETATM   13  C   UNL     1     -11.710   8.836  71.230  1.00  0.00    -0.356 A  
HETATM   14  C   UNL     1     -11.151   9.660  70.236  1.00  0.00    -0.327 A  
HETATM   15  C   UNL     1     -11.553  10.989  70.098  1.00  0.00    -0.421 A  
HETATM   16  C   UNL     1     -12.525  11.515  70.945  1.00  0.00    -0.464 A  
HETATM   17  C   UNL     1     -13.105  10.709  71.919  1.00  0.00    -0.563 A  
HETATM   18  C   UNL     1     -12.705   9.379  72.060  1.00  0.00    -0.483 A  
ENDBRANCH  11  13
ENDBRANCH  10  11
ENDBRANCH   4   6
ENDBRANCH   3   4
ENDBRANCH   2   3
TORSDOF 5
ENDMDL
MODEL      118
REMARK 921   NORMALIZED FREE ENERGY PREDICTED BY IDOCK:   -3.92 KCAL/MOL
REMARK 922        TOTAL FREE ENERGY PREDICTED BY IDOCK:   -5.61 KCAL/MOL
REMARK 923 INTER-LIGAND FREE ENERGY PREDICTED BY IDOCK:   -5.42 KCAL/MOL
REMARK 924 INTRA-LIGAND FREE ENERGY PREDICTED BY IDOCK:   -0.20 KCAL/MOL
REMARK 927      BINDING AFFINITY PREDICTED BY RF-SCORE:    0.00 PKD
ROOT
HETATM    1  C   UNL     1     -12.306  13.859  70.918  1.00  0.00    -0.451 C  
HETATM    2  C   UNL     1     -12.019  13.881  69.427  1.00  0.00    -0.354 C  
ENDROOT
BRANCH   2   3
HETATM    3  O   UNL     1     -11.956  15.253  69.014  1.00  0.00    -0.323 OA 
BRANCH   3   4
HETATM    4  C   UNL     1     -10.831  15.926  69.385  1.00  0.00    -0.288 C  
HETATM    5  O   UNL     1     -10.704  16.540  70.435  1.00  0.00    -0.186 OA 
BRANCH   4   6
HETATM    6  C   UNL     1      -9.800  15.707  68.405  1.00  0.00    -0.206 A  
HETATM    7  C   UNL     1      -9.118  14.540  68.113  1.00  0.00    -0.191 A  
HETATM    8  N   UNL     1      -8.166  14.736  67.154  1.00  0.00    -0.212 NA 
HETATM    9  C   UNL     1      -8.245  16.009  66.851  1.00  0.00    -0.242 A  
HETATM   10  N   UNL     1      -9.225  16.646  67.564  1.00  0.00    -0.206 NA 
BRANCH  10  11
HETATM   11  C   UNL     1      -9.623  18.056  67.411  1.00  0.00    -0.272 C  
HETATM   12  C   UNL     1     -10.361  18.265  66.086  1.00  0.00    -0.414 C  
BRANCH  11  13
HETATM   13  C   UNL     1      -8.460  19.018  67.640  1.00  0.00    -0.316 A  
HETATM   14  C   UNL     1      -8.076  19.889  66.604  1.00  0.00    -0.351 A  
HETATM   15  C   UNL     1      -6.985  20.746  66.756  1.00  0.00    -0.333 A  
HETATM   16  C   UNL     1      -6.264  20.753  67.948  1.00  0.00    -0.366 A  
HETATM   17  C   UNL     1      -6.643  19.915  68.992  1.00  0.00    -0.364 A  
HETATM   18  C   UNL     1      -7.734  19.057  68.843  1.00  0.00    -0.344 A  
ENDBRANCH  11  13
ENDBRANCH  10  11
ENDBRANCH   4   6
ENDBRANCH   3   4
ENDBRANCH   2   3
TORSDOF 5
ENDMDL
MODEL      119
REMARK 921   NORMALIZED FREE ENERGY PREDICTED BY IDOCK:   -3.92 KCAL/MOL
REMARK 922        TOTAL FREE ENERGY PREDICTED BY IDOCK:   -5.61 KCAL/MOL
REMARK 923 INTER-LIGAND FREE ENERGY PREDICTED BY IDOCK:   -5.16 KCAL/MOL
REMARK 924 INTRA-LIGAND FREE ENERGY PREDICTED BY IDOCK:   -0.45 KCAL/MOL
REMARK 927      BINDING AFFINITY PREDICTED BY RF-SCORE:    0.00 PKD
ROOT
HETATM    1  C   UNL     1      -7.669  19.348  68.231  1.00  0.00    -0.356 C  
HETATM    2  C   UNL     1      -7.785  17.841  68.386  1.00  0.00    -0.278 C  
ENDROOT
BRANCH   2   3
HETATM    3  O   UNL     1      -7.282  17.239  67.185  1.00  0.00    -0.155 OA 
BRANCH   3   4
HETATM    4  C   UNL     1      -8.096  16.312  66.608  1.00  0.00    -0.288 C  
HETATM    5  O   UNL     1      -8.789  16.515  65.621  1.00  0.00    -0.428 OA 
BRANCH   4   6
HETATM    6  C   UNL     1      -7.926  15.047  67.274  1.00  0.00    -0.206 A  
HETATM    7  C   UNL     1      -6.753  14.402  67.618  1.00  0.00    -0.169 A  
HETATM    8  N   UNL     1      -6.993  13.186  68.192  1.00  0.00    -0.094 NA 
HETATM    9  C   UNL     1      -8.299  13.068  68.204  1.00  0.00    -0.164 A  
HETATM   10  N   UNL     1      -8.919  14.168  67.676  1.00  0.00    -0.183 NA 
BRANCH  10  11
HETATM   11  C   UNL     1     -10.374  14.387  67.609  1.00  0.00    -0.237 C  
HETATM   12  C   UNL     1     -11.049  13.909  68.897  1.00  0.00    -0.296 C  
BRANCH  11  13
HETATM   13  C   UNL     1     -10.990  13.824  66.331  1.00  0.00    -0.298 A  
HETATM   14  C   UNL     1     -12.391  13.812  66.193  1.00  0.00    -0.496 A  
HETATM   15  C   UNL     1     -12.993  13.258  65.063  1.00  0.00    -0.228 A  
HETATM   16  C   UNL     1     -12.209  12.713  64.050  1.00  0.00    -0.544 A  
HETATM   17  C   UNL     1     -10.822  12.735  64.159  1.00  0.00    -0.437 A  
HETATM   18  C   UNL     1     -10.215  13.289  65.288  1.00  0.00    -0.303 A  
ENDBRANCH  11  13
ENDBRANCH  10  11
ENDBRANCH   4   6
ENDBRANCH   3   4
ENDBRANCH   2   3
TORSDOF 5
ENDMDL
MODEL      120
REMARK 921   NORMALIZED FREE ENERGY PREDICTED BY IDOCK:   -3.90 KCAL/MOL
REMARK 922        TOTAL FREE ENERGY PREDICTED BY IDOCK:   -5.58 KCAL/MOL
REMARK 923 INTER-LIGAND FREE ENERGY PREDICTED BY IDOCK:   -5.98 KCAL/MOL
REMARK 924 INTRA-LIGAND FREE ENERGY PREDICTED BY IDOCK:    0.39 KCAL/MOL
REMARK 927      BINDING AFFINITY PREDICTED BY RF-SCORE:    0.00 PKD
ROOT
HETATM    1  C   UNL     1     -10.380  19.714  67.814  1.00  0.00    -0.586 C  
HETATM    2  C   UNL     1      -9.817  18.421  67.250  1.00  0.00    -0.317 C  
ENDROOT
BRANCH   2   3
HETATM    3  O   UNL     1     -10.575  17.337  67.804  1.00  0.00    -0.361 OA 
BRANCH   3   4
HETATM    4  C   UNL     1     -10.048  16.095  67.615  1.00  0.00    -0.248 C  
HETATM    5  O   UNL     1      -9.043  15.675  68.172  1.00  0.00    -0.179 OA 
BRANCH   4   6
HETATM    6  C   UNL     1     -10.914  15.335  66.752  1.00  0.00    -0.306 A  
HETATM    7  C   UNL     1     -11.019  15.381  65.374  1.00  0.00    -0.368 A  
HETATM    8  N   UNL     1     -11.998  14.547  64.914  1.00  0.00    -0.410 NA 
HETATM    9  C   UNL     1     -12.503  13.989  65.987  1.00  0.00    -0.455 A  
HETATM   10  N   UNL     1     -11.879  14.414  67.129  1.00  0.00    -0.404 NA 
BRANCH  10  11
HETATM   11  C   UNL     1     -12.154  13.929  68.492  1.00  0.00    -0.296 C  
HETATM   12  C   UNL     1     -11.966  15.055  69.511  1.00  0.00    -0.346 C  
BRANCH  11  13
HETATM   13  C   UNL     1     -11.388  12.650  68.821  1.00  0.00    -0.333 A  
HETATM   14  C   UNL     1     -12.031  11.636  69.556  1.00  0.00    -0.383 A  
HETATM   15  C   UNL     1     -11.348  10.476  69.923  1.00  0.00    -0.380 A  
HETATM   16  C   UNL     1     -10.016  10.304  69.556  1.00  0.00    -0.252 A  
HETATM   17  C   UNL     1      -9.371  11.286  68.810  1.00  0.00    -0.136 A  
HETATM   18  C   UNL     1     -10.051  12.448  68.441  1.00  0.00    -0.217 A  
ENDBRANCH  11  13
ENDBRANCH  10  11
ENDBRANCH   4   6
ENDBRANCH   3   4
ENDBRANCH   2   3
TORSDOF 5
ENDMDL
MODEL      121
REMARK 921   NORMALIZED FREE ENERGY PREDICTED BY IDOCK:   -3.89 KCAL/MOL
REMARK 922        TOTAL FREE ENERGY PREDICTED BY IDOCK:   -5.58 KCAL/MOL
REMARK 923 INTER-LIGAND FREE ENERGY PREDICTED BY IDOCK:   -5.25 KCAL/MOL
REMARK 924 INTRA-LIGAND FREE ENERGY PREDICTED BY IDOCK:   -0.33 KCAL/MOL
REMARK 927      BINDING AFFINITY PREDICTED BY RF-SCORE:    0.00 PKD
ROOT
HETATM    1  C   UNL     1     -10.499  16.024  67.883  1.00  0.00    -0.292 C  
HETATM    2  C   UNL     1     -10.307  15.342  66.539  1.00  0.00    -0.289 C  
ENDROOT
BRANCH   2   3
HETATM    3  O   UNL     1     -10.076  13.949  66.785  1.00  0.00    -0.255 OA 
BRANCH   3   4
HETATM    4  C   UNL     1     -11.194  13.187  66.944  1.00  0.00    -0.296 C  
HETATM    5  O   UNL     1     -11.765  13.006  68.010  1.00  0.00    -0.319 OA 
BRANCH   4   6
HETATM    6  C   UNL     1     -11.645  12.729  65.656  1.00  0.00    -0.370 A  
HETATM    7  C   UNL     1     -12.780  13.096  64.956  1.00  0.00    -0.392 A  
HETATM    8  N   UNL     1     -12.900  12.402  63.787  1.00  0.00    -0.781 NA 
HETATM    9  C   UNL     1     -11.858  11.607  63.754  1.00  0.00    -0.279 A  
HETATM   10  N   UNL     1     -11.053  11.770  64.850  1.00  0.00    -0.302 NA 
BRANCH  10  11
HETATM   11  C   UNL     1      -9.770  11.086  65.084  1.00  0.00    -0.254 C  
HETATM   12  C   UNL     1      -9.388  10.231  63.874  1.00  0.00    -0.337 C  
BRANCH  11  13
HETATM   13  C   UNL     1      -9.742  10.338  66.415  1.00  0.00    -0.252 A  
HETATM   14  C   UNL     1      -8.746  10.653  67.357  1.00  0.00    -0.125 A  
HETATM   15  C   UNL     1      -8.655   9.955  68.563  1.00  0.00    -0.117 A  
HETATM   16  C   UNL     1      -9.561   8.938  68.850  1.00  0.00    -0.160 A  
HETATM   17  C   UNL     1     -10.566   8.627  67.940  1.00  0.00    -0.223 A  
HETATM   18  C   UNL     1     -10.660   9.323  66.733  1.00  0.00    -0.207 A  
ENDBRANCH  11  13
ENDBRANCH  10  11
ENDBRANCH   4   6
ENDBRANCH   3   4
ENDBRANCH   2   3
TORSDOF 5
ENDMDL
MODEL      122
REMARK 921   NORMALIZED FREE ENERGY PREDICTED BY IDOCK:   -3.89 KCAL/MOL
REMARK 922        TOTAL FREE ENERGY PREDICTED BY IDOCK:   -5.58 KCAL/MOL
REMARK 923 INTER-LIGAND FREE ENERGY PREDICTED BY IDOCK:   -5.27 KCAL/MOL
REMARK 924 INTRA-LIGAND FREE ENERGY PREDICTED BY IDOCK:   -0.31 KCAL/MOL
REMARK 927      BINDING AFFINITY PREDICTED BY RF-SCORE:    0.00 PKD
ROOT
HETATM    1  C   UNL     1     -12.159  15.021  71.661  1.00  0.00    -0.410 C  
HETATM    2  C   UNL     1     -12.573  14.749  70.225  1.00  0.00    -0.315 C  
ENDROOT
BRANCH   2   3
HETATM    3  O   UNL     1     -12.299  15.931  69.461  1.00  0.00    -0.236 OA 
BRANCH   3   4
HETATM    4  C   UNL     1     -11.025  16.044  68.991  1.00  0.00    -0.296 C  
HETATM    5  O   UNL     1     -10.042  16.239  69.692  1.00  0.00    -0.242 OA 
BRANCH   4   6
HETATM    6  C   UNL     1     -11.015  15.793  67.574  1.00  0.00    -0.293 A  
HETATM    7  C   UNL     1     -11.428  14.663  66.893  1.00  0.00    -0.363 A  
HETATM    8  N   UNL     1     -11.212  14.774  65.549  1.00  0.00    -0.337 NA 
HETATM    9  C   UNL     1     -10.667  15.956  65.389  1.00  0.00    -0.399 A  
HETATM   10  N   UNL     1     -10.536  16.626  66.575  1.00  0.00    -0.252 NA 
BRANCH  10  11
HETATM   11  C   UNL     1     -10.032  18.001  66.736  1.00  0.00    -0.346 C  
HETATM   12  C   UNL     1     -10.884  18.983  65.928  1.00  0.00    -0.272 C  
BRANCH  11  13
HETATM   13  C   UNL     1      -8.532  18.107  66.474  1.00  0.00    -0.283 A  
HETATM   14  C   UNL     1      -8.027  19.256  65.838  1.00  0.00    -0.159 A  
HETATM   15  C   UNL     1      -6.670  19.367  65.533  1.00  0.00    -0.309 A  
HETATM   16  C   UNL     1      -5.794  18.336  65.865  1.00  0.00    -0.237 A  
HETATM   17  C   UNL     1      -6.272  17.202  66.513  1.00  0.00    -0.248 A  
HETATM   18  C   UNL     1      -7.629  17.088  66.820  1.00  0.00    -0.273 A  
ENDBRANCH  11  13
ENDBRANCH  10  11
ENDBRANCH   4   6
ENDBRANCH   3   4
ENDBRANCH   2   3
TORSDOF 5
ENDMDL
MODEL      123
REMARK 921   NORMALIZED FREE ENERGY PREDICTED BY IDOCK:   -3.89 KCAL/MOL
REMARK 922        TOTAL FREE ENERGY PREDICTED BY IDOCK:   -5.58 KCAL/MOL
REMARK 923 INTER-LIGAND FREE ENERGY PREDICTED BY IDOCK:   -5.26 KCAL/MOL
REMARK 924 INTRA-LIGAND FREE ENERGY PREDICTED BY IDOCK:   -0.32 KCAL/MOL
REMARK 927      BINDING AFFINITY PREDICTED BY RF-SCORE:    0.00 PKD
ROOT
HETATM    1  C   UNL     1     -12.010  15.301  70.051  1.00  0.00    -0.375 C  
HETATM    2  C   UNL     1     -12.115  14.228  68.981  1.00  0.00    -0.285 C  
ENDROOT
BRANCH   2   3
HETATM    3  O   UNL     1     -11.376  13.086  69.435  1.00  0.00    -0.254 OA 
BRANCH   3   4
HETATM    4  C   UNL     1     -11.328  12.036  68.569  1.00  0.00    -0.272 C  
HETATM    5  O   UNL     1     -12.253  11.687  67.849  1.00  0.00    -0.560 OA 
BRANCH   4   6
HETATM    6  C   UNL     1      -9.999  11.484  68.561  1.00  0.00    -0.204 A  
HETATM    7  C   UNL     1      -9.509  10.399  69.264  1.00  0.00    -0.198 A  
HETATM    8  N   UNL     1      -8.175  10.211  69.040  1.00  0.00    -0.121 NA 
HETATM    9  C   UNL     1      -7.831  11.167  68.211  1.00  0.00    -0.123 A  
HETATM   10  N   UNL     1      -8.894  11.960  67.873  1.00  0.00    -0.164 NA 
BRANCH  10  11
HETATM   11  C   UNL     1      -8.865  13.074  66.909  1.00  0.00    -0.180 C  
HETATM   12  C   UNL     1      -8.855  14.418  67.642  1.00  0.00    -0.193 C  
BRANCH  11  13
HETATM   13  C   UNL     1      -9.948  12.949  65.841  1.00  0.00    -0.273 A  
HETATM   14  C   UNL     1     -10.079  11.739  65.136  1.00  0.00    -0.298 A  
HETATM   15  C   UNL     1     -11.022  11.604  64.115  1.00  0.00    -0.442 A  
HETATM   16  C   UNL     1     -11.853  12.672  63.788  1.00  0.00    -0.574 A  
HETATM   17  C   UNL     1     -11.753  13.869  64.489  1.00  0.00    -0.430 A  
HETATM   18  C   UNL     1     -10.811  14.008  65.510  1.00  0.00    -0.311 A  
ENDBRANCH  11  13
ENDBRANCH  10  11
ENDBRANCH   4   6
ENDBRANCH   3   4
ENDBRANCH   2   3
TORSDOF 5
ENDMDL
MODEL      124
REMARK 921   NORMALIZED FREE ENERGY PREDICTED BY IDOCK:   -3.89 KCAL/MOL
REMARK 922        TOTAL FREE ENERGY PREDICTED BY IDOCK:   -5.57 KCAL/MOL
REMARK 923 INTER-LIGAND FREE ENERGY PREDICTED BY IDOCK:   -5.06 KCAL/MOL
REMARK 924 INTRA-LIGAND FREE ENERGY PREDICTED BY IDOCK:   -0.51 KCAL/MOL
REMARK 927      BINDING AFFINITY PREDICTED BY RF-SCORE:    0.00 PKD
ROOT
HETATM    1  C   UNL     1     -11.435  12.330  63.534  1.00  0.00    -0.558 C  
HETATM    2  C   UNL     1     -11.686  12.809  64.953  1.00  0.00    -0.352 C  
ENDROOT
BRANCH   2   3
HETATM    3  O   UNL     1     -10.865  13.963  65.176  1.00  0.00    -0.320 OA 
BRANCH   3   4
HETATM    4  C   UNL     1     -10.823  14.415  66.460  1.00  0.00    -0.310 C  
HETATM    5  O   UNL     1     -11.618  15.210  66.942  1.00  0.00    -0.285 OA 
BRANCH   4   6
HETATM    6  C   UNL     1      -9.775  13.733  67.172  1.00  0.00    -0.244 A  
HETATM    7  C   UNL     1      -8.413  13.967  67.140  1.00  0.00    -0.190 A  
HETATM    8  N   UNL     1      -7.728  13.074  67.913  1.00  0.00    -0.129 NA 
HETATM    9  C   UNL     1      -8.645  12.287  68.420  1.00  0.00    -0.136 A  
HETATM   10  N   UNL     1      -9.905  12.645  68.021  1.00  0.00    -0.212 NA 
BRANCH  10  11
HETATM   11  C   UNL     1     -11.160  12.016  68.466  1.00  0.00    -0.244 C  
HETATM   12  C   UNL     1     -11.805  12.838  69.585  1.00  0.00    -0.384 C  
BRANCH  11  13
HETATM   13  C   UNL     1     -10.986  10.536  68.796  1.00  0.00    -0.296 A  
HETATM   14  C   UNL     1     -11.125  10.109  70.130  1.00  0.00    -0.378 A  
HETATM   15  C   UNL     1     -10.921   8.773  70.479  1.00  0.00    -0.272 A  
HETATM   16  C   UNL     1     -10.583   7.841  69.502  1.00  0.00    -0.221 A  
HETATM   17  C   UNL     1     -10.464   8.240  68.175  1.00  0.00    -0.226 A  
HETATM   18  C   UNL     1     -10.667   9.575  67.821  1.00  0.00    -0.302 A  
ENDBRANCH  11  13
ENDBRANCH  10  11
ENDBRANCH   4   6
ENDBRANCH   3   4
ENDBRANCH   2   3
TORSDOF 5
ENDMDL
MODEL      125
REMARK 921   NORMALIZED FREE ENERGY PREDICTED BY IDOCK:   -3.88 KCAL/MOL
REMARK 922        TOTAL FREE ENERGY PREDICTED BY IDOCK:   -5.56 KCAL/MOL
REMARK 923 INTER-LIGAND FREE ENERGY PREDICTED BY IDOCK:   -4.96 KCAL/MOL
REMARK 924 INTRA-LIGAND FREE ENERGY PREDICTED BY IDOCK:   -0.60 KCAL/MOL
REMARK 927      BINDING AFFINITY PREDICTED BY RF-SCORE:    0.00 PKD
ROOT
HETATM    1  C   UNL     1     -13.412  15.408  71.610  1.00  0.00    -0.593 C  
HETATM    2  C   UNL     1     -12.870  14.256  70.782  1.00  0.00    -0.337 C  
ENDROOT
BRANCH   2   3
HETATM    3  O   UNL     1     -11.511  14.562  70.445  1.00  0.00    -0.261 OA 
BRANCH   3   4
HETATM    4  C   UNL     1     -11.258  14.726  69.116  1.00  0.00    -0.271 C  
HETATM    5  O   UNL     1     -12.021  15.262  68.325  1.00  0.00    -0.297 OA 
BRANCH   4   6
HETATM    6  C   UNL     1      -9.923  14.272  68.825  1.00  0.00    -0.205 A  
HETATM    7  C   UNL     1      -8.724  14.937  69.006  1.00  0.00    -0.177 A  
HETATM    8  N   UNL     1      -7.665  14.201  68.559  1.00  0.00    -0.133 NA 
HETATM    9  C   UNL     1      -8.191  13.092  68.099  1.00  0.00    -0.157 A  
HETATM   10  N   UNL     1      -9.551  13.069  68.246  1.00  0.00    -0.222 NA 
BRANCH  10  11
HETATM   11  C   UNL     1     -10.436  11.943  67.902  1.00  0.00    -0.204 C  
HETATM   12  C   UNL     1     -10.440  10.901  69.024  1.00  0.00    -0.244 C  
BRANCH  11  13
HETATM   13  C   UNL     1     -10.143  11.373  66.517  1.00  0.00    -0.250 A  
HETATM   14  C   UNL     1     -10.552  12.092  65.379  1.00  0.00    -0.309 A  
HETATM   15  C   UNL     1     -10.349  11.579  64.097  1.00  0.00    -0.386 A  
HETATM   16  C   UNL     1      -9.729  10.344  63.930  1.00  0.00    -0.367 A  
HETATM   17  C   UNL     1      -9.298   9.628  65.042  1.00  0.00    -0.319 A  
HETATM   18  C   UNL     1      -9.499  10.138  66.326  1.00  0.00    -0.229 A  
ENDBRANCH  11  13
ENDBRANCH  10  11
ENDBRANCH   4   6
ENDBRANCH   3   4
ENDBRANCH   2   3
TORSDOF 5
ENDMDL
MODEL      126
REMARK 921   NORMALIZED FREE ENERGY PREDICTED BY IDOCK:   -3.87 KCAL/MOL
REMARK 922        TOTAL FREE ENERGY PREDICTED BY IDOCK:   -5.55 KCAL/MOL
REMARK 923 INTER-LIGAND FREE ENERGY PREDICTED BY IDOCK:   -5.16 KCAL/MOL
REMARK 924 INTRA-LIGAND FREE ENERGY PREDICTED BY IDOCK:   -0.38 KCAL/MOL
REMARK 927      BINDING AFFINITY PREDICTED BY RF-SCORE:    0.00 PKD
ROOT
HETATM    1  C   UNL     1     -12.065  14.700  64.556  1.00  0.00    -0.490 C  
HETATM    2  C   UNL     1     -11.970  13.559  65.553  1.00  0.00    -0.390 C  
ENDROOT
BRANCH   2   3
HETATM    3  O   UNL     1     -12.366  14.066  66.835  1.00  0.00    -0.418 OA 
BRANCH   3   4
HETATM    4  C   UNL     1     -11.922  13.356  67.910  1.00  0.00    -0.323 C  
HETATM    5  O   UNL     1     -11.750  12.145  67.919  1.00  0.00    -0.334 OA 
BRANCH   4   6
HETATM    6  C   UNL     1     -11.592  14.263  68.977  1.00  0.00    -0.305 A  
HETATM    7  C   UNL     1     -12.335  14.587  70.098  1.00  0.00    -0.342 A  
HETATM    8  N   UNL     1     -11.714  15.534  70.860  1.00  0.00    -0.336 NA 
HETATM    9  C   UNL     1     -10.598  15.803  70.227  1.00  0.00    -0.284 A  
HETATM   10  N   UNL     1     -10.461  15.055  69.088  1.00  0.00    -0.240 NA 
BRANCH  10  11
HETATM   11  C   UNL     1      -9.293  15.061  68.191  1.00  0.00    -0.187 C  
HETATM   12  C   UNL     1      -8.424  13.825  68.433  1.00  0.00    -0.154 C  
BRANCH  11  13
HETATM   13  C   UNL     1      -8.531  16.383  68.232  1.00  0.00    -0.195 A  
HETATM   14  C   UNL     1      -8.795  17.357  67.251  1.00  0.00    -0.238 A  
HETATM   15  C   UNL     1      -8.081  18.556  67.224  1.00  0.00    -0.245 A  
HETATM   16  C   UNL     1      -7.099  18.805  68.179  1.00  0.00    -0.269 A  
HETATM   17  C   UNL     1      -6.840  17.863  69.170  1.00  0.00    -0.219 A  
HETATM   18  C   UNL     1      -7.552  16.663  69.200  1.00  0.00    -0.192 A  
ENDBRANCH  11  13
ENDBRANCH  10  11
ENDBRANCH   4   6
ENDBRANCH   3   4
ENDBRANCH   2   3
TORSDOF 5
ENDMDL
MODEL      127
REMARK 921   NORMALIZED FREE ENERGY PREDICTED BY IDOCK:   -3.87 KCAL/MOL
REMARK 922        TOTAL FREE ENERGY PREDICTED BY IDOCK:   -5.54 KCAL/MOL
REMARK 923 INTER-LIGAND FREE ENERGY PREDICTED BY IDOCK:   -4.96 KCAL/MOL
REMARK 924 INTRA-LIGAND FREE ENERGY PREDICTED BY IDOCK:   -0.58 KCAL/MOL
REMARK 927      BINDING AFFINITY PREDICTED BY RF-SCORE:    0.00 PKD
ROOT
HETATM    1  C   UNL     1     -11.175   6.138  70.763  1.00  0.00    -0.373 C  
HETATM    2  C   UNL     1     -10.135   7.213  70.501  1.00  0.00    -0.195 C  
ENDROOT
BRANCH   2   3
HETATM    3  O   UNL     1     -10.687   8.132  69.549  1.00  0.00    -0.227 OA 
BRANCH   3   4
HETATM    4  C   UNL     1     -10.606   9.449  69.889  1.00  0.00    -0.234 C  
HETATM    5  O   UNL     1     -11.353  10.009  70.679  1.00  0.00    -0.297 OA 
BRANCH   4   6
HETATM    6  C   UNL     1      -9.451  10.033  69.260  1.00  0.00    -0.217 A  
HETATM    7  C   UNL     1      -8.238  10.377  69.828  1.00  0.00    -0.018 A  
HETATM    8  N   UNL     1      -7.402  10.962  68.920  1.00  0.00    -0.102 NA 
HETATM    9  C   UNL     1      -8.081  10.989  67.799  1.00  0.00    -0.116 A  
HETATM   10  N   UNL     1      -9.322  10.427  67.937  1.00  0.00    -0.138 NA 
BRANCH  10  11
HETATM   11  C   UNL     1     -10.304  10.232  66.857  1.00  0.00    -0.239 C  
HETATM   12  C   UNL     1      -9.671   9.476  65.686  1.00  0.00    -0.361 C  
BRANCH  11  13
HETATM   13  C   UNL     1     -11.002  11.531  66.462  1.00  0.00    -0.346 A  
HETATM   14  C   UNL     1     -11.463  12.396  67.471  1.00  0.00    -0.410 A  
HETATM   15  C   UNL     1     -12.153  13.566  67.151  1.00  0.00    -0.386 A  
HETATM   16  C   UNL     1     -12.387  13.895  65.819  1.00  0.00    -0.518 A  
HETATM   17  C   UNL     1     -11.920  13.063  64.806  1.00  0.00    -0.443 A  
HETATM   18  C   UNL     1     -11.229  11.892  65.123  1.00  0.00    -0.346 A  
ENDBRANCH  11  13
ENDBRANCH  10  11
ENDBRANCH   4   6
ENDBRANCH   3   4
ENDBRANCH   2   3
TORSDOF 5
ENDMDL
MODEL      128
REMARK 921   NORMALIZED FREE ENERGY PREDICTED BY IDOCK:   -3.84 KCAL/MOL
REMARK 922        TOTAL FREE ENERGY PREDICTED BY IDOCK:   -5.52 KCAL/MOL
REMARK 923 INTER-LIGAND FREE ENERGY PREDICTED BY IDOCK:   -4.72 KCAL/MOL
REMARK 924 INTRA-LIGAND FREE ENERGY PREDICTED BY IDOCK:   -0.80 KCAL/MOL
REMARK 927      BINDING AFFINITY PREDICTED BY RF-SCORE:    0.00 PKD
ROOT
HETATM    1  C   UNL     1      -7.717  10.136  69.386  1.00  0.00    -0.138 C  
HETATM    2  C   UNL     1      -7.391   9.139  70.485  1.00  0.00    -0.103 C  
ENDROOT
BRANCH   2   3
HETATM    3  O   UNL     1      -7.233   7.852  69.873  1.00  0.00    -0.063 OA 
BRANCH   3   4
HETATM    4  C   UNL     1      -7.778   6.806  70.556  1.00  0.00    -0.104 C  
HETATM    5  O   UNL     1      -7.340   6.359  71.607  1.00  0.00    -0.085 OA 
BRANCH   4   6
HETATM    6  C   UNL     1      -8.994   6.394  69.906  1.00  0.00    -0.142 A  
HETATM    7  C   UNL     1      -9.156   5.816  68.660  1.00  0.00    -0.114 A  
HETATM    8  N   UNL     1     -10.474   5.616  68.363  1.00  0.00    -0.203 NA 
HETATM    9  C   UNL     1     -11.130   6.067  69.404  1.00  0.00    -0.375 A  
HETATM   10  N   UNL     1     -10.290   6.536  70.377  1.00  0.00    -0.193 NA 
BRANCH  10  11
HETATM   11  C   UNL     1     -10.700   7.041  71.698  1.00  0.00    -0.220 C  
HETATM   12  C   UNL     1     -11.323   5.919  72.532  1.00  0.00    -0.352 C  
BRANCH  11  13
HETATM   13  C   UNL     1     -11.556   8.301  71.601  1.00  0.00    -0.337 A  
HETATM   14  C   UNL     1     -11.070   9.407  70.879  1.00  0.00    -0.389 A  
HETATM   15  C   UNL     1     -11.800  10.594  70.812  1.00  0.00    -0.459 A  
HETATM   16  C   UNL     1     -13.029  10.696  71.458  1.00  0.00    -0.566 A  
HETATM   17  C   UNL     1     -13.535   9.606  72.159  1.00  0.00    -0.516 A  
HETATM   18  C   UNL     1     -12.809   8.416  72.228  1.00  0.00    -0.359 A  
ENDBRANCH  11  13
ENDBRANCH  10  11
ENDBRANCH   4   6
ENDBRANCH   3   4
ENDBRANCH   2   3
TORSDOF 5
ENDMDL
MODEL      129
REMARK 921   NORMALIZED FREE ENERGY PREDICTED BY IDOCK:   -3.84 KCAL/MOL
REMARK 922        TOTAL FREE ENERGY PREDICTED BY IDOCK:   -5.51 KCAL/MOL
REMARK 923 INTER-LIGAND FREE ENERGY PREDICTED BY IDOCK:   -5.53 KCAL/MOL
REMARK 924 INTRA-LIGAND FREE ENERGY PREDICTED BY IDOCK:    0.02 KCAL/MOL
REMARK 927      BINDING AFFINITY PREDICTED BY RF-SCORE:    0.00 PKD
ROOT
HETATM    1  C   UNL     1     -12.838  11.882  63.624  1.00  0.00    -0.429 C  
HETATM    2  C   UNL     1     -12.876  12.948  64.705  1.00  0.00    -0.283 C  
ENDROOT
BRANCH   2   3
HETATM    3  O   UNL     1     -11.867  12.627  65.672  1.00  0.00    -0.392 OA 
BRANCH   3   4
HETATM    4  C   UNL     1     -10.592  12.952  65.320  1.00  0.00    -0.297 C  
HETATM    5  O   UNL     1      -9.824  12.208  64.725  1.00  0.00    -0.225 OA 
BRANCH   4   6
HETATM    6  C   UNL     1     -10.339  14.328  65.660  1.00  0.00    -0.336 A  
HETATM    7  C   UNL     1     -10.603  15.465  64.919  1.00  0.00    -0.352 A  
HETATM    8  N   UNL     1     -10.169  16.594  65.552  1.00  0.00    -0.596 NA 
HETATM    9  C   UNL     1      -9.637  16.172  66.674  1.00  0.00    -0.244 A  
HETATM   10  N   UNL     1      -9.723  14.812  66.803  1.00  0.00    -0.244 NA 
BRANCH  10  11
HETATM   11  C   UNL     1      -9.289  14.030  67.973  1.00  0.00    -0.205 C  
HETATM   12  C   UNL     1      -8.376  12.880  67.541  1.00  0.00    -0.183 C  
BRANCH  11  13
HETATM   13  C   UNL     1     -10.459  13.604  68.857  1.00  0.00    -0.167 A  
HETATM   14  C   UNL     1     -11.193  14.589  69.543  1.00  0.00    -0.300 A  
HETATM   15  C   UNL     1     -12.236  14.235  70.401  1.00  0.00    -0.411 A  
HETATM   16  C   UNL     1     -12.566  12.895  70.583  1.00  0.00    -0.256 A  
HETATM   17  C   UNL     1     -11.865  11.909  69.896  1.00  0.00    -0.418 A  
HETATM   18  C   UNL     1     -10.822  12.258  69.036  1.00  0.00    -0.197 A  
ENDBRANCH  11  13
ENDBRANCH  10  11
ENDBRANCH   4   6
ENDBRANCH   3   4
ENDBRANCH   2   3
TORSDOF 5
ENDMDL
MODEL      130
REMARK 921   NORMALIZED FREE ENERGY PREDICTED BY IDOCK:   -3.84 KCAL/MOL
REMARK 922        TOTAL FREE ENERGY PREDICTED BY IDOCK:   -5.51 KCAL/MOL
REMARK 923 INTER-LIGAND FREE ENERGY PREDICTED BY IDOCK:   -5.52 KCAL/MOL
REMARK 924 INTRA-LIGAND FREE ENERGY PREDICTED BY IDOCK:    0.01 KCAL/MOL
REMARK 927      BINDING AFFINITY PREDICTED BY RF-SCORE:    0.00 PKD
ROOT
HETATM    1  C   UNL     1     -13.304  15.367  71.725  1.00  0.00    -0.567 C  
HETATM    2  C   UNL     1     -12.842  14.234  70.826  1.00  0.00    -0.337 C  
ENDROOT
BRANCH   2   3
HETATM    3  O   UNL     1     -11.469  14.474  70.490  1.00  0.00    -0.259 OA 
BRANCH   3   4
HETATM    4  C   UNL     1     -11.234  14.826  69.196  1.00  0.00    -0.271 C  
HETATM    5  O   UNL     1     -11.995  15.491  68.508  1.00  0.00    -0.319 OA 
BRANCH   4   6
HETATM    6  C   UNL     1      -9.917  14.388  68.814  1.00  0.00    -0.223 A  
HETATM    7  C   UNL     1      -8.709  15.044  68.964  1.00  0.00    -0.203 A  
HETATM    8  N   UNL     1      -7.676  14.331  68.426  1.00  0.00    -0.126 NA 
HETATM    9  C   UNL     1      -8.227  13.245  67.942  1.00  0.00    -0.163 A  
HETATM   10  N   UNL     1      -9.578  13.214  68.159  1.00  0.00    -0.223 NA 
BRANCH  10  11
HETATM   11  C   UNL     1     -10.481  12.105  67.807  1.00  0.00    -0.205 C  
HETATM   12  C   UNL     1     -11.742  12.636  67.120  1.00  0.00    -0.438 C  
BRANCH  11  13
HETATM   13  C   UNL     1     -10.754  11.178  68.989  1.00  0.00    -0.265 A  
HETATM   14  C   UNL     1     -12.008  11.229  69.625  1.00  0.00    -0.423 A  
HETATM   15  C   UNL     1     -12.277  10.435  70.741  1.00  0.00    -0.457 A  
HETATM   16  C   UNL     1     -11.302   9.572  71.235  1.00  0.00    -0.446 A  
HETATM   17  C   UNL     1     -10.064   9.492  70.605  1.00  0.00    -0.353 A  
HETATM   18  C   UNL     1      -9.791  10.285  69.489  1.00  0.00    -0.244 A  
ENDBRANCH  11  13
ENDBRANCH  10  11
ENDBRANCH   4   6
ENDBRANCH   3   4
ENDBRANCH   2   3
TORSDOF 5
ENDMDL
MODEL      131
REMARK 921   NORMALIZED FREE ENERGY PREDICTED BY IDOCK:   -3.83 KCAL/MOL
REMARK 922        TOTAL FREE ENERGY PREDICTED BY IDOCK:   -5.49 KCAL/MOL
REMARK 923 INTER-LIGAND FREE ENERGY PREDICTED BY IDOCK:   -5.63 KCAL/MOL
REMARK 924 INTRA-LIGAND FREE ENERGY PREDICTED BY IDOCK:    0.14 KCAL/MOL
REMARK 927      BINDING AFFINITY PREDICTED BY RF-SCORE:    0.00 PKD
ROOT
HETATM    1  C   UNL     1     -11.479  15.149  64.628  1.00  0.00    -0.363 C  
HETATM    2  C   UNL     1     -10.193  14.686  65.291  1.00  0.00    -0.391 C  
ENDROOT
BRANCH   2   3
HETATM    3  O   UNL     1     -10.440  13.400  65.874  1.00  0.00    -0.277 OA 
BRANCH   3   4
HETATM    4  C   UNL     1     -11.715  13.186  66.305  1.00  0.00    -0.375 C  
HETATM    5  O   UNL     1     -12.587  12.636  65.648  1.00  0.00    -0.611 OA 
BRANCH   4   6
HETATM    6  C   UNL     1     -11.831  13.608  67.676  1.00  0.00    -0.369 A  
HETATM    7  C   UNL     1     -11.908  14.893  68.182  1.00  0.00    -0.278 A  
HETATM    8  N   UNL     1     -11.954  14.897  69.547  1.00  0.00    -0.309 NA 
HETATM    9  C   UNL     1     -11.903  13.634  69.893  1.00  0.00    -0.320 A  
HETATM   10  N   UNL     1     -11.842  12.805  68.806  1.00  0.00    -0.315 NA 
BRANCH  10  11
HETATM   11  C   UNL     1     -11.849  11.333  68.844  1.00  0.00    -0.345 C  
HETATM   12  C   UNL     1     -12.110  10.834  70.267  1.00  0.00    -0.433 C  
BRANCH  11  13
HETATM   13  C   UNL     1     -10.613  10.727  68.183  1.00  0.00    -0.238 A  
HETATM   14  C   UNL     1     -10.779   9.728  67.206  1.00  0.00    -0.296 A  
HETATM   15  C   UNL     1      -9.673   9.112  66.618  1.00  0.00    -0.287 A  
HETATM   16  C   UNL     1      -8.385   9.489  66.989  1.00  0.00    -0.124 A  
HETATM   17  C   UNL     1      -8.202  10.490  67.937  1.00  0.00    -0.107 A  
HETATM   18  C   UNL     1      -9.306  11.109  68.528  1.00  0.00    -0.190 A  
ENDBRANCH  11  13
ENDBRANCH  10  11
ENDBRANCH   4   6
ENDBRANCH   3   4
ENDBRANCH   2   3
TORSDOF 5
ENDMDL
MODEL      132
REMARK 921   NORMALIZED FREE ENERGY PREDICTED BY IDOCK:   -3.83 KCAL/MOL
REMARK 922        TOTAL FREE ENERGY PREDICTED BY IDOCK:   -5.49 KCAL/MOL
REMARK 923 INTER-LIGAND FREE ENERGY PREDICTED BY IDOCK:   -4.97 KCAL/MOL
REMARK 924 INTRA-LIGAND FREE ENERGY PREDICTED BY IDOCK:   -0.52 KCAL/MOL
REMARK 927      BINDING AFFINITY PREDICTED BY RF-SCORE:    0.00 PKD
ROOT
HETATM    1  C   UNL     1      -6.187  14.597  70.163  1.00  0.00    -0.165 C  
HETATM    2  C   UNL     1      -6.977  13.982  69.021  1.00  0.00    -0.112 C  
ENDROOT
BRANCH   2   3
HETATM    3  O   UNL     1      -7.979  14.928  68.625  1.00  0.00    -0.129 OA 
BRANCH   3   4
HETATM    4  C   UNL     1      -7.618  15.783  67.628  1.00  0.00    -0.156 C  
HETATM    5  O   UNL     1      -6.655  15.624  66.891  1.00  0.00    -0.258 OA 
BRANCH   4   6
HETATM    6  C   UNL     1      -8.601  16.829  67.517  1.00  0.00    -0.194 A  
HETATM    7  C   UNL     1      -8.632  18.059  68.148  1.00  0.00    -0.273 A  
HETATM    8  N   UNL     1      -9.759  18.761  67.833  1.00  0.00    -0.316 NA 
HETATM    9  C   UNL     1     -10.430  17.983  67.019  1.00  0.00    -0.351 A  
HETATM   10  N   UNL     1      -9.773  16.806  66.778  1.00  0.00    -0.252 NA 
BRANCH  10  11
HETATM   11  C   UNL     1     -10.216  15.747  65.855  1.00  0.00    -0.355 C  
HETATM   12  C   UNL     1     -11.156  16.320  64.791  1.00  0.00    -0.293 C  
BRANCH  11  13
HETATM   13  C   UNL     1     -10.767  14.527  66.588  1.00  0.00    -0.305 A  
HETATM   14  C   UNL     1     -11.460  14.709  67.798  1.00  0.00    -0.359 A  
HETATM   15  C   UNL     1     -11.932  13.615  68.524  1.00  0.00    -0.396 A  
HETATM   16  C   UNL     1     -11.727  12.322  68.051  1.00  0.00    -0.417 A  
HETATM   17  C   UNL     1     -11.063  12.123  66.845  1.00  0.00    -0.348 A  
HETATM   18  C   UNL     1     -10.589  13.215  66.115  1.00  0.00    -0.288 A  
ENDBRANCH  11  13
ENDBRANCH  10  11
ENDBRANCH   4   6
ENDBRANCH   3   4
ENDBRANCH   2   3
TORSDOF 5
ENDMDL
MODEL      133
REMARK 921   NORMALIZED FREE ENERGY PREDICTED BY IDOCK:   -3.81 KCAL/MOL
REMARK 922        TOTAL FREE ENERGY PREDICTED BY IDOCK:   -5.48 KCAL/MOL
REMARK 923 INTER-LIGAND FREE ENERGY PREDICTED BY IDOCK:   -4.75 KCAL/MOL
REMARK 924 INTRA-LIGAND FREE ENERGY PREDICTED BY IDOCK:   -0.73 KCAL/MOL
REMARK 927      BINDING AFFINITY PREDICTED BY RF-SCORE:    0.00 PKD
ROOT
HETATM    1  C   UNL     1      -7.925  15.911  69.145  1.00  0.00    -0.233 C  
HETATM    2  C   UNL     1      -6.647  15.092  69.137  1.00  0.00    -0.120 C  
ENDROOT
BRANCH   2   3
HETATM    3  O   UNL     1      -7.011  13.714  69.293  1.00  0.00    -0.098 OA 
BRANCH   3   4
HETATM    4  C   UNL     1      -7.218  13.026  68.135  1.00  0.00    -0.116 C  
HETATM    5  O   UNL     1      -6.602  13.215  67.096  1.00  0.00    -0.192 OA 
BRANCH   4   6
HETATM    6  C   UNL     1      -8.186  11.986  68.365  1.00  0.00    -0.151 A  
HETATM    7  C   UNL     1      -7.995  10.734  68.920  1.00  0.00    -0.143 A  
HETATM    8  N   UNL     1      -9.147  10.001  68.922  1.00  0.00    -0.150 NA 
HETATM    9  C   UNL     1     -10.047  10.779  68.373  1.00  0.00    -0.169 A  
HETATM   10  N   UNL     1      -9.530  11.999  68.029  1.00  0.00    -0.193 NA 
BRANCH  10  11
HETATM   11  C   UNL     1     -10.289  13.126  67.461  1.00  0.00    -0.225 C  
HETATM   12  C   UNL     1     -11.287  13.672  68.485  1.00  0.00    -0.325 C  
BRANCH  11  13
HETATM   13  C   UNL     1     -10.902  12.792  66.104  1.00  0.00    -0.303 A  
HETATM   14  C   UNL     1     -10.072  12.303  65.078  1.00  0.00    -0.277 A  
HETATM   15  C   UNL     1     -10.586  12.037  63.808  1.00  0.00    -0.478 A  
HETATM   16  C   UNL     1     -11.936  12.247  63.543  1.00  0.00    -0.625 A  
HETATM   17  C   UNL     1     -12.777  12.708  64.551  1.00  0.00    -0.439 A  
HETATM   18  C   UNL     1     -12.267  12.976  65.823  1.00  0.00    -0.511 A  
ENDBRANCH  11  13
ENDBRANCH  10  11
ENDBRANCH   4   6
ENDBRANCH   3   4
ENDBRANCH   2   3
TORSDOF 5
ENDMDL
MODEL      134
REMARK 921   NORMALIZED FREE ENERGY PREDICTED BY IDOCK:   -3.80 KCAL/MOL
REMARK 922        TOTAL FREE ENERGY PREDICTED BY IDOCK:   -5.46 KCAL/MOL
REMARK 923 INTER-LIGAND FREE ENERGY PREDICTED BY IDOCK:   -5.26 KCAL/MOL
REMARK 924 INTRA-LIGAND FREE ENERGY PREDICTED BY IDOCK:   -0.20 KCAL/MOL
REMARK 927      BINDING AFFINITY PREDICTED BY RF-SCORE:    0.00 PKD
ROOT
HETATM    1  C   UNL     1      -5.997  16.364  70.078  1.00  0.00    -0.174 C  
HETATM    2  C   UNL     1      -6.342  14.886  70.028  1.00  0.00    -0.162 C  
ENDROOT
BRANCH   2   3
HETATM    3  O   UNL     1      -7.450  14.726  69.133  1.00  0.00    -0.137 OA 
BRANCH   3   4
HETATM    4  C   UNL     1      -7.189  14.988  67.822  1.00  0.00    -0.168 C  
HETATM    5  O   UNL     1      -6.139  14.718  67.256  1.00  0.00    -0.306 OA 
BRANCH   4   6
HETATM    6  C   UNL     1      -8.370  15.524  67.199  1.00  0.00    -0.214 A  
HETATM    7  C   UNL     1      -8.470  16.534  66.259  1.00  0.00    -0.328 A  
HETATM    8  N   UNL     1      -9.770  16.806  65.944  1.00  0.00    -0.514 NA 
HETATM    9  C   UNL     1     -10.478  15.982  66.678  1.00  0.00    -0.304 A  
HETATM   10  N   UNL     1      -9.687  15.171  67.447  1.00  0.00    -0.209 NA 
BRANCH  10  11
HETATM   11  C   UNL     1     -10.161  14.088  68.326  1.00  0.00    -0.249 C  
HETATM   12  C   UNL     1     -10.826  12.981  67.503  1.00  0.00    -0.264 C  
BRANCH  11  13
HETATM   13  C   UNL     1     -11.010  14.606  69.484  1.00  0.00    -0.269 A  
HETATM   14  C   UNL     1     -12.285  14.051  69.700  1.00  0.00    -0.383 A  
HETATM   15  C   UNL     1     -13.113  14.534  70.715  1.00  0.00    -0.363 A  
HETATM   16  C   UNL     1     -12.678  15.573  71.535  1.00  0.00    -0.501 A  
HETATM   17  C   UNL     1     -11.412  16.119  71.349  1.00  0.00    -0.429 A  
HETATM   18  C   UNL     1     -10.582  15.638  70.335  1.00  0.00    -0.287 A  
ENDBRANCH  11  13
ENDBRANCH  10  11
ENDBRANCH   4   6
ENDBRANCH   3   4
ENDBRANCH   2   3
TORSDOF 5
ENDMDL
MODEL      135
REMARK 921   NORMALIZED FREE ENERGY PREDICTED BY IDOCK:   -3.80 KCAL/MOL
REMARK 922        TOTAL FREE ENERGY PREDICTED BY IDOCK:   -5.45 KCAL/MOL
REMARK 923 INTER-LIGAND FREE ENERGY PREDICTED BY IDOCK:   -4.86 KCAL/MOL
REMARK 924 INTRA-LIGAND FREE ENERGY PREDICTED BY IDOCK:   -0.59 KCAL/MOL
REMARK 927      BINDING AFFINITY PREDICTED BY RF-SCORE:    0.00 PKD
ROOT
HETATM    1  C   UNL     1     -11.532   9.741  71.509  1.00  0.00    -0.393 C  
HETATM    2  C   UNL     1     -12.265  10.299  70.301  1.00  0.00    -0.221 C  
ENDROOT
BRANCH   2   3
HETATM    3  O   UNL     1     -11.425  10.108  69.154  1.00  0.00    -0.192 OA 
BRANCH   3   4
HETATM    4  C   UNL     1     -11.072  11.243  68.490  1.00  0.00    -0.235 C  
HETATM    5  O   UNL     1     -11.755  12.256  68.433  1.00  0.00    -0.304 OA 
BRANCH   4   6
HETATM    6  C   UNL     1      -9.739  11.094  67.967  1.00  0.00    -0.176 A  
HETATM    7  C   UNL     1      -8.541  11.032  68.656  1.00  0.00    -0.157 A  
HETATM    8  N   UNL     1      -7.474  10.943  67.809  1.00  0.00    -0.093 NA 
HETATM    9  C   UNL     1      -7.993  10.954  66.605  1.00  0.00    -0.148 A  
HETATM   10  N   UNL     1      -9.359  11.028  66.636  1.00  0.00    -0.174 NA 
BRANCH  10  11
HETATM   11  C   UNL     1     -10.250  10.985  65.464  1.00  0.00    -0.268 C  
HETATM   12  C   UNL     1      -9.528  10.370  64.263  1.00  0.00    -0.349 C  
BRANCH  11  13
HETATM   13  C   UNL     1     -10.905  12.335  65.179  1.00  0.00    -0.340 A  
HETATM   14  C   UNL     1     -12.283  12.383  64.901  1.00  0.00    -0.485 A  
HETATM   15  C   UNL     1     -12.907  13.590  64.583  1.00  0.00    -0.119 A  
HETATM   16  C   UNL     1     -12.167  14.769  64.545  1.00  0.00    -0.443 A  
HETATM   17  C   UNL     1     -10.808  14.744  64.839  1.00  0.00    -0.433 A  
HETATM   18  C   UNL     1     -10.180  13.539  65.157  1.00  0.00    -0.334 A  
ENDBRANCH  11  13
ENDBRANCH  10  11
ENDBRANCH   4   6
ENDBRANCH   3   4
ENDBRANCH   2   3
TORSDOF 5
ENDMDL
MODEL      136
REMARK 921   NORMALIZED FREE ENERGY PREDICTED BY IDOCK:   -3.79 KCAL/MOL
REMARK 922        TOTAL FREE ENERGY PREDICTED BY IDOCK:   -5.44 KCAL/MOL
REMARK 923 INTER-LIGAND FREE ENERGY PREDICTED BY IDOCK:   -5.19 KCAL/MOL
REMARK 924 INTRA-LIGAND FREE ENERGY PREDICTED BY IDOCK:   -0.25 KCAL/MOL
REMARK 927      BINDING AFFINITY PREDICTED BY RF-SCORE:    0.00 PKD
ROOT
HETATM    1  C   UNL     1      -7.311   7.013  69.066  1.00  0.00    -0.093 C  
HETATM    2  C   UNL     1      -7.780   7.848  70.244  1.00  0.00    -0.088 C  
ENDROOT
BRANCH   2   3
HETATM    3  O   UNL     1      -8.232   6.949  71.265  1.00  0.00    -0.112 OA 
BRANCH   3   4
HETATM    4  C   UNL     1      -8.957   7.517  72.269  1.00  0.00    -0.133 C  
HETATM    5  O   UNL     1      -8.909   8.699  72.577  1.00  0.00    -0.356 OA 
BRANCH   4   6
HETATM    6  C   UNL     1      -9.852   6.536  72.824  1.00  0.00    -0.169 A  
HETATM    7  C   UNL     1      -9.719   5.804  73.989  1.00  0.00    -0.177 A  
HETATM    8  N   UNL     1     -10.752   4.926  74.157  1.00  0.00    -0.297 NA 
HETATM    9  C   UNL     1     -11.520   5.101  73.109  1.00  0.00    -0.272 A  
HETATM   10  N   UNL     1     -11.037   6.072  72.274  1.00  0.00    -0.263 NA 
BRANCH  10  11
HETATM   11  C   UNL     1     -11.697   6.562  71.052  1.00  0.00    -0.343 C  
HETATM   12  C   UNL     1     -10.949   6.079  69.807  1.00  0.00    -0.471 C  
BRANCH  11  13
HETATM   13  C   UNL     1     -11.948   8.067  71.088  1.00  0.00    -0.297 A  
HETATM   14  C   UNL     1     -12.911   8.580  71.977  1.00  0.00    -0.406 A  
HETATM   15  C   UNL     1     -13.207   9.944  72.002  1.00  0.00    -0.555 A  
HETATM   16  C   UNL     1     -12.542  10.818  71.147  1.00  0.00    -0.532 A  
HETATM   17  C   UNL     1     -11.572  10.333  70.277  1.00  0.00    -0.396 A  
HETATM   18  C   UNL     1     -11.273   8.969  70.249  1.00  0.00    -0.232 A  
ENDBRANCH  11  13
ENDBRANCH  10  11
ENDBRANCH   4   6
ENDBRANCH   3   4
ENDBRANCH   2   3
TORSDOF 5
ENDMDL
MODEL      137
REMARK 921   NORMALIZED FREE ENERGY PREDICTED BY IDOCK:   -3.78 KCAL/MOL
REMARK 922        TOTAL FREE ENERGY PREDICTED BY IDOCK:   -5.43 KCAL/MOL
REMARK 923 INTER-LIGAND FREE ENERGY PREDICTED BY IDOCK:   -4.76 KCAL/MOL
REMARK 924 INTRA-LIGAND FREE ENERGY PREDICTED BY IDOCK:   -0.67 KCAL/MOL
REMARK 927      BINDING AFFINITY PREDICTED BY RF-SCORE:    0.00 PKD
ROOT
HETATM    1  C   UNL     1      -5.983  13.972  70.599  1.00  0.00    -0.186 C  
HETATM    2  C   UNL     1      -6.325  13.912  69.121  1.00  0.00    -0.107 C  
ENDROOT
BRANCH   2   3
HETATM    3  O   UNL     1      -7.722  14.202  68.984  1.00  0.00    -0.114 OA 
BRANCH   3   4
HETATM    4  C   UNL     1      -8.026  15.492  68.672  1.00  0.00    -0.146 C  
HETATM    5  O   UNL     1      -7.207  16.339  68.343  1.00  0.00    -0.142 OA 
BRANCH   4   6
HETATM    6  C   UNL     1      -9.456  15.662  68.686  1.00  0.00    -0.204 A  
HETATM    7  C   UNL     1     -10.295  15.840  69.770  1.00  0.00    -0.306 A  
HETATM    8  N   UNL     1     -11.605  15.910  69.390  1.00  0.00    -0.351 NA 
HETATM    9  C   UNL     1     -11.589  15.773  68.086  1.00  0.00    -0.255 A  
HETATM   10  N   UNL     1     -10.317  15.635  67.600  1.00  0.00    -0.269 NA 
BRANCH  10  11
HETATM   11  C   UNL     1      -9.944  15.536  66.178  1.00  0.00    -0.309 C  
HETATM   12  C   UNL     1     -10.456  16.753  65.403  1.00  0.00    -0.212 C  
BRANCH  11  13
HETATM   13  C   UNL     1     -10.333  14.193  65.566  1.00  0.00    -0.368 A  
HETATM   14  C   UNL     1     -11.236  14.167  64.487  1.00  0.00    -0.345 A  
HETATM   15  C   UNL     1     -11.656  12.956  63.935  1.00  0.00    -0.515 A  
HETATM   16  C   UNL     1     -11.176  11.753  64.445  1.00  0.00    -0.383 A  
HETATM   17  C   UNL     1     -10.266  11.759  65.496  1.00  0.00    -0.291 A  
HETATM   18  C   UNL     1      -9.843  12.968  66.052  1.00  0.00    -0.259 A  
ENDBRANCH  11  13
ENDBRANCH  10  11
ENDBRANCH   4   6
ENDBRANCH   3   4
ENDBRANCH   2   3
TORSDOF 5
ENDMDL
MODEL      138
REMARK 921   NORMALIZED FREE ENERGY PREDICTED BY IDOCK:   -3.77 KCAL/MOL
REMARK 922        TOTAL FREE ENERGY PREDICTED BY IDOCK:   -5.42 KCAL/MOL
REMARK 923 INTER-LIGAND FREE ENERGY PREDICTED BY IDOCK:   -5.02 KCAL/MOL
REMARK 924 INTRA-LIGAND FREE ENERGY PREDICTED BY IDOCK:   -0.40 KCAL/MOL
REMARK 927      BINDING AFFINITY PREDICTED BY RF-SCORE:    0.00 PKD
ROOT
HETATM    1  C   UNL     1     -11.989  14.210  65.851  1.00  0.00    -0.420 C  
HETATM    2  C   UNL     1     -12.073  14.037  67.357  1.00  0.00    -0.349 C  
ENDROOT
BRANCH   2   3
HETATM    3  O   UNL     1     -10.870  13.387  67.789  1.00  0.00    -0.245 OA 
BRANCH   3   4
HETATM    4  C   UNL     1     -10.972  12.045  68.000  1.00  0.00    -0.223 C  
HETATM    5  O   UNL     1     -11.957  11.373  67.732  1.00  0.00    -0.637 OA 
BRANCH   4   6
HETATM    6  C   UNL     1      -9.712  11.542  68.480  1.00  0.00    -0.189 A  
HETATM    7  C   UNL     1      -8.444  12.062  68.294  1.00  0.00    -0.167 A  
HETATM    8  N   UNL     1      -7.484  11.271  68.856  1.00  0.00    -0.119 NA 
HETATM    9  C   UNL     1      -8.138  10.265  69.385  1.00  0.00    -0.163 A  
HETATM   10  N   UNL     1      -9.490  10.380  69.204  1.00  0.00    -0.203 NA 
BRANCH  10  11
HETATM   11  C   UNL     1     -10.511   9.462  69.736  1.00  0.00    -0.226 C  
HETATM   12  C   UNL     1     -10.385   9.342  71.257  1.00  0.00    -0.397 C  
BRANCH  11  13
HETATM   13  C   UNL     1     -10.534   8.125  69.000  1.00  0.00    -0.211 A  
HETATM   14  C   UNL     1     -10.558   8.116  67.593  1.00  0.00    -0.258 A  
HETATM   15  C   UNL     1     -10.633   6.916  66.886  1.00  0.00    -0.372 A  
HETATM   16  C   UNL     1     -10.676   5.704  67.571  1.00  0.00    -0.272 A  
HETATM   17  C   UNL     1     -10.631   5.691  68.961  1.00  0.00    -0.316 A  
HETATM   18  C   UNL     1     -10.556   6.891  69.672  1.00  0.00    -0.258 A  
ENDBRANCH  11  13
ENDBRANCH  10  11
ENDBRANCH   4   6
ENDBRANCH   3   4
ENDBRANCH   2   3
TORSDOF 5
ENDMDL
MODEL      139
REMARK 921   NORMALIZED FREE ENERGY PREDICTED BY IDOCK:   -3.76 KCAL/MOL
REMARK 922        TOTAL FREE ENERGY PREDICTED BY IDOCK:   -5.41 KCAL/MOL
REMARK 923 INTER-LIGAND FREE ENERGY PREDICTED BY IDOCK:   -5.16 KCAL/MOL
REMARK 924 INTRA-LIGAND FREE ENERGY PREDICTED BY IDOCK:   -0.25 KCAL/MOL
REMARK 927      BINDING AFFINITY PREDICTED BY RF-SCORE:    0.00 PKD
ROOT
HETATM    1  C   UNL     1     -11.582  13.158  69.224  1.00  0.00    -0.370 C  
HETATM    2  C   UNL     1     -11.916  14.550  69.730  1.00  0.00    -0.332 C  
ENDROOT
BRANCH   2   3
HETATM    3  O   UNL     1     -10.683  15.201  70.066  1.00  0.00    -0.258 OA 
BRANCH   3   4
HETATM    4  C   UNL     1     -10.176  16.028  69.111  1.00  0.00    -0.242 C  
HETATM    5  O   UNL     1     -10.709  17.062  68.734  1.00  0.00    -0.337 OA 
BRANCH   4   6
HETATM    6  C   UNL     1      -8.881  15.549  68.704  1.00  0.00    -0.193 A  
HETATM    7  C   UNL     1      -7.812  15.168  69.494  1.00  0.00    -0.186 A  
HETATM    8  N   UNL     1      -6.726  14.823  68.743  1.00  0.00    -0.086 NA 
HETATM    9  C   UNL     1      -7.105  14.988  67.499  1.00  0.00    -0.197 A  
HETATM   10  N   UNL     1      -8.403  15.411  67.410  1.00  0.00    -0.169 NA 
BRANCH  10  11
HETATM   11  C   UNL     1      -9.157  15.621  66.162  1.00  0.00    -0.342 C  
HETATM   12  C   UNL     1      -9.686  17.055  66.089  1.00  0.00    -0.283 C  
BRANCH  11  13
HETATM   13  C   UNL     1     -10.219  14.548  65.935  1.00  0.00    -0.339 A  
HETATM   14  C   UNL     1     -11.570  14.930  65.840  1.00  0.00    -0.228 A  
HETATM   15  C   UNL     1     -12.574  13.973  65.685  1.00  0.00    -0.542 A  
HETATM   16  C   UNL     1     -12.247  12.622  65.615  1.00  0.00    -0.474 A  
HETATM   17  C   UNL     1     -10.914  12.228  65.685  1.00  0.00    -0.338 A  
HETATM   18  C   UNL     1      -9.907  13.181  65.840  1.00  0.00    -0.241 A  
ENDBRANCH  11  13
ENDBRANCH  10  11
ENDBRANCH   4   6
ENDBRANCH   3   4
ENDBRANCH   2   3
TORSDOF 5
ENDMDL
MODEL      140
REMARK 921   NORMALIZED FREE ENERGY PREDICTED BY IDOCK:   -3.75 KCAL/MOL
REMARK 922        TOTAL FREE ENERGY PREDICTED BY IDOCK:   -5.40 KCAL/MOL
REMARK 923 INTER-LIGAND FREE ENERGY PREDICTED BY IDOCK:   -5.14 KCAL/MOL
REMARK 924 INTRA-LIGAND FREE ENERGY PREDICTED BY IDOCK:   -0.25 KCAL/MOL
REMARK 927      BINDING AFFINITY PREDICTED BY RF-SCORE:    0.00 PKD
ROOT
HETATM    1  C   UNL     1      -9.576  10.013  67.337  1.00  0.00    -0.182 C  
HETATM    2  C   UNL     1      -9.342  11.423  67.848  1.00  0.00    -0.164 C  
ENDROOT
BRANCH   2   3
HETATM    3  O   UNL     1      -9.664  12.332  66.787  1.00  0.00    -0.204 OA 
BRANCH   3   4
HETATM    4  C   UNL     1     -10.801  13.061  66.963  1.00  0.00    -0.261 C  
HETATM    5  O   UNL     1     -11.755  12.707  67.641  1.00  0.00    -0.335 OA 
BRANCH   4   6
HETATM    6  C   UNL     1     -10.651  14.341  66.322  1.00  0.00    -0.291 A  
HETATM    7  C   UNL     1     -10.787  14.659  64.983  1.00  0.00    -0.417 A  
HETATM    8  N   UNL     1     -10.511  15.975  64.745  1.00  0.00    -0.513 NA 
HETATM    9  C   UNL     1     -10.202  16.476  65.916  1.00  0.00    -0.349 A  
HETATM   10  N   UNL     1     -10.283  15.540  66.912  1.00  0.00    -0.273 NA 
BRANCH  10  11
HETATM   11  C   UNL     1     -10.073  15.791  68.348  1.00  0.00    -0.222 C  
HETATM   12  C   UNL     1     -11.371  16.262  69.007  1.00  0.00    -0.301 C  
BRANCH  11  13
HETATM   13  C   UNL     1      -8.871  16.693  68.613  1.00  0.00    -0.249 A  
HETATM   14  C   UNL     1      -8.983  18.074  68.368  1.00  0.00    -0.286 A  
HETATM   15  C   UNL     1      -7.891  18.924  68.547  1.00  0.00    -0.373 A  
HETATM   16  C   UNL     1      -6.672  18.411  68.981  1.00  0.00    -0.280 A  
HETATM   17  C   UNL     1      -6.548  17.052  69.250  1.00  0.00    -0.233 A  
HETATM   18  C   UNL     1      -7.638  16.199  69.072  1.00  0.00    -0.213 A  
ENDBRANCH  11  13
ENDBRANCH  10  11
ENDBRANCH   4   6
ENDBRANCH   3   4
ENDBRANCH   2   3
TORSDOF 5
ENDMDL
MODEL      141
REMARK 921   NORMALIZED FREE ENERGY PREDICTED BY IDOCK:   -3.72 KCAL/MOL
REMARK 922        TOTAL FREE ENERGY PREDICTED BY IDOCK:   -5.35 KCAL/MOL
REMARK 923 INTER-LIGAND FREE ENERGY PREDICTED BY IDOCK:   -4.75 KCAL/MOL
REMARK 924 INTRA-LIGAND FREE ENERGY PREDICTED BY IDOCK:   -0.60 KCAL/MOL
REMARK 927      BINDING AFFINITY PREDICTED BY RF-SCORE:    0.00 PKD
ROOT
HETATM    1  C   UNL     1      -7.683  11.971  67.168  1.00  0.00    -0.161 C  
HETATM    2  C   UNL     1      -7.635  10.455  67.104  1.00  0.00    -0.096 C  
ENDROOT
BRANCH   2   3
HETATM    3  O   UNL     1      -8.555   9.947  68.080  1.00  0.00    -0.120 OA 
BRANCH   3   4
HETATM    4  C   UNL     1      -8.232   8.737  68.616  1.00  0.00    -0.117 C  
HETATM    5  O   UNL     1      -7.215   8.510  69.256  1.00  0.00    -0.061 OA 
BRANCH   4   6
HETATM    6  C   UNL     1      -9.318   7.817  68.404  1.00  0.00    -0.143 A  
HETATM    7  C   UNL     1      -9.696   7.179  67.236  1.00  0.00    -0.155 A  
HETATM    8  N   UNL     1     -10.816   6.420  67.414  1.00  0.00    -0.334 NA 
HETATM    9  C   UNL     1     -11.140   6.580  68.674  1.00  0.00    -0.270 A  
HETATM   10  N   UNL     1     -10.263   7.402  69.329  1.00  0.00    -0.194 NA 
BRANCH  10  11
HETATM   11  C   UNL     1     -10.297   7.728  70.765  1.00  0.00    -0.203 C  
HETATM   12  C   UNL     1     -10.592   6.475  71.593  1.00  0.00    -0.250 C  
BRANCH  11  13
HETATM   13  C   UNL     1     -11.209   8.913  71.072  1.00  0.00    -0.342 A  
HETATM   14  C   UNL     1     -12.239   8.758  72.019  1.00  0.00    -0.447 A  
HETATM   15  C   UNL     1     -13.126   9.801  72.288  1.00  0.00    -0.445 A  
HETATM   16  C   UNL     1     -12.995  11.017  71.624  1.00  0.00    -0.561 A  
HETATM   17  C   UNL     1     -11.969  11.196  70.701  1.00  0.00    -0.459 A  
HETATM   18  C   UNL     1     -11.080  10.155  70.429  1.00  0.00    -0.393 A  
ENDBRANCH  11  13
ENDBRANCH  10  11
ENDBRANCH   4   6
ENDBRANCH   3   4
ENDBRANCH   2   3
TORSDOF 5
ENDMDL
MODEL      142
REMARK 921   NORMALIZED FREE ENERGY PREDICTED BY IDOCK:   -3.71 KCAL/MOL
REMARK 922        TOTAL FREE ENERGY PREDICTED BY IDOCK:   -5.34 KCAL/MOL
REMARK 923 INTER-LIGAND FREE ENERGY PREDICTED BY IDOCK:   -4.64 KCAL/MOL
REMARK 924 INTRA-LIGAND FREE ENERGY PREDICTED BY IDOCK:   -0.70 KCAL/MOL
REMARK 927      BINDING AFFINITY PREDICTED BY RF-SCORE:    0.00 PKD
ROOT
HETATM    1  C   UNL     1      -8.165   8.358  68.198  1.00  0.00    -0.124 C  
HETATM    2  C   UNL     1      -7.548   8.558  69.572  1.00  0.00    -0.089 C  
ENDROOT
BRANCH   2   3
HETATM    3  O   UNL     1      -6.912   7.329  69.947  1.00  0.00    -0.054 OA 
BRANCH   3   4
HETATM    4  C   UNL     1      -7.397   6.737  71.074  1.00  0.00    -0.078 C  
HETATM    5  O   UNL     1      -6.843   6.757  72.164  1.00  0.00    -0.062 OA 
BRANCH   4   6
HETATM    6  C   UNL     1      -8.699   6.187  70.800  1.00  0.00    -0.136 A  
HETATM    7  C   UNL     1      -9.039   5.150  69.950  1.00  0.00    -0.123 A  
HETATM    8  N   UNL     1     -10.389   4.950  69.912  1.00  0.00    -0.233 NA 
HETATM    9  C   UNL     1     -10.891   5.849  70.723  1.00  0.00    -0.283 A  
HETATM   10  N   UNL     1      -9.917   6.617  71.302  1.00  0.00    -0.181 NA 
BRANCH  10  11
HETATM   11  C   UNL     1     -10.136   7.665  72.314  1.00  0.00    -0.208 C  
HETATM   12  C   UNL     1     -10.519   7.041  73.658  1.00  0.00    -0.414 C  
BRANCH  11  13
HETATM   13  C   UNL     1     -11.091   8.753  71.831  1.00  0.00    -0.434 A  
HETATM   14  C   UNL     1     -12.384   8.822  72.381  1.00  0.00    -0.414 A  
HETATM   15  C   UNL     1     -13.305   9.769  71.928  1.00  0.00    -0.530 A  
HETATM   16  C   UNL     1     -12.947  10.665  70.925  1.00  0.00    -0.429 A  
HETATM   17  C   UNL     1     -11.665  10.625  70.384  1.00  0.00    -0.446 A  
HETATM   18  C   UNL     1     -10.742   9.680  70.835  1.00  0.00    -0.402 A  
ENDBRANCH  11  13
ENDBRANCH  10  11
ENDBRANCH   4   6
ENDBRANCH   3   4
ENDBRANCH   2   3
TORSDOF 5
ENDMDL
MODEL      143
REMARK 921   NORMALIZED FREE ENERGY PREDICTED BY IDOCK:   -3.70 KCAL/MOL
REMARK 922        TOTAL FREE ENERGY PREDICTED BY IDOCK:   -5.33 KCAL/MOL
REMARK 923 INTER-LIGAND FREE ENERGY PREDICTED BY IDOCK:   -5.47 KCAL/MOL
REMARK 924 INTRA-LIGAND FREE ENERGY PREDICTED BY IDOCK:    0.15 KCAL/MOL
REMARK 927      BINDING AFFINITY PREDICTED BY RF-SCORE:    0.00 PKD
ROOT
HETATM    1  C   UNL     1     -12.047  14.281  64.639  1.00  0.00    -0.478 C  
HETATM    2  C   UNL     1     -12.054  13.598  65.995  1.00  0.00    -0.441 C  
ENDROOT
BRANCH   2   3
HETATM    3  O   UNL     1     -11.754  14.590  66.985  1.00  0.00    -0.377 OA 
BRANCH   3   4
HETATM    4  C   UNL     1     -10.832  14.226  67.920  1.00  0.00    -0.253 C  
HETATM    5  O   UNL     1      -9.627  14.410  67.816  1.00  0.00    -0.209 OA 
BRANCH   4   6
HETATM    6  C   UNL     1     -11.508  13.699  69.076  1.00  0.00    -0.301 A  
HETATM    7  C   UNL     1     -12.348  14.352  69.960  1.00  0.00    -0.336 A  
HETATM    8  N   UNL     1     -12.756  13.530  70.971  1.00  0.00    -0.340 NA 
HETATM    9  C   UNL     1     -12.177  12.379  70.729  1.00  0.00    -0.242 A  
HETATM   10  N   UNL     1     -11.421  12.414  69.588  1.00  0.00    -0.232 NA 
BRANCH  10  11
HETATM   11  C   UNL     1     -10.703  11.273  68.996  1.00  0.00    -0.217 C  
HETATM   12  C   UNL     1     -11.422  10.779  67.738  1.00  0.00    -0.283 C  
BRANCH  11  13
HETATM   13  C   UNL     1     -10.403  10.179  70.017  1.00  0.00    -0.301 A  
HETATM   14  C   UNL     1      -9.066   9.798  70.241  1.00  0.00    -0.208 A  
HETATM   15  C   UNL     1      -8.756   8.766  71.128  1.00  0.00    -0.265 A  
HETATM   16  C   UNL     1      -9.772   8.102  71.810  1.00  0.00    -0.253 A  
HETATM   17  C   UNL     1     -11.097   8.479  71.618  1.00  0.00    -0.360 A  
HETATM   18  C   UNL     1     -11.412   9.511  70.732  1.00  0.00    -0.378 A  
ENDBRANCH  11  13
ENDBRANCH  10  11
ENDBRANCH   4   6
ENDBRANCH   3   4
ENDBRANCH   2   3
TORSDOF 5
ENDMDL
MODEL      144
REMARK 921   NORMALIZED FREE ENERGY PREDICTED BY IDOCK:   -3.68 KCAL/MOL
REMARK 922        TOTAL FREE ENERGY PREDICTED BY IDOCK:   -5.30 KCAL/MOL
REMARK 923 INTER-LIGAND FREE ENERGY PREDICTED BY IDOCK:   -4.81 KCAL/MOL
REMARK 924 INTRA-LIGAND FREE ENERGY PREDICTED BY IDOCK:   -0.49 KCAL/MOL
REMARK 927      BINDING AFFINITY PREDICTED BY RF-SCORE:    0.00 PKD
ROOT
HETATM    1  C   UNL     1     -11.899  15.550  69.571  1.00  0.00    -0.390 C  
HETATM    2  C   UNL     1     -11.820  14.295  68.719  1.00  0.00    -0.341 C  
ENDROOT
BRANCH   2   3
HETATM    3  O   UNL     1     -11.917  13.165  69.596  1.00  0.00    -0.310 OA 
BRANCH   3   4
HETATM    4  C   UNL     1     -12.030  11.954  68.983  1.00  0.00    -0.262 C  
HETATM    5  O   UNL     1     -12.084  11.791  67.772  1.00  0.00    -0.595 OA 
BRANCH   4   6
HETATM    6  C   UNL     1     -11.968  10.911  69.973  1.00  0.00    -0.350 A  
HETATM    7  C   UNL     1     -12.663  10.805  71.164  1.00  0.00    -0.431 A  
HETATM    8  N   UNL     1     -12.294   9.695  71.868  1.00  0.00    -0.374 NA 
HETATM    9  C   UNL     1     -11.378   9.114  71.133  1.00  0.00    -0.322 A  
HETATM   10  N   UNL     1     -11.147   9.794  69.967  1.00  0.00    -0.254 NA 
BRANCH  10  11
HETATM   11  C   UNL     1     -10.236   9.371  68.890  1.00  0.00    -0.200 C  
HETATM   12  C   UNL     1     -10.150   7.844  68.828  1.00  0.00    -0.203 C  
BRANCH  11  13
HETATM   13  C   UNL     1      -8.884  10.075  68.960  1.00  0.00    -0.159 A  
HETATM   14  C   UNL     1      -8.489  10.909  67.898  1.00  0.00    -0.129 A  
HETATM   15  C   UNL     1      -7.237  11.527  67.901  1.00  0.00    -0.085 A  
HETATM   16  C   UNL     1      -6.364  11.329  68.967  1.00  0.00    -0.060 A  
HETATM   17  C   UNL     1      -6.746  10.525  70.036  1.00  0.00    -0.151 A  
HETATM   18  C   UNL     1      -7.997   9.905  70.037  1.00  0.00    -0.194 A  
ENDBRANCH  11  13
ENDBRANCH  10  11
ENDBRANCH   4   6
ENDBRANCH   3   4
ENDBRANCH   2   3
TORSDOF 5
ENDMDL
MODEL      145
REMARK 921   NORMALIZED FREE ENERGY PREDICTED BY IDOCK:   -3.68 KCAL/MOL
REMARK 922        TOTAL FREE ENERGY PREDICTED BY IDOCK:   -5.30 KCAL/MOL
REMARK 923 INTER-LIGAND FREE ENERGY PREDICTED BY IDOCK:   -5.01 KCAL/MOL
REMARK 924 INTRA-LIGAND FREE ENERGY PREDICTED BY IDOCK:   -0.29 KCAL/MOL
REMARK 927      BINDING AFFINITY PREDICTED BY RF-SCORE:    0.00 PKD
ROOT
HETATM    1  C   UNL     1      -5.479  15.893  67.394  1.00  0.00    -0.046 C  
HETATM    2  C   UNL     1      -6.943  16.090  67.747  1.00  0.00    -0.143 C  
ENDROOT
BRANCH   2   3
HETATM    3  O   UNL     1      -7.687  15.028  67.135  1.00  0.00    -0.202 OA 
BRANCH   3   4
HETATM    4  C   UNL     1      -8.620  14.432  67.928  1.00  0.00    -0.165 C  
HETATM    5  O   UNL     1      -8.544  14.347  69.146  1.00  0.00    -0.052 OA 
BRANCH   4   6
HETATM    6  C   UNL     1      -9.741  14.025  67.122  1.00  0.00    -0.242 A  
HETATM    7  C   UNL     1      -9.825  12.980  66.221  1.00  0.00    -0.278 A  
HETATM    8  N   UNL     1     -11.041  12.941  65.602  1.00  0.00    -0.275 NA 
HETATM    9  C   UNL     1     -11.711  13.950  66.104  1.00  0.00    -0.376 A  
HETATM   10  N   UNL     1     -10.984  14.634  67.040  1.00  0.00    -0.309 NA 
BRANCH  10  11
HETATM   11  C   UNL     1     -11.467  15.769  67.845  1.00  0.00    -0.221 C  
HETATM   12  C   UNL     1     -10.617  17.014  67.582  1.00  0.00    -0.333 C  
BRANCH  11  13
HETATM   13  C   UNL     1     -11.620  15.414  69.322  1.00  0.00    -0.354 A  
HETATM   14  C   UNL     1     -12.183  14.174  69.674  1.00  0.00    -0.376 A  
HETATM   15  C   UNL     1     -12.389  13.835  71.012  1.00  0.00    -0.452 A  
HETATM   16  C   UNL     1     -12.029  14.726  72.020  1.00  0.00    -0.372 A  
HETATM   17  C   UNL     1     -11.451  15.948  71.692  1.00  0.00    -0.473 A  
HETATM   18  C   UNL     1     -11.244  16.290  70.354  1.00  0.00    -0.336 A  
ENDBRANCH  11  13
ENDBRANCH  10  11
ENDBRANCH   4   6
ENDBRANCH   3   4
ENDBRANCH   2   3
TORSDOF 5
ENDMDL
MODEL      146
REMARK 921   NORMALIZED FREE ENERGY PREDICTED BY IDOCK:   -3.67 KCAL/MOL
REMARK 922        TOTAL FREE ENERGY PREDICTED BY IDOCK:   -5.29 KCAL/MOL
REMARK 923 INTER-LIGAND FREE ENERGY PREDICTED BY IDOCK:   -4.76 KCAL/MOL
REMARK 924 INTRA-LIGAND FREE ENERGY PREDICTED BY IDOCK:   -0.53 KCAL/MOL
REMARK 927      BINDING AFFINITY PREDICTED BY RF-SCORE:    0.00 PKD
ROOT
HETATM    1  C   UNL     1     -11.212  16.243  70.084  1.00  0.00    -0.340 C  
HETATM    2  C   UNL     1      -9.899  16.176  69.324  1.00  0.00    -0.250 C  
ENDROOT
BRANCH   2   3
HETATM    3  O   UNL     1      -9.799  14.871  68.739  1.00  0.00    -0.213 OA 
BRANCH   3   4
HETATM    4  C   UNL     1     -10.705  14.595  67.760  1.00  0.00    -0.265 C  
HETATM    5  O   UNL     1     -11.019  15.368  66.866  1.00  0.00    -0.318 OA 
BRANCH   4   6
HETATM    6  C   UNL     1     -11.143  13.230  67.887  1.00  0.00    -0.262 A  
HETATM    7  C   UNL     1     -11.731  12.606  68.972  1.00  0.00    -0.318 A  
HETATM    8  N   UNL     1     -11.956  11.281  68.734  1.00  0.00    -0.506 NA 
HETATM    9  C   UNL     1     -11.511  11.073  67.519  1.00  0.00    -0.185 A  
HETATM   10  N   UNL     1     -11.021  12.217  66.948  1.00  0.00    -0.256 NA 
BRANCH  10  11
HETATM   11  C   UNL     1     -10.516  12.344  65.571  1.00  0.00    -0.275 C  
HETATM   12  C   UNL     1     -11.678  12.401  64.576  1.00  0.00    -0.427 C  
BRANCH  11  13
HETATM   13  C   UNL     1      -9.457  11.297  65.238  1.00  0.00    -0.248 A  
HETATM   14  C   UNL     1      -8.254  11.283  65.968  1.00  0.00    -0.045 A  
HETATM   15  C   UNL     1      -7.239  10.376  65.658  1.00  0.00    -0.146 A  
HETATM   16  C   UNL     1      -7.413   9.462  64.622  1.00  0.00    -0.108 A  
HETATM   17  C   UNL     1      -8.604   9.446  63.905  1.00  0.00    -0.225 A  
HETATM   18  C   UNL     1      -9.621  10.352  64.211  1.00  0.00    -0.377 A  
ENDBRANCH  11  13
ENDBRANCH  10  11
ENDBRANCH   4   6
ENDBRANCH   3   4
ENDBRANCH   2   3
TORSDOF 5
ENDMDL
MODEL      147
REMARK 921   NORMALIZED FREE ENERGY PREDICTED BY IDOCK:   -3.67 KCAL/MOL
REMARK 922        TOTAL FREE ENERGY PREDICTED BY IDOCK:   -5.29 KCAL/MOL
REMARK 923 INTER-LIGAND FREE ENERGY PREDICTED BY IDOCK:   -4.70 KCAL/MOL
REMARK 924 INTRA-LIGAND FREE ENERGY PREDICTED BY IDOCK:   -0.59 KCAL/MOL
REMARK 927      BINDING AFFINITY PREDICTED BY RF-SCORE:    0.00 PKD
ROOT
HETATM    1  C   UNL     1     -11.903  10.139  71.182  1.00  0.00    -0.472 C  
HETATM    2  C   UNL     1     -12.565   9.177  72.153  1.00  0.00    -0.381 C  
ENDROOT
BRANCH   2   3
HETATM    3  O   UNL     1     -11.576   8.226  72.569  1.00  0.00    -0.383 OA 
BRANCH   3   4
HETATM    4  C   UNL     1     -11.433   7.137  71.764  1.00  0.00    -0.267 C  
HETATM    5  O   UNL     1     -12.328   6.346  71.500  1.00  0.00    -0.281 OA 
BRANCH   4   6
HETATM    6  C   UNL     1     -10.109   7.132  71.199  1.00  0.00    -0.187 A  
HETATM    7  C   UNL     1      -8.890   7.110  71.852  1.00  0.00    -0.123 A  
HETATM    8  N   UNL     1      -7.845   7.170  70.974  1.00  0.00    -0.094 NA 
HETATM    9  C   UNL     1      -8.400   7.232  69.788  1.00  0.00    -0.135 A  
HETATM   10  N   UNL     1      -9.767   7.198  69.858  1.00  0.00    -0.170 NA 
BRANCH  10  11
HETATM   11  C   UNL     1     -10.687   7.176  68.708  1.00  0.00    -0.169 C  
HETATM   12  C   UNL     1     -10.758   5.771  68.104  1.00  0.00    -0.288 C  
BRANCH  11  13
HETATM   13  C   UNL     1     -10.385   8.279  67.698  1.00  0.00    -0.313 A  
HETATM   14  C   UNL     1     -10.895   9.572  67.921  1.00  0.00    -0.240 A  
HETATM   15  C   UNL     1     -10.685  10.594  66.994  1.00  0.00    -0.317 A  
HETATM   16  C   UNL     1      -9.958  10.344  65.834  1.00  0.00    -0.317 A  
HETATM   17  C   UNL     1      -9.427   9.079  65.606  1.00  0.00    -0.273 A  
HETATM   18  C   UNL     1      -9.635   8.054  66.531  1.00  0.00    -0.295 A  
ENDBRANCH  11  13
ENDBRANCH  10  11
ENDBRANCH   4   6
ENDBRANCH   3   4
ENDBRANCH   2   3
TORSDOF 5
ENDMDL
MODEL      148
REMARK 921   NORMALIZED FREE ENERGY PREDICTED BY IDOCK:   -3.67 KCAL/MOL
REMARK 922        TOTAL FREE ENERGY PREDICTED BY IDOCK:   -5.29 KCAL/MOL
REMARK 923 INTER-LIGAND FREE ENERGY PREDICTED BY IDOCK:   -4.73 KCAL/MOL
REMARK 924 INTRA-LIGAND FREE ENERGY PREDICTED BY IDOCK:   -0.56 KCAL/MOL
REMARK 927      BINDING AFFINITY PREDICTED BY RF-SCORE:    0.00 PKD
ROOT
HETATM    1  C   UNL     1      -6.944  10.475  69.374  1.00  0.00    -0.099 C  
HETATM    2  C   UNL     1      -8.183   9.724  68.921  1.00  0.00    -0.117 C  
ENDROOT
BRANCH   2   3
HETATM    3  O   UNL     1      -9.277  10.148  69.746  1.00  0.00    -0.208 OA 
BRANCH   3   4
HETATM    4  C   UNL     1     -10.517   9.981  69.208  1.00  0.00    -0.225 C  
HETATM    5  O   UNL     1     -10.734   9.676  68.044  1.00  0.00    -0.240 OA 
BRANCH   4   6
HETATM    6  C   UNL     1     -11.508  10.112  70.244  1.00  0.00    -0.306 A  
HETATM    7  C   UNL     1     -12.154  11.252  70.685  1.00  0.00    -0.383 A  
HETATM    8  N   UNL     1     -12.991  10.988  71.730  1.00  0.00    -0.468 NA 
HETATM    9  C   UNL     1     -12.871   9.700  71.946  1.00  0.00    -0.425 A  
HETATM   10  N   UNL     1     -12.000   9.112  71.069  1.00  0.00    -0.291 NA 
BRANCH  10  11
HETATM   11  C   UNL     1     -11.696   7.673  70.992  1.00  0.00    -0.286 C  
HETATM   12  C   UNL     1     -12.983   6.848  71.081  1.00  0.00    -0.248 C  
BRANCH  11  13
HETATM   13  C   UNL     1     -10.611   7.252  71.979  1.00  0.00    -0.236 A  
HETATM   14  C   UNL     1     -10.470   5.890  72.302  1.00  0.00    -0.246 A  
HETATM   15  C   UNL     1      -9.525   5.471  73.240  1.00  0.00    -0.148 A  
HETATM   16  C   UNL     1      -8.701   6.404  73.865  1.00  0.00    -0.134 A  
HETATM   17  C   UNL     1      -8.811   7.752  73.541  1.00  0.00    -0.312 A  
HETATM   18  C   UNL     1      -9.755   8.175  72.604  1.00  0.00    -0.360 A  
ENDBRANCH  11  13
ENDBRANCH  10  11
ENDBRANCH   4   6
ENDBRANCH   3   4
ENDBRANCH   2   3
TORSDOF 5
ENDMDL
MODEL      149
REMARK 921   NORMALIZED FREE ENERGY PREDICTED BY IDOCK:   -3.67 KCAL/MOL
REMARK 922        TOTAL FREE ENERGY PREDICTED BY IDOCK:   -5.29 KCAL/MOL
REMARK 923 INTER-LIGAND FREE ENERGY PREDICTED BY IDOCK:   -4.88 KCAL/MOL
REMARK 924 INTRA-LIGAND FREE ENERGY PREDICTED BY IDOCK:   -0.40 KCAL/MOL
REMARK 927      BINDING AFFINITY PREDICTED BY RF-SCORE:    0.00 PKD
ROOT
HETATM    1  C   UNL     1     -12.555  13.672  70.816  1.00  0.00    -0.397 C  
HETATM    2  C   UNL     1     -12.094  12.322  70.295  1.00  0.00    -0.295 C  
ENDROOT
BRANCH   2   3
HETATM    3  O   UNL     1     -11.272  12.556  69.144  1.00  0.00    -0.252 OA 
BRANCH   3   4
HETATM    4  C   UNL     1     -11.658  11.913  68.006  1.00  0.00    -0.332 C  
HETATM    5  O   UNL     1     -12.139  10.789  67.973  1.00  0.00    -0.474 OA 
BRANCH   4   6
HETATM    6  C   UNL     1     -11.512  12.802  66.884  1.00  0.00    -0.340 A  
HETATM    7  C   UNL     1     -12.265  13.914  66.556  1.00  0.00    -0.442 A  
HETATM    8  N   UNL     1     -11.857  14.474  65.380  1.00  0.00    -0.356 NA 
HETATM    9  C   UNL     1     -10.864  13.722  64.971  1.00  0.00    -0.371 A  
HETATM   10  N   UNL     1     -10.598  12.703  65.846  1.00  0.00    -0.268 NA 
BRANCH  10  11
HETATM   11  C   UNL     1      -9.503  11.727  65.723  1.00  0.00    -0.216 C  
HETATM   12  C   UNL     1     -10.046  10.361  65.296  1.00  0.00    -0.370 C  
BRANCH  11  13
HETATM   13  C   UNL     1      -8.612  11.689  66.962  1.00  0.00    -0.169 A  
HETATM   14  C   UNL     1      -7.982  12.872  67.390  1.00  0.00    -0.178 A  
HETATM   15  C   UNL     1      -7.119  12.867  68.486  1.00  0.00    -0.102 A  
HETATM   16  C   UNL     1      -6.876  11.683  69.177  1.00  0.00    -0.111 A  
HETATM   17  C   UNL     1      -7.507  10.508  68.783  1.00  0.00    -0.097 A  
HETATM   18  C   UNL     1      -8.372  10.509  67.686  1.00  0.00    -0.114 A  
ENDBRANCH  11  13
ENDBRANCH  10  11
ENDBRANCH   4   6
ENDBRANCH   3   4
ENDBRANCH   2   3
TORSDOF 5
ENDMDL
MODEL      150
REMARK 921   NORMALIZED FREE ENERGY PREDICTED BY IDOCK:   -3.65 KCAL/MOL
REMARK 922        TOTAL FREE ENERGY PREDICTED BY IDOCK:   -5.26 KCAL/MOL
REMARK 923 INTER-LIGAND FREE ENERGY PREDICTED BY IDOCK:   -4.82 KCAL/MOL
REMARK 924 INTRA-LIGAND FREE ENERGY PREDICTED BY IDOCK:   -0.44 KCAL/MOL
REMARK 927      BINDING AFFINITY PREDICTED BY RF-SCORE:    0.00 PKD
ROOT
HETATM    1  C   UNL     1     -11.382   6.267  69.558  1.00  0.00    -0.475 C  
HETATM    2  C   UNL     1     -10.343   6.862  68.623  1.00  0.00    -0.186 C  
ENDROOT
BRANCH   2   3
HETATM    3  O   UNL     1     -10.890   8.067  68.072  1.00  0.00    -0.094 OA 
BRANCH   3   4
HETATM    4  C   UNL     1     -10.467   9.223  68.655  1.00  0.00    -0.209 C  
HETATM    5  O   UNL     1     -10.667   9.526  69.824  1.00  0.00    -0.220 OA 
BRANCH   4   6
HETATM    6  C   UNL     1      -9.668   9.966  67.717  1.00  0.00    -0.150 A  
HETATM    7  C   UNL     1      -8.335   9.796  67.391  1.00  0.00    -0.114 A  
HETATM    8  N   UNL     1      -7.910  10.734  66.494  1.00  0.00    -0.139 NA 
HETATM    9  C   UNL     1      -8.959  11.484  66.262  1.00  0.00    -0.196 A  
HETATM   10  N   UNL     1     -10.057  11.061  66.961  1.00  0.00    -0.190 NA 
BRANCH  10  11
HETATM   11  C   UNL     1     -11.409  11.638  66.872  1.00  0.00    -0.295 C  
HETATM   12  C   UNL     1     -11.727  12.039  65.429  1.00  0.00    -0.317 C  
BRANCH  11  13
HETATM   13  C   UNL     1     -11.641  12.745  67.896  1.00  0.00    -0.400 A  
HETATM   14  C   UNL     1     -11.669  14.084  67.465  1.00  0.00    -0.421 A  
HETATM   15  C   UNL     1     -11.825  15.127  68.379  1.00  0.00    -0.293 A  
HETATM   16  C   UNL     1     -11.964  14.851  69.736  1.00  0.00    -0.366 A  
HETATM   17  C   UNL     1     -11.961  13.532  70.179  1.00  0.00    -0.399 A  
HETATM   18  C   UNL     1     -11.805  12.486  69.268  1.00  0.00    -0.360 A  
ENDBRANCH  11  13
ENDBRANCH  10  11
ENDBRANCH   4   6
ENDBRANCH   3   4
ENDBRANCH   2   3
TORSDOF 5
ENDMDL
MODEL      151
REMARK 921   NORMALIZED FREE ENERGY PREDICTED BY IDOCK:   -3.65 KCAL/MOL
REMARK 922        TOTAL FREE ENERGY PREDICTED BY IDOCK:   -5.26 KCAL/MOL
REMARK 923 INTER-LIGAND FREE ENERGY PREDICTED BY IDOCK:   -5.46 KCAL/MOL
REMARK 924 INTRA-LIGAND FREE ENERGY PREDICTED BY IDOCK:    0.20 KCAL/MOL
REMARK 927      BINDING AFFINITY PREDICTED BY RF-SCORE:    0.00 PKD
ROOT
HETATM    1  C   UNL     1      -6.615  12.040  69.222  1.00  0.00    -0.109 C  
HETATM    2  C   UNL     1      -7.248  10.778  69.782  1.00  0.00    -0.101 C  
ENDROOT
BRANCH   2   3
HETATM    3  O   UNL     1      -8.118  10.242  68.776  1.00  0.00    -0.105 OA 
BRANCH   3   4
HETATM    4  C   UNL     1      -9.359   9.880  69.205  1.00  0.00    -0.206 C  
HETATM    5  O   UNL     1      -9.577   9.076  70.100  1.00  0.00    -0.172 OA 
BRANCH   4   6
HETATM    6  C   UNL     1     -10.349  10.668  68.519  1.00  0.00    -0.183 A  
HETATM    7  C   UNL     1     -10.491  10.888  67.161  1.00  0.00    -0.237 A  
HETATM    8  N   UNL     1     -11.522  11.741  66.891  1.00  0.00    -0.477 NA 
HETATM    9  C   UNL     1     -12.019  12.056  68.063  1.00  0.00    -0.144 A  
HETATM   10  N   UNL     1     -11.362  11.426  69.085  1.00  0.00    -0.261 NA 
BRANCH  10  11
HETATM   11  C   UNL     1     -11.715  11.505  70.513  1.00  0.00    -0.150 C  
HETATM   12  C   UNL     1     -12.472  10.248  70.949  1.00  0.00    -0.466 C  
BRANCH  11  13
HETATM   13  C   UNL     1     -12.413  12.814  70.870  1.00  0.00    -0.373 A  
HETATM   14  C   UNL     1     -11.941  14.017  70.313  1.00  0.00    -0.409 A  
HETATM   15  C   UNL     1     -12.519  15.240  70.657  1.00  0.00    -0.458 A  
HETATM   16  C   UNL     1     -13.581  15.281  71.556  1.00  0.00    -0.593 A  
HETATM   17  C   UNL     1     -14.075  14.100  72.100  1.00  0.00    -0.643 A  
HETATM   18  C   UNL     1     -13.500  12.875  71.759  1.00  0.00    -0.369 A  
ENDBRANCH  11  13
ENDBRANCH  10  11
ENDBRANCH   4   6
ENDBRANCH   3   4
ENDBRANCH   2   3
TORSDOF 5
ENDMDL
MODEL      152
REMARK 921   NORMALIZED FREE ENERGY PREDICTED BY IDOCK:   -3.64 KCAL/MOL
REMARK 922        TOTAL FREE ENERGY PREDICTED BY IDOCK:   -5.26 KCAL/MOL
REMARK 923 INTER-LIGAND FREE ENERGY PREDICTED BY IDOCK:   -5.46 KCAL/MOL
REMARK 924 INTRA-LIGAND FREE ENERGY PREDICTED BY IDOCK:    0.20 KCAL/MOL
REMARK 927      BINDING AFFINITY PREDICTED BY RF-SCORE:    0.00 PKD
ROOT
HETATM    1  C   UNL     1     -10.075  19.973  67.828  1.00  0.00    -0.563 C  
HETATM    2  C   UNL     1      -9.006  18.962  67.453  1.00  0.00    -0.276 C  
ENDROOT
BRANCH   2   3
HETATM    3  O   UNL     1      -9.194  17.802  68.275  1.00  0.00    -0.265 OA 
BRANCH   3   4
HETATM    4  C   UNL     1      -8.772  16.625  67.734  1.00  0.00    -0.201 C  
HETATM    5  O   UNL     1      -7.788  16.003  68.107  1.00  0.00    -0.136 OA 
BRANCH   4   6
HETATM    6  C   UNL     1      -9.721  16.189  66.744  1.00  0.00    -0.242 A  
HETATM    7  C   UNL     1     -10.200  16.875  65.643  1.00  0.00    -0.206 A  
HETATM    8  N   UNL     1     -11.136  16.150  64.963  1.00  0.00    -0.389 NA 
HETATM    9  C   UNL     1     -11.248  15.027  65.629  1.00  0.00    -0.327 A  
HETATM   10  N   UNL     1     -10.406  14.984  66.708  1.00  0.00    -0.265 NA 
BRANCH  10  11
HETATM   11  C   UNL     1     -10.230  13.840  67.618  1.00  0.00    -0.242 C  
HETATM   12  C   UNL     1     -10.407  12.521  66.862  1.00  0.00    -0.242 C  
BRANCH  11  13
HETATM   13  C   UNL     1     -11.082  13.960  68.878  1.00  0.00    -0.296 A  
HETATM   14  C   UNL     1     -11.694  12.808  69.405  1.00  0.00    -0.380 A  
HETATM   15  C   UNL     1     -12.523  12.886  70.525  1.00  0.00    -0.294 A  
HETATM   16  C   UNL     1     -12.750  14.114  71.141  1.00  0.00    -0.431 A  
HETATM   17  C   UNL     1     -12.136  15.261  70.648  1.00  0.00    -0.399 A  
HETATM   18  C   UNL     1     -11.306  15.186  69.528  1.00  0.00    -0.301 A  
ENDBRANCH  11  13
ENDBRANCH  10  11
ENDBRANCH   4   6
ENDBRANCH   3   4
ENDBRANCH   2   3
TORSDOF 5
ENDMDL
MODEL      153
REMARK 921   NORMALIZED FREE ENERGY PREDICTED BY IDOCK:   -3.62 KCAL/MOL
REMARK 922        TOTAL FREE ENERGY PREDICTED BY IDOCK:   -5.23 KCAL/MOL
REMARK 923 INTER-LIGAND FREE ENERGY PREDICTED BY IDOCK:   -4.67 KCAL/MOL
REMARK 924 INTRA-LIGAND FREE ENERGY PREDICTED BY IDOCK:   -0.56 KCAL/MOL
REMARK 927      BINDING AFFINITY PREDICTED BY RF-SCORE:    0.00 PKD
ROOT
HETATM    1  C   UNL     1      -6.508   4.393  68.970  1.00  0.00    -0.040 C  
HETATM    2  C   UNL     1      -7.706   5.270  69.286  1.00  0.00    -0.084 C  
ENDROOT
BRANCH   2   3
HETATM    3  O   UNL     1      -8.431   4.650  70.357  1.00  0.00    -0.077 OA 
BRANCH   3   4
HETATM    4  C   UNL     1      -9.709   5.088  70.532  1.00  0.00    -0.204 C  
HETATM    5  O   UNL     1     -10.467   5.399  69.624  1.00  0.00    -0.275 OA 
BRANCH   4   6
HETATM    6  C   UNL     1     -10.049   5.020  71.929  1.00  0.00    -0.197 A  
HETATM    7  C   UNL     1     -10.532   3.944  72.651  1.00  0.00    -0.127 A  
HETATM    8  N   UNL     1     -10.791   4.280  73.949  1.00  0.00    -0.258 NA 
HETATM    9  C   UNL     1     -10.479   5.550  74.040  1.00  0.00    -0.279 A  
HETATM   10  N   UNL     1     -10.010   6.050  72.855  1.00  0.00    -0.171 NA 
BRANCH  10  11
HETATM   11  C   UNL     1      -9.506   7.417  72.637  1.00  0.00    -0.153 C  
HETATM   12  C   UNL     1      -8.856   7.959  73.913  1.00  0.00    -0.315 C  
BRANCH  11  13
HETATM   13  C   UNL     1     -10.560   8.338  72.029  1.00  0.00    -0.365 A  
HETATM   14  C   UNL     1     -10.211   9.152  70.936  1.00  0.00    -0.351 A  
HETATM   15  C   UNL     1     -11.131  10.045  70.386  1.00  0.00    -0.393 A  
HETATM   16  C   UNL     1     -12.417  10.135  70.913  1.00  0.00    -0.455 A  
HETATM   17  C   UNL     1     -12.787   9.322  71.980  1.00  0.00    -0.495 A  
HETATM   18  C   UNL     1     -11.869   8.427  72.532  1.00  0.00    -0.427 A  
ENDBRANCH  11  13
ENDBRANCH  10  11
ENDBRANCH   4   6
ENDBRANCH   3   4
ENDBRANCH   2   3
TORSDOF 5
ENDMDL
MODEL      154
REMARK 921   NORMALIZED FREE ENERGY PREDICTED BY IDOCK:   -3.62 KCAL/MOL
REMARK 922        TOTAL FREE ENERGY PREDICTED BY IDOCK:   -5.22 KCAL/MOL
REMARK 923 INTER-LIGAND FREE ENERGY PREDICTED BY IDOCK:   -4.99 KCAL/MOL
REMARK 924 INTRA-LIGAND FREE ENERGY PREDICTED BY IDOCK:   -0.24 KCAL/MOL
REMARK 927      BINDING AFFINITY PREDICTED BY RF-SCORE:    0.00 PKD
ROOT
HETATM    1  C   UNL     1      -7.884  11.004  68.983  1.00  0.00    -0.126 C  
HETATM    2  C   UNL     1      -7.202  10.152  70.040  1.00  0.00    -0.161 C  
ENDROOT
BRANCH   2   3
HETATM    3  O   UNL     1      -8.223   9.610  70.888  1.00  0.00    -0.290 OA 
BRANCH   3   4
HETATM    4  C   UNL     1      -8.237   8.252  70.995  1.00  0.00    -0.112 C  
HETATM    5  O   UNL     1      -7.580   7.493  70.296  1.00  0.00    -0.086 OA 
BRANCH   4   6
HETATM    6  C   UNL     1      -9.055   7.870  72.117  1.00  0.00    -0.150 A  
HETATM    7  C   UNL     1      -8.668   7.600  73.417  1.00  0.00    -0.202 A  
HETATM    8  N   UNL     1      -9.726   7.214  74.189  1.00  0.00    -0.265 NA 
HETATM    9  C   UNL     1     -10.761   7.237  73.386  1.00  0.00    -0.369 A  
HETATM   10  N   UNL     1     -10.422   7.641  72.122  1.00  0.00    -0.211 NA 
BRANCH  10  11
HETATM   11  C   UNL     1     -11.357   7.845  71.003  1.00  0.00    -0.274 C  
HETATM   12  C   UNL     1     -10.818   7.193  69.727  1.00  0.00    -0.261 C  
BRANCH  11  13
HETATM   13  C   UNL     1     -11.760   9.308  70.839  1.00  0.00    -0.360 A  
HETATM   14  C   UNL     1     -11.243  10.044  69.756  1.00  0.00    -0.307 A  
HETATM   15  C   UNL     1     -11.545  11.398  69.602  1.00  0.00    -0.399 A  
HETATM   16  C   UNL     1     -12.374  12.037  70.520  1.00  0.00    -0.369 A  
HETATM   17  C   UNL     1     -12.912  11.320  71.584  1.00  0.00    -0.537 A  
HETATM   18  C   UNL     1     -12.612   9.966  71.742  1.00  0.00    -0.506 A  
ENDBRANCH  11  13
ENDBRANCH  10  11
ENDBRANCH   4   6
ENDBRANCH   3   4
ENDBRANCH   2   3
TORSDOF 5
ENDMDL
MODEL      155
REMARK 921   NORMALIZED FREE ENERGY PREDICTED BY IDOCK:   -3.61 KCAL/MOL
REMARK 922        TOTAL FREE ENERGY PREDICTED BY IDOCK:   -5.22 KCAL/MOL
REMARK 923 INTER-LIGAND FREE ENERGY PREDICTED BY IDOCK:   -5.03 KCAL/MOL
REMARK 924 INTRA-LIGAND FREE ENERGY PREDICTED BY IDOCK:   -0.18 KCAL/MOL
REMARK 927      BINDING AFFINITY PREDICTED BY RF-SCORE:    0.00 PKD
ROOT
HETATM    1  C   UNL     1      -8.051   4.287  67.341  1.00  0.00    -0.099 C  
HETATM    2  C   UNL     1      -9.429   4.554  67.921  1.00  0.00    -0.155 C  
ENDROOT
BRANCH   2   3
HETATM    3  O   UNL     1      -9.334   5.718  68.754  1.00  0.00    -0.117 OA 
BRANCH   3   4
HETATM    4  C   UNL     1     -10.443   6.509  68.786  1.00  0.00    -0.213 C  
HETATM    5  O   UNL     1     -11.464   6.249  69.408  1.00  0.00    -0.427 OA 
BRANCH   4   6
HETATM    6  C   UNL     1     -10.179   7.729  68.069  1.00  0.00    -0.201 A  
HETATM    7  C   UNL     1     -10.244   7.965  66.708  1.00  0.00    -0.287 A  
HETATM    8  N   UNL     1      -9.867   9.239  66.397  1.00  0.00    -0.256 NA 
HETATM    9  C   UNL     1      -9.565   9.796  67.545  1.00  0.00    -0.150 A  
HETATM   10  N   UNL     1      -9.748   8.937  68.595  1.00  0.00    -0.158 NA 
BRANCH  10  11
HETATM   11  C   UNL     1      -9.571   9.269  70.019  1.00  0.00    -0.209 C  
HETATM   12  C   UNL     1      -8.623   8.271  70.689  1.00  0.00    -0.139 C  
BRANCH  11  13
HETATM   13  C   UNL     1     -10.902   9.454  70.744  1.00  0.00    -0.372 A  
HETATM   14  C   UNL     1     -11.700  10.571  70.436  1.00  0.00    -0.434 A  
HETATM   15  C   UNL     1     -12.897  10.804  71.115  1.00  0.00    -0.513 A  
HETATM   16  C   UNL     1     -13.320   9.923  72.107  1.00  0.00    -0.498 A  
HETATM   17  C   UNL     1     -12.554   8.802  72.410  1.00  0.00    -0.430 A  
HETATM   18  C   UNL     1     -11.356   8.566  71.733  1.00  0.00    -0.377 A  
ENDBRANCH  11  13
ENDBRANCH  10  11
ENDBRANCH   4   6
ENDBRANCH   3   4
ENDBRANCH   2   3
TORSDOF 5
ENDMDL
MODEL      156
REMARK 921   NORMALIZED FREE ENERGY PREDICTED BY IDOCK:   -3.60 KCAL/MOL
REMARK 922        TOTAL FREE ENERGY PREDICTED BY IDOCK:   -5.19 KCAL/MOL
REMARK 923 INTER-LIGAND FREE ENERGY PREDICTED BY IDOCK:   -4.83 KCAL/MOL
REMARK 924 INTRA-LIGAND FREE ENERGY PREDICTED BY IDOCK:   -0.37 KCAL/MOL
REMARK 927      BINDING AFFINITY PREDICTED BY RF-SCORE:    0.00 PKD
ROOT
HETATM    1  C   UNL     1     -10.952   7.956  72.680  1.00  0.00    -0.440 C  
HETATM    2  C   UNL     1     -10.179   7.362  71.516  1.00  0.00    -0.192 C  
ENDROOT
BRANCH   2   3
HETATM    3  O   UNL     1     -10.512   8.114  70.341  1.00  0.00    -0.207 OA 
BRANCH   3   4
HETATM    4  C   UNL     1      -9.516   8.900  69.846  1.00  0.00    -0.170 C  
HETATM    5  O   UNL     1      -8.554   9.291  70.491  1.00  0.00    -0.198 OA 
BRANCH   4   6
HETATM    6  C   UNL     1      -9.724   9.101  68.436  1.00  0.00    -0.152 A  
HETATM    7  C   UNL     1      -9.450   8.239  67.390  1.00  0.00    -0.151 A  
HETATM    8  N   UNL     1      -9.733   8.805  66.180  1.00  0.00    -0.265 NA 
HETATM    9  C   UNL     1     -10.175  10.007  66.461  1.00  0.00    -0.224 A  
HETATM   10  N   UNL     1     -10.207  10.239  67.810  1.00  0.00    -0.176 NA 
BRANCH  10  11
HETATM   11  C   UNL     1     -10.718  11.457  68.462  1.00  0.00    -0.201 C  
HETATM   12  C   UNL     1     -12.033  11.164  69.190  1.00  0.00    -0.413 C  
BRANCH  11  13
HETATM   13  C   UNL     1     -10.781  12.647  67.508  1.00  0.00    -0.247 A  
HETATM   14  C   UNL     1     -12.018  13.012  66.948  1.00  0.00    -0.415 A  
HETATM   15  C   UNL     1     -12.107  14.061  66.031  1.00  0.00    -0.461 A  
HETATM   16  C   UNL     1     -10.964  14.766  65.664  1.00  0.00    -0.345 A  
HETATM   17  C   UNL     1      -9.735  14.433  66.225  1.00  0.00    -0.330 A  
HETATM   18  C   UNL     1      -9.642  13.385  67.142  1.00  0.00    -0.241 A  
ENDBRANCH  11  13
ENDBRANCH  10  11
ENDBRANCH   4   6
ENDBRANCH   3   4
ENDBRANCH   2   3
TORSDOF 5
ENDMDL
MODEL      157
REMARK 921   NORMALIZED FREE ENERGY PREDICTED BY IDOCK:   -3.59 KCAL/MOL
REMARK 922        TOTAL FREE ENERGY PREDICTED BY IDOCK:   -5.19 KCAL/MOL
REMARK 923 INTER-LIGAND FREE ENERGY PREDICTED BY IDOCK:   -4.49 KCAL/MOL
REMARK 924 INTRA-LIGAND FREE ENERGY PREDICTED BY IDOCK:   -0.71 KCAL/MOL
REMARK 927      BINDING AFFINITY PREDICTED BY RF-SCORE:    0.00 PKD
ROOT
HETATM    1  C   UNL     1     -12.795  10.138  71.246  1.00  0.00    -0.508 C  
HETATM    2  C   UNL     1     -12.429   8.899  72.045  1.00  0.00    -0.392 C  
ENDROOT
BRANCH   2   3
HETATM    3  O   UNL     1     -11.000   8.782  72.040  1.00  0.00    -0.339 OA 
BRANCH   3   4
HETATM    4  C   UNL     1     -10.485   7.829  72.865  1.00  0.00    -0.350 C  
HETATM    5  O   UNL     1     -11.098   7.301  73.783  1.00  0.00    -0.172 OA 
BRANCH   4   6
HETATM    6  C   UNL     1      -9.164   7.474  72.418  1.00  0.00    -0.147 A  
HETATM    7  C   UNL     1      -7.975   8.154  72.608  1.00  0.00    -0.146 A  
HETATM    8  N   UNL     1      -6.931   7.531  71.985  1.00  0.00    -0.061 NA 
HETATM    9  C   UNL     1      -7.458   6.478  71.409  1.00  0.00    -0.089 A  
HETATM   10  N   UNL     1      -8.802   6.380  71.648  1.00  0.00    -0.136 NA 
BRANCH  10  11
HETATM   11  C   UNL     1      -9.677   5.280  71.209  1.00  0.00    -0.166 C  
HETATM   12  C   UNL     1      -9.077   3.927  71.604  1.00  0.00    -0.170 C  
BRANCH  11  13
HETATM   13  C   UNL     1     -10.060   5.390  69.736  1.00  0.00    -0.319 A  
HETATM   14  C   UNL     1      -9.438   4.543  68.800  1.00  0.00    -0.221 A  
HETATM   15  C   UNL     1      -9.723   4.650  67.438  1.00  0.00    -0.215 A  
HETATM   16  C   UNL     1     -10.636   5.599  66.989  1.00  0.00    -0.358 A  
HETATM   17  C   UNL     1     -11.277   6.431  67.901  1.00  0.00    -0.262 A  
HETATM   18  C   UNL     1     -10.996   6.327  69.264  1.00  0.00    -0.435 A  
ENDBRANCH  11  13
ENDBRANCH  10  11
ENDBRANCH   4   6
ENDBRANCH   3   4
ENDBRANCH   2   3
TORSDOF 5
ENDMDL
MODEL      158
REMARK 921   NORMALIZED FREE ENERGY PREDICTED BY IDOCK:   -3.59 KCAL/MOL
REMARK 922        TOTAL FREE ENERGY PREDICTED BY IDOCK:   -5.19 KCAL/MOL
REMARK 923 INTER-LIGAND FREE ENERGY PREDICTED BY IDOCK:   -5.16 KCAL/MOL
REMARK 924 INTRA-LIGAND FREE ENERGY PREDICTED BY IDOCK:   -0.03 KCAL/MOL
REMARK 927      BINDING AFFINITY PREDICTED BY RF-SCORE:    0.00 PKD
ROOT
HETATM    1  C   UNL     1     -10.894   9.872  68.566  1.00  0.00    -0.257 C  
HETATM    2  C   UNL     1     -10.198  10.576  69.718  1.00  0.00    -0.123 C  
ENDROOT
BRANCH   2   3
HETATM    3  O   UNL     1     -10.281  11.988  69.482  1.00  0.00     0.297 OA 
BRANCH   3   4
HETATM    4  C   UNL     1     -11.534  12.520  69.539  1.00  0.00    -0.230 C  
HETATM    5  O   UNL     1     -12.325  12.337  70.453  1.00  0.00    -0.302 OA 
BRANCH   4   6
HETATM    6  C   UNL     1     -11.727  13.405  68.420  1.00  0.00    -0.355 A  
HETATM    7  C   UNL     1     -12.188  13.107  67.151  1.00  0.00    -0.191 A  
HETATM    8  N   UNL     1     -12.182  14.206  66.340  1.00  0.00    -0.459 NA 
HETATM    9  C   UNL     1     -11.721  15.179  67.087  1.00  0.00    -0.130 A  
HETATM   10  N   UNL     1     -11.442  14.760  68.360  1.00  0.00    -0.300 NA 
BRANCH  10  11
HETATM   11  C   UNL     1     -10.981  15.616  69.466  1.00  0.00    -0.281 C  
HETATM   12  C   UNL     1      -9.553  15.244  69.874  1.00  0.00    -0.061 C  
BRANCH  11  13
HETATM   13  C   UNL     1     -11.974  15.659  70.625  1.00  0.00    -0.438 A  
HETATM   14  C   UNL     1     -11.499  15.908  71.926  1.00  0.00    -0.442 A  
HETATM   15  C   UNL     1     -12.368  15.902  73.018  1.00  0.00    -0.605 A  
HETATM   16  C   UNL     1     -13.725  15.655  72.829  1.00  0.00    -0.662 A  
HETATM   17  C   UNL     1     -14.216  15.428  71.547  1.00  0.00    -0.584 A  
HETATM   18  C   UNL     1     -13.350  15.433  70.452  1.00  0.00    -0.038 A  
ENDBRANCH  11  13
ENDBRANCH  10  11
ENDBRANCH   4   6
ENDBRANCH   3   4
ENDBRANCH   2   3
TORSDOF 5
ENDMDL
MODEL      159
REMARK 921   NORMALIZED FREE ENERGY PREDICTED BY IDOCK:   -3.58 KCAL/MOL
REMARK 922        TOTAL FREE ENERGY PREDICTED BY IDOCK:   -5.17 KCAL/MOL
REMARK 923 INTER-LIGAND FREE ENERGY PREDICTED BY IDOCK:   -4.49 KCAL/MOL
REMARK 924 INTRA-LIGAND FREE ENERGY PREDICTED BY IDOCK:   -0.68 KCAL/MOL
REMARK 927      BINDING AFFINITY PREDICTED BY RF-SCORE:    0.00 PKD
ROOT
HETATM    1  C   UNL     1     -13.616  14.592  71.215  1.00  0.00    -0.449 C  
HETATM    2  C   UNL     1     -12.441  14.303  70.297  1.00  0.00    -0.361 C  
ENDROOT
BRANCH   2   3
HETATM    3  O   UNL     1     -12.068  15.534  69.663  1.00  0.00    -0.351 OA 
BRANCH   3   4
HETATM    4  C   UNL     1     -10.848  16.029  70.012  1.00  0.00    -0.353 C  
HETATM    5  O   UNL     1     -10.295  15.821  71.083  1.00  0.00     0.328 OA 
BRANCH   4   6
HETATM    6  C   UNL     1     -10.280  16.732  68.892  1.00  0.00    -0.304 A  
HETATM    7  C   UNL     1     -10.505  18.034  68.483  1.00  0.00    -0.280 A  
HETATM    8  N   UNL     1      -9.825  18.329  67.336  1.00  0.00    -0.306 NA 
HETATM    9  C   UNL     1      -9.185  17.227  67.027  1.00  0.00    -0.243 A  
HETATM   10  N   UNL     1      -9.409  16.230  67.938  1.00  0.00    -0.209 NA 
BRANCH  10  11
HETATM   11  C   UNL     1      -8.785  14.896  67.924  1.00  0.00    -0.164 C  
HETATM   12  C   UNL     1      -7.492  14.916  67.104  1.00  0.00    -0.111 C  
BRANCH  11  13
HETATM   13  C   UNL     1      -9.765  13.797  67.524  1.00  0.00    -0.230 A  
HETATM   14  C   UNL     1      -9.613  12.510  68.071  1.00  0.00    -0.212 A  
HETATM   15  C   UNL     1     -10.457  11.466  67.689  1.00  0.00    -0.225 A  
HETATM   16  C   UNL     1     -11.470  11.691  66.761  1.00  0.00    -0.299 A  
HETATM   17  C   UNL     1     -11.650  12.962  66.226  1.00  0.00    -0.424 A  
HETATM   18  C   UNL     1     -10.808  14.010  66.606  1.00  0.00    -0.297 A  
ENDBRANCH  11  13
ENDBRANCH  10  11
ENDBRANCH   4   6
ENDBRANCH   3   4
ENDBRANCH   2   3
TORSDOF 5
ENDMDL
MODEL      160
REMARK 921   NORMALIZED FREE ENERGY PREDICTED BY IDOCK:   -3.58 KCAL/MOL
REMARK 922        TOTAL FREE ENERGY PREDICTED BY IDOCK:   -5.17 KCAL/MOL
REMARK 923 INTER-LIGAND FREE ENERGY PREDICTED BY IDOCK:   -4.52 KCAL/MOL
REMARK 924 INTRA-LIGAND FREE ENERGY PREDICTED BY IDOCK:   -0.65 KCAL/MOL
REMARK 927      BINDING AFFINITY PREDICTED BY RF-SCORE:    0.00 PKD
ROOT
HETATM    1  C   UNL     1     -12.099  14.594  69.094  1.00  0.00    -0.283 C  
HETATM    2  C   UNL     1     -11.815  13.458  68.126  1.00  0.00    -0.361 C  
ENDROOT
BRANCH   2   3
HETATM    3  O   UNL     1     -10.883  12.570  68.757  1.00  0.00    -0.242 OA 
BRANCH   3   4
HETATM    4  C   UNL     1     -11.373  11.344  69.090  1.00  0.00    -0.288 C  
HETATM    5  O   UNL     1     -12.393  11.156  69.739  1.00  0.00    -0.303 OA 
BRANCH   4   6
HETATM    6  C   UNL     1     -10.569  10.324  68.471  1.00  0.00    -0.213 A  
HETATM    7  C   UNL     1     -10.440  10.020  67.128  1.00  0.00    -0.244 A  
HETATM    8  N   UNL     1      -9.623   8.944  66.928  1.00  0.00    -0.174 NA 
HETATM    9  C   UNL     1      -9.247   8.575  68.128  1.00  0.00    -0.137 A  
HETATM   10  N   UNL     1      -9.774   9.380  69.102  1.00  0.00    -0.160 NA 
BRANCH  10  11
HETATM   11  C   UNL     1      -9.492   9.284  70.544  1.00  0.00    -0.264 C  
HETATM   12  C   UNL     1      -7.982   9.281  70.797  1.00  0.00    -0.187 C  
BRANCH  11  13
HETATM   13  C   UNL     1     -10.242   8.134  71.210  1.00  0.00    -0.240 A  
HETATM   14  C   UNL     1      -9.571   7.331  72.151  1.00  0.00    -0.162 A  
HETATM   15  C   UNL     1     -10.207   6.238  72.742  1.00  0.00    -0.202 A  
HETATM   16  C   UNL     1     -11.524   5.933  72.409  1.00  0.00    -0.358 A  
HETATM   17  C   UNL     1     -12.211   6.729  71.498  1.00  0.00    -0.413 A  
HETATM   18  C   UNL     1     -11.578   7.823  70.905  1.00  0.00    -0.289 A  
ENDBRANCH  11  13
ENDBRANCH  10  11
ENDBRANCH   4   6
ENDBRANCH   3   4
ENDBRANCH   2   3
TORSDOF 5
ENDMDL
MODEL      161
REMARK 921   NORMALIZED FREE ENERGY PREDICTED BY IDOCK:   -3.57 KCAL/MOL
REMARK 922        TOTAL FREE ENERGY PREDICTED BY IDOCK:   -5.16 KCAL/MOL
REMARK 923 INTER-LIGAND FREE ENERGY PREDICTED BY IDOCK:   -4.63 KCAL/MOL
REMARK 924 INTRA-LIGAND FREE ENERGY PREDICTED BY IDOCK:   -0.54 KCAL/MOL
REMARK 927      BINDING AFFINITY PREDICTED BY RF-SCORE:    0.00 PKD
ROOT
HETATM    1  C   UNL     1      -5.886  11.950  68.218  1.00  0.00    -0.050 C  
HETATM    2  C   UNL     1      -6.960  12.922  67.761  1.00  0.00    -0.138 C  
ENDROOT
BRANCH   2   3
HETATM    3  O   UNL     1      -8.131  12.682  68.553  1.00  0.00    -0.143 OA 
BRANCH   3   4
HETATM    4  C   UNL     1      -9.305  12.628  67.863  1.00  0.00    -0.204 C  
HETATM    5  O   UNL     1      -9.995  13.600  67.590  1.00  0.00    -0.231 OA 
BRANCH   4   6
HETATM    6  C   UNL     1      -9.536  11.278  67.422  1.00  0.00    -0.169 A  
HETATM    7  C   UNL     1      -9.855  10.823  66.156  1.00  0.00    -0.221 A  
HETATM    8  N   UNL     1     -10.055   9.473  66.138  1.00  0.00    -0.281 NA 
HETATM    9  C   UNL     1      -9.868   9.084  67.375  1.00  0.00    -0.190 A  
HETATM   10  N   UNL     1      -9.537  10.128  68.197  1.00  0.00    -0.138 NA 
BRANCH  10  11
HETATM   11  C   UNL     1      -9.191  10.024  69.624  1.00  0.00    -0.215 C  
HETATM   12  C   UNL     1      -8.134   8.938  69.843  1.00  0.00    -0.112 C  
BRANCH  11  13
HETATM   13  C   UNL     1     -10.423   9.889  70.515  1.00  0.00    -0.330 A  
HETATM   14  C   UNL     1     -10.461   8.868  71.482  1.00  0.00    -0.393 A  
HETATM   15  C   UNL     1     -11.591   8.679  72.279  1.00  0.00    -0.424 A  
HETATM   16  C   UNL     1     -12.697   9.511  72.130  1.00  0.00    -0.442 A  
HETATM   17  C   UNL     1     -12.669  10.541  71.195  1.00  0.00    -0.518 A  
HETATM   18  C   UNL     1     -11.540  10.733  70.395  1.00  0.00    -0.431 A  
ENDBRANCH  11  13
ENDBRANCH  10  11
ENDBRANCH   4   6
ENDBRANCH   3   4
ENDBRANCH   2   3
TORSDOF 5
ENDMDL
MODEL      162
REMARK 921   NORMALIZED FREE ENERGY PREDICTED BY IDOCK:   -3.57 KCAL/MOL
REMARK 922        TOTAL FREE ENERGY PREDICTED BY IDOCK:   -5.16 KCAL/MOL
REMARK 923 INTER-LIGAND FREE ENERGY PREDICTED BY IDOCK:   -4.60 KCAL/MOL
REMARK 924 INTRA-LIGAND FREE ENERGY PREDICTED BY IDOCK:   -0.56 KCAL/MOL
REMARK 927      BINDING AFFINITY PREDICTED BY RF-SCORE:    0.00 PKD
ROOT
HETATM    1  C   UNL     1     -10.965  10.670  68.702  1.00  0.00    -0.291 C  
HETATM    2  C   UNL     1     -10.875  11.410  67.379  1.00  0.00    -0.254 C  
ENDROOT
BRANCH   2   3
HETATM    3  O   UNL     1     -12.065  12.198  67.237  1.00  0.00    -0.565 OA 
BRANCH   3   4
HETATM    4  C   UNL     1     -12.010  13.446  67.780  1.00  0.00    -0.324 C  
HETATM    5  O   UNL     1     -12.360  13.724  68.918  1.00  0.00    -0.291 OA 
BRANCH   4   6
HETATM    6  C   UNL     1     -11.383  14.345  66.846  1.00  0.00    -0.348 A  
HETATM    7  C   UNL     1     -11.741  14.623  65.540  1.00  0.00    -0.316 A  
HETATM    8  N   UNL     1     -10.868  15.491  64.950  1.00  0.00    -0.443 NA 
HETATM    9  C   UNL     1      -9.972  15.752  65.871  1.00  0.00    -0.352 A  
HETATM   10  N   UNL     1     -10.238  15.100  67.045  1.00  0.00    -0.258 NA 
BRANCH  10  11
HETATM   11  C   UNL     1      -9.473  15.233  68.297  1.00  0.00    -0.205 C  
HETATM   12  C   UNL     1      -9.330  16.707  68.684  1.00  0.00    -0.247 C  
BRANCH  11  13
HETATM   13  C   UNL     1      -8.156  14.463  68.260  1.00  0.00    -0.139 A  
HETATM   14  C   UNL     1      -6.951  15.154  68.489  1.00  0.00    -0.105 A  
HETATM   15  C   UNL     1      -5.723  14.495  68.411  1.00  0.00    -0.106 A  
HETATM   16  C   UNL     1      -5.678  13.136  68.111  1.00  0.00    -0.097 A  
HETATM   17  C   UNL     1      -6.859  12.432  67.904  1.00  0.00    -0.099 A  
HETATM   18  C   UNL     1      -8.090  13.087  67.980  1.00  0.00    -0.157 A  
ENDBRANCH  11  13
ENDBRANCH  10  11
ENDBRANCH   4   6
ENDBRANCH   3   4
ENDBRANCH   2   3
TORSDOF 5
ENDMDL
MODEL      163
REMARK 921   NORMALIZED FREE ENERGY PREDICTED BY IDOCK:   -3.55 KCAL/MOL
REMARK 922        TOTAL FREE ENERGY PREDICTED BY IDOCK:   -5.14 KCAL/MOL
REMARK 923 INTER-LIGAND FREE ENERGY PREDICTED BY IDOCK:   -4.95 KCAL/MOL
REMARK 924 INTRA-LIGAND FREE ENERGY PREDICTED BY IDOCK:   -0.19 KCAL/MOL
REMARK 927      BINDING AFFINITY PREDICTED BY RF-SCORE:    0.00 PKD
ROOT
HETATM    1  C   UNL     1     -12.861  15.520  71.056  1.00  0.00    -0.543 C  
HETATM    2  C   UNL     1     -12.000  14.402  70.494  1.00  0.00    -0.325 C  
ENDROOT
BRANCH   2   3
HETATM    3  O   UNL     1     -11.075  14.988  69.568  1.00  0.00    -0.252 OA 
BRANCH   3   4
HETATM    4  C   UNL     1     -11.519  15.096  68.285  1.00  0.00    -0.336 C  
HETATM    5  O   UNL     1     -12.458  14.466  67.819  1.00  0.00    -0.105 OA 
BRANCH   4   6
HETATM    6  C   UNL     1     -10.782  16.134  67.612  1.00  0.00    -0.318 A  
HETATM    7  C   UNL     1     -10.656  17.467  67.956  1.00  0.00    -0.384 A  
HETATM    8  N   UNL     1      -9.918  18.159  67.039  1.00  0.00    -0.321 NA 
HETATM    9  C   UNL     1      -9.589  17.274  66.129  1.00  0.00    -0.202 A  
HETATM   10  N   UNL     1     -10.069  16.027  66.428  1.00  0.00    -0.284 NA 
BRANCH  10  11
HETATM   11  C   UNL     1      -9.817  14.800  65.655  1.00  0.00    -0.327 C  
HETATM   12  C   UNL     1     -11.026  14.460  64.778  1.00  0.00    -0.409 C  
BRANCH  11  13
HETATM   13  C   UNL     1      -9.333  13.647  66.531  1.00  0.00    -0.242 A  
HETATM   14  C   UNL     1      -8.203  13.836  67.348  1.00  0.00    -0.194 A  
HETATM   15  C   UNL     1      -7.698  12.790  68.123  1.00  0.00    -0.137 A  
HETATM   16  C   UNL     1      -8.317  11.543  68.100  1.00  0.00    -0.152 A  
HETATM   17  C   UNL     1      -9.448  11.345  67.315  1.00  0.00    -0.176 A  
HETATM   18  C   UNL     1      -9.956  12.388  66.539  1.00  0.00    -0.242 A  
ENDBRANCH  11  13
ENDBRANCH  10  11
ENDBRANCH   4   6
ENDBRANCH   3   4
ENDBRANCH   2   3
TORSDOF 5
ENDMDL
MODEL      164
REMARK 921   NORMALIZED FREE ENERGY PREDICTED BY IDOCK:   -3.54 KCAL/MOL
REMARK 922        TOTAL FREE ENERGY PREDICTED BY IDOCK:   -5.13 KCAL/MOL
REMARK 923 INTER-LIGAND FREE ENERGY PREDICTED BY IDOCK:   -5.07 KCAL/MOL
REMARK 924 INTRA-LIGAND FREE ENERGY PREDICTED BY IDOCK:   -0.06 KCAL/MOL
REMARK 927      BINDING AFFINITY PREDICTED BY RF-SCORE:    0.00 PKD
ROOT
HETATM    1  C   UNL     1     -10.317   4.351  72.336  1.00  0.00    -0.241 C  
HETATM    2  C   UNL     1     -11.507   5.033  72.987  1.00  0.00    -0.265 C  
ENDROOT
BRANCH   2   3
HETATM    3  O   UNL     1     -11.750   6.256  72.278  1.00  0.00    -0.302 OA 
BRANCH   3   4
HETATM    4  C   UNL     1     -11.405   7.396  72.939  1.00  0.00    -0.273 C  
HETATM    5  O   UNL     1     -10.685   7.435  73.927  1.00  0.00    -0.319 OA 
BRANCH   4   6
HETATM    6  C   UNL     1     -11.928   8.535  72.231  1.00  0.00    -0.385 A  
HETATM    7  C   UNL     1     -13.051   9.291  72.516  1.00  0.00    -0.343 A  
HETATM    8  N   UNL     1     -13.259  10.262  71.580  1.00  0.00    -0.391 NA 
HETATM    9  C   UNL     1     -12.284  10.116  70.715  1.00  0.00    -0.338 A  
HETATM   10  N   UNL     1     -11.438   9.097  71.063  1.00  0.00    -0.286 NA 
BRANCH  10  11
HETATM   11  C   UNL     1     -10.206   8.720  70.349  1.00  0.00    -0.197 C  
HETATM   12  C   UNL     1      -8.976   8.999  71.217  1.00  0.00    -0.281 C  
BRANCH  11  13
HETATM   13  C   UNL     1     -10.136   9.322  68.948  1.00  0.00    -0.207 A  
HETATM   14  C   UNL     1      -9.879  10.698  68.806  1.00  0.00    -0.196 A  
HETATM   15  C   UNL     1      -9.860  11.296  67.544  1.00  0.00    -0.195 A  
HETATM   16  C   UNL     1     -10.089  10.528  66.406  1.00  0.00    -0.285 A  
HETATM   17  C   UNL     1     -10.322   9.162  66.525  1.00  0.00    -0.269 A  
HETATM   18  C   UNL     1     -10.342   8.561  67.785  1.00  0.00    -0.298 A  
ENDBRANCH  11  13
ENDBRANCH  10  11
ENDBRANCH   4   6
ENDBRANCH   3   4
ENDBRANCH   2   3
TORSDOF 5
ENDMDL
MODEL      165
REMARK 921   NORMALIZED FREE ENERGY PREDICTED BY IDOCK:   -3.54 KCAL/MOL
REMARK 922        TOTAL FREE ENERGY PREDICTED BY IDOCK:   -5.13 KCAL/MOL
REMARK 923 INTER-LIGAND FREE ENERGY PREDICTED BY IDOCK:   -6.04 KCAL/MOL
REMARK 924 INTRA-LIGAND FREE ENERGY PREDICTED BY IDOCK:    0.91 KCAL/MOL
REMARK 927      BINDING AFFINITY PREDICTED BY RF-SCORE:    0.00 PKD
ROOT
HETATM    1  C   UNL     1      -7.313  17.635  67.314  1.00  0.00    -0.203 C  
HETATM    2  C   UNL     1      -8.020  16.486  68.010  1.00  0.00    -0.158 C  
ENDROOT
BRANCH   2   3
HETATM    3  O   UNL     1      -9.082  17.040  68.799  1.00  0.00    -0.265 OA 
BRANCH   3   4
HETATM    4  C   UNL     1     -10.290  17.130  68.176  1.00  0.00    -0.350 C  
HETATM    5  O   UNL     1     -10.673  18.102  67.539  1.00  0.00    -0.412 OA 
BRANCH   4   6
HETATM    6  C   UNL     1     -10.983  15.874  68.296  1.00  0.00    -0.329 A  
HETATM    7  C   UNL     1     -11.722  15.392  69.361  1.00  0.00    -0.351 A  
HETATM    8  N   UNL     1     -12.184  14.129  69.126  1.00  0.00    -0.312 NA 
HETATM    9  C   UNL     1     -11.738  13.820  67.932  1.00  0.00    -0.360 A  
HETATM   10  N   UNL     1     -11.018  14.840  67.373  1.00  0.00    -0.304 NA 
BRANCH  10  11
HETATM   11  C   UNL     1     -10.442  14.846  66.017  1.00  0.00    -0.316 C  
HETATM   12  C   UNL     1     -10.509  16.250  65.412  1.00  0.00    -0.365 C  
BRANCH  11  13
HETATM   13  C   UNL     1     -11.029  13.751  65.130  1.00  0.00    -0.337 A  
HETATM   14  C   UNL     1     -10.167  12.795  64.561  1.00  0.00    -0.333 A  
HETATM   15  C   UNL     1     -10.659  11.811  63.702  1.00  0.00    -0.496 A  
HETATM   16  C   UNL     1     -12.017  11.761  63.403  1.00  0.00    -0.443 A  
HETATM   17  C   UNL     1     -12.887  12.684  63.973  1.00  0.00    -0.262 A  
HETATM   18  C   UNL     1     -12.400  13.670  64.833  1.00  0.00    -0.442 A  
ENDBRANCH  11  13
ENDBRANCH  10  11
ENDBRANCH   4   6
ENDBRANCH   3   4
ENDBRANCH   2   3
TORSDOF 5
ENDMDL
MODEL      166
REMARK 921   NORMALIZED FREE ENERGY PREDICTED BY IDOCK:   -3.54 KCAL/MOL
REMARK 922        TOTAL FREE ENERGY PREDICTED BY IDOCK:   -5.13 KCAL/MOL
REMARK 923 INTER-LIGAND FREE ENERGY PREDICTED BY IDOCK:   -4.47 KCAL/MOL
REMARK 924 INTRA-LIGAND FREE ENERGY PREDICTED BY IDOCK:   -0.66 KCAL/MOL
REMARK 927      BINDING AFFINITY PREDICTED BY RF-SCORE:    0.00 PKD
ROOT
HETATM    1  C   UNL     1      -8.287   8.930  63.528  1.00  0.00    -0.168 C  
HETATM    2  C   UNL     1      -7.933   8.867  65.004  1.00  0.00    -0.125 C  
ENDROOT
BRANCH   2   3
HETATM    3  O   UNL     1      -7.654  10.203  65.444  1.00  0.00    -0.133 OA 
BRANCH   3   4
HETATM    4  C   UNL     1      -7.315  10.330  66.757  1.00  0.00    -0.106 C  
HETATM    5  O   UNL     1      -6.190  10.589  67.162  1.00  0.00    -0.060 OA 
BRANCH   4   6
HETATM    6  C   UNL     1      -8.499  10.219  67.567  1.00  0.00    -0.118 A  
HETATM    7  C   UNL     1      -8.897   9.174  68.380  1.00  0.00    -0.129 A  
HETATM    8  N   UNL     1     -10.115   9.411  68.951  1.00  0.00    -0.183 NA 
HETATM    9  C   UNL     1     -10.478  10.587  68.501  1.00  0.00    -0.188 A  
HETATM   10  N   UNL     1      -9.536  11.133  67.671  1.00  0.00    -0.168 NA 
BRANCH  10  11
HETATM   11  C   UNL     1      -9.600  12.471  67.058  1.00  0.00    -0.216 C  
HETATM   12  C   UNL     1      -9.819  13.543  68.128  1.00  0.00    -0.237 C  
BRANCH  11  13
HETATM   13  C   UNL     1     -10.589  12.533  65.896  1.00  0.00    -0.292 A  
HETATM   14  C   UNL     1     -10.159  12.158  64.610  1.00  0.00    -0.282 A  
HETATM   15  C   UNL     1     -11.017  12.251  63.513  1.00  0.00    -0.521 A  
HETATM   16  C   UNL     1     -12.319  12.713  63.684  1.00  0.00    -0.584 A  
HETATM   17  C   UNL     1     -12.769  13.068  64.951  1.00  0.00    -0.456 A  
HETATM   18  C   UNL     1     -11.913  12.976  66.051  1.00  0.00    -0.498 A  
ENDBRANCH  11  13
ENDBRANCH  10  11
ENDBRANCH   4   6
ENDBRANCH   3   4
ENDBRANCH   2   3
TORSDOF 5
ENDMDL
MODEL      167
REMARK 921   NORMALIZED FREE ENERGY PREDICTED BY IDOCK:   -3.54 KCAL/MOL
REMARK 922        TOTAL FREE ENERGY PREDICTED BY IDOCK:   -5.12 KCAL/MOL
REMARK 923 INTER-LIGAND FREE ENERGY PREDICTED BY IDOCK:   -4.78 KCAL/MOL
REMARK 924 INTRA-LIGAND FREE ENERGY PREDICTED BY IDOCK:   -0.34 KCAL/MOL
REMARK 927      BINDING AFFINITY PREDICTED BY RF-SCORE:    0.00 PKD
ROOT
HETATM    1  C   UNL     1      -7.239   9.591  64.985  1.00  0.00    -0.110 C  
HETATM    2  C   UNL     1      -7.448   9.224  66.444  1.00  0.00    -0.093 C  
ENDROOT
BRANCH   2   3
HETATM    3  O   UNL     1      -8.432  10.117  66.982  1.00  0.00    -0.128 OA 
BRANCH   3   4
HETATM    4  C   UNL     1      -9.724   9.832  66.656  1.00  0.00    -0.201 C  
HETATM    5  O   UNL     1     -10.414  10.505  65.904  1.00  0.00    -0.228 OA 
BRANCH   4   6
HETATM    6  C   UNL     1     -10.098   8.573  67.245  1.00  0.00    -0.251 A  
HETATM    7  C   UNL     1     -10.464   7.398  66.616  1.00  0.00    -0.131 A  
HETATM    8  N   UNL     1     -10.806   6.428  67.514  1.00  0.00    -0.316 NA 
HETATM    9  C   UNL     1     -10.661   6.987  68.691  1.00  0.00    -0.189 A  
HETATM   10  N   UNL     1     -10.220   8.279  68.594  1.00  0.00    -0.201 NA 
BRANCH  10  11
HETATM   11  C   UNL     1      -9.887   9.162  69.725  1.00  0.00    -0.181 C  
HETATM   12  C   UNL     1      -8.675   8.622  70.488  1.00  0.00    -0.178 C  
BRANCH  11  13
HETATM   13  C   UNL     1     -11.097   9.466  70.604  1.00  0.00    -0.351 A  
HETATM   14  C   UNL     1     -11.496   8.526  71.572  1.00  0.00    -0.350 A  
HETATM   15  C   UNL     1     -12.628   8.744  72.358  1.00  0.00    -0.430 A  
HETATM   16  C   UNL     1     -13.376   9.907  72.197  1.00  0.00    -0.498 A  
HETATM   17  C   UNL     1     -12.984  10.859  71.261  1.00  0.00    -0.492 A  
HETATM   18  C   UNL     1     -11.852  10.644  70.472  1.00  0.00    -0.453 A  
ENDBRANCH  11  13
ENDBRANCH  10  11
ENDBRANCH   4   6
ENDBRANCH   3   4
ENDBRANCH   2   3
TORSDOF 5
ENDMDL
MODEL      168
REMARK 921   NORMALIZED FREE ENERGY PREDICTED BY IDOCK:   -3.54 KCAL/MOL
REMARK 922        TOTAL FREE ENERGY PREDICTED BY IDOCK:   -5.12 KCAL/MOL
REMARK 923 INTER-LIGAND FREE ENERGY PREDICTED BY IDOCK:   -4.51 KCAL/MOL
REMARK 924 INTRA-LIGAND FREE ENERGY PREDICTED BY IDOCK:   -0.61 KCAL/MOL
REMARK 927      BINDING AFFINITY PREDICTED BY RF-SCORE:    0.00 PKD
ROOT
HETATM    1  C   UNL     1     -13.550   9.497  71.799  1.00  0.00    -0.447 C  
HETATM    2  C   UNL     1     -12.804  10.653  71.155  1.00  0.00    -0.420 C  
ENDROOT
BRANCH   2   3
HETATM    3  O   UNL     1     -11.418  10.294  71.085  1.00  0.00    -0.341 OA 
BRANCH   3   4
HETATM    4  C   UNL     1     -10.957   9.971  69.845  1.00  0.00    -0.293 C  
HETATM    5  O   UNL     1     -11.447  10.367  68.797  1.00  0.00    -0.241 OA 
BRANCH   4   6
HETATM    6  C   UNL     1      -9.754   9.191  69.972  1.00  0.00    -0.195 A  
HETATM    7  C   UNL     1      -8.471   9.619  70.261  1.00  0.00    -0.188 A  
HETATM    8  N   UNL     1      -7.577   8.588  70.242  1.00  0.00    -0.071 NA 
HETATM    9  C   UNL     1      -8.286   7.527  69.940  1.00  0.00    -0.131 A  
HETATM   10  N   UNL     1      -9.612   7.825  69.780  1.00  0.00    -0.167 NA 
BRANCH  10  11
HETATM   11  C   UNL     1     -10.686   6.854  69.511  1.00  0.00    -0.246 C  
HETATM   12  C   UNL     1     -11.264   6.316  70.823  1.00  0.00    -0.387 C  
BRANCH  11  13
HETATM   13  C   UNL     1     -10.261   5.773  68.522  1.00  0.00    -0.246 A  
HETATM   14  C   UNL     1     -10.329   6.041  67.142  1.00  0.00    -0.284 A  
HETATM   15  C   UNL     1     -10.000   5.060  66.206  1.00  0.00    -0.247 A  
HETATM   16  C   UNL     1      -9.591   3.799  66.631  1.00  0.00    -0.197 A  
HETATM   17  C   UNL     1      -9.496   3.522  67.991  1.00  0.00    -0.217 A  
HETATM   18  C   UNL     1      -9.824   4.501  68.931  1.00  0.00    -0.190 A  
ENDBRANCH  11  13
ENDBRANCH  10  11
ENDBRANCH   4   6
ENDBRANCH   3   4
ENDBRANCH   2   3
TORSDOF 5
ENDMDL
MODEL      169
REMARK 921   NORMALIZED FREE ENERGY PREDICTED BY IDOCK:   -3.53 KCAL/MOL
REMARK 922        TOTAL FREE ENERGY PREDICTED BY IDOCK:   -5.11 KCAL/MOL
REMARK 923 INTER-LIGAND FREE ENERGY PREDICTED BY IDOCK:   -4.97 KCAL/MOL
REMARK 924 INTRA-LIGAND FREE ENERGY PREDICTED BY IDOCK:   -0.15 KCAL/MOL
REMARK 927      BINDING AFFINITY PREDICTED BY RF-SCORE:    0.00 PKD
ROOT
HETATM    1  C   UNL     1     -11.480  15.552  71.146  1.00  0.00    -0.442 C  
HETATM    2  C   UNL     1     -11.074  14.721  69.942  1.00  0.00    -0.233 C  
ENDROOT
BRANCH   2   3
HETATM    3  O   UNL     1      -9.747  15.115  69.567  1.00  0.00    -0.217 OA 
BRANCH   3   4
HETATM    4  C   UNL     1      -9.162  14.358  68.597  1.00  0.00    -0.181 C  
HETATM    5  O   UNL     1      -9.370  13.165  68.428  1.00  0.00    -0.207 OA 
BRANCH   4   6
HETATM    6  C   UNL     1      -8.357  15.203  67.754  1.00  0.00    -0.151 A  
HETATM    7  C   UNL     1      -6.982  15.352  67.738  1.00  0.00    -0.163 A  
HETATM    8  N   UNL     1      -6.586  16.292  66.831  1.00  0.00    -0.273 NA 
HETATM    9  C   UNL     1      -7.695  16.730  66.287  1.00  0.00    -0.275 A  
HETATM   10  N   UNL     1      -8.799  16.099  66.793  1.00  0.00    -0.220 NA 
BRANCH  10  11
HETATM   11  C   UNL     1     -10.188  16.303  66.347  1.00  0.00    -0.313 C  
HETATM   12  C   UNL     1     -10.980  17.083  67.399  1.00  0.00    -0.065 C  
BRANCH  11  13
HETATM   13  C   UNL     1     -10.852  15.005  65.895  1.00  0.00    -0.339 A  
HETATM   14  C   UNL     1     -10.375  14.356  64.742  1.00  0.00    -0.352 A  
HETATM   15  C   UNL     1     -10.990  13.197  64.267  1.00  0.00    -0.428 A  
HETATM   16  C   UNL     1     -12.086  12.663  64.940  1.00  0.00    -0.494 A  
HETATM   17  C   UNL     1     -12.558  13.279  66.094  1.00  0.00    -0.208 A  
HETATM   18  C   UNL     1     -11.945  14.438  66.573  1.00  0.00    -0.406 A  
ENDBRANCH  11  13
ENDBRANCH  10  11
ENDBRANCH   4   6
ENDBRANCH   3   4
ENDBRANCH   2   3
TORSDOF 5
ENDMDL
MODEL      170
REMARK 921   NORMALIZED FREE ENERGY PREDICTED BY IDOCK:   -3.52 KCAL/MOL
REMARK 922        TOTAL FREE ENERGY PREDICTED BY IDOCK:   -5.10 KCAL/MOL
REMARK 923 INTER-LIGAND FREE ENERGY PREDICTED BY IDOCK:   -5.27 KCAL/MOL
REMARK 924 INTRA-LIGAND FREE ENERGY PREDICTED BY IDOCK:    0.17 KCAL/MOL
REMARK 927      BINDING AFFINITY PREDICTED BY RF-SCORE:    0.00 PKD
ROOT
HETATM    1  C   UNL     1     -10.657   6.928  73.428  1.00  0.00    -0.372 C  
HETATM    2  C   UNL     1     -11.126   5.858  72.458  1.00  0.00    -0.283 C  
ENDROOT
BRANCH   2   3
HETATM    3  O   UNL     1     -11.189   6.449  71.153  1.00  0.00    -0.275 OA 
BRANCH   3   4
HETATM    4  C   UNL     1     -10.135   6.178  70.334  1.00  0.00    -0.189 C  
HETATM    5  O   UNL     1      -9.209   5.431  70.619  1.00  0.00    -0.142 OA 
BRANCH   4   6
HETATM    6  C   UNL     1     -10.343   6.816  69.061  1.00  0.00    -0.195 A  
HETATM    7  C   UNL     1     -10.814   6.266  67.884  1.00  0.00    -0.333 A  
HETATM    8  N   UNL     1     -10.821   7.177  66.866  1.00  0.00    -0.331 NA 
HETATM    9  C   UNL     1     -10.358   8.282  67.396  1.00  0.00    -0.280 A  
HETATM   10  N   UNL     1     -10.064   8.132  68.725  1.00  0.00    -0.194 NA 
BRANCH  10  11
HETATM   11  C   UNL     1      -9.597   9.196  69.629  1.00  0.00    -0.176 C  
HETATM   12  C   UNL     1      -8.622   8.630  70.665  1.00  0.00    -0.183 C  
BRANCH  11  13
HETATM   13  C   UNL     1     -10.747  10.004  70.224  1.00  0.00    -0.367 A  
HETATM   14  C   UNL     1     -10.997  11.300  69.737  1.00  0.00    -0.170 A  
HETATM   15  C   UNL     1     -12.006  12.090  70.292  1.00  0.00    -0.398 A  
HETATM   16  C   UNL     1     -12.784  11.596  71.335  1.00  0.00    -0.445 A  
HETATM   17  C   UNL     1     -12.565  10.309  71.814  1.00  0.00    -0.488 A  
HETATM   18  C   UNL     1     -11.558   9.516  71.262  1.00  0.00    -0.445 A  
ENDBRANCH  11  13
ENDBRANCH  10  11
ENDBRANCH   4   6
ENDBRANCH   3   4
ENDBRANCH   2   3
TORSDOF 5
ENDMDL
MODEL      171
REMARK 921   NORMALIZED FREE ENERGY PREDICTED BY IDOCK:   -3.51 KCAL/MOL
REMARK 922        TOTAL FREE ENERGY PREDICTED BY IDOCK:   -5.09 KCAL/MOL
REMARK 923 INTER-LIGAND FREE ENERGY PREDICTED BY IDOCK:   -4.84 KCAL/MOL
REMARK 924 INTRA-LIGAND FREE ENERGY PREDICTED BY IDOCK:   -0.25 KCAL/MOL
REMARK 927      BINDING AFFINITY PREDICTED BY RF-SCORE:    0.00 PKD
ROOT
HETATM    1  C   UNL     1      -6.840  18.173  69.125  1.00  0.00    -0.240 C  
HETATM    2  C   UNL     1      -6.544  16.727  68.767  1.00  0.00    -0.180 C  
ENDROOT
BRANCH   2   3
HETATM    3  O   UNL     1      -7.445  16.343  67.719  1.00  0.00    -0.134 OA 
BRANCH   3   4
HETATM    4  C   UNL     1      -8.415  15.456  68.075  1.00  0.00    -0.146 C  
HETATM    5  O   UNL     1      -8.640  15.097  69.222  1.00  0.00    -0.218 OA 
BRANCH   4   6
HETATM    6  C   UNL     1      -9.188  15.104  66.913  1.00  0.00    -0.238 A  
HETATM    7  C   UNL     1      -9.754  15.936  65.965  1.00  0.00    -0.343 A  
HETATM    8  N   UNL     1     -10.465  15.234  65.035  1.00  0.00    -0.404 NA 
HETATM    9  C   UNL     1     -10.351  13.979  65.395  1.00  0.00    -0.359 A  
HETATM   10  N   UNL     1      -9.578  13.834  66.516  1.00  0.00    -0.282 NA 
BRANCH  10  11
HETATM   11  C   UNL     1      -9.192  12.556  67.137  1.00  0.00    -0.205 C  
HETATM   12  C   UNL     1      -8.935  11.494  66.065  1.00  0.00    -0.181 C  
BRANCH  11  13
HETATM   13  C   UNL     1     -10.165  12.122  68.230  1.00  0.00    -0.209 A  
HETATM   14  C   UNL     1     -11.145  13.028  68.675  1.00  0.00    -0.305 A  
HETATM   15  C   UNL     1     -12.018  12.687  69.710  1.00  0.00    -0.365 A  
HETATM   16  C   UNL     1     -11.932  11.434  70.311  1.00  0.00    -0.460 A  
HETATM   17  C   UNL     1     -10.983  10.517  69.869  1.00  0.00    -0.359 A  
HETATM   18  C   UNL     1     -10.108  10.854  68.835  1.00  0.00    -0.211 A  
ENDBRANCH  11  13
ENDBRANCH  10  11
ENDBRANCH   4   6
ENDBRANCH   3   4
ENDBRANCH   2   3
TORSDOF 5
ENDMDL
MODEL      172
REMARK 921   NORMALIZED FREE ENERGY PREDICTED BY IDOCK:   -3.51 KCAL/MOL
REMARK 922        TOTAL FREE ENERGY PREDICTED BY IDOCK:   -5.08 KCAL/MOL
REMARK 923 INTER-LIGAND FREE ENERGY PREDICTED BY IDOCK:   -4.67 KCAL/MOL
REMARK 924 INTRA-LIGAND FREE ENERGY PREDICTED BY IDOCK:   -0.42 KCAL/MOL
REMARK 927      BINDING AFFINITY PREDICTED BY RF-SCORE:    0.00 PKD
ROOT
HETATM    1  C   UNL     1      -9.438  20.041  67.300  1.00  0.00    -0.509 C  
HETATM    2  C   UNL     1      -8.621  19.034  66.510  1.00  0.00    -0.311 C  
ENDROOT
BRANCH   2   3
HETATM    3  O   UNL     1      -8.542  17.831  67.286  1.00  0.00    -0.227 OA 
BRANCH   3   4
HETATM    4  C   UNL     1      -8.732  16.673  66.595  1.00  0.00    -0.246 C  
HETATM    5  O   UNL     1      -9.286  16.596  65.508  1.00  0.00    -0.461 OA 
BRANCH   4   6
HETATM    6  C   UNL     1      -8.087  15.590  67.292  1.00  0.00    -0.198 A  
HETATM    7  C   UNL     1      -6.752  15.448  67.623  1.00  0.00    -0.173 A  
HETATM    8  N   UNL     1      -6.508  14.253  68.237  1.00  0.00    -0.103 NA 
HETATM    9  C   UNL     1      -7.672  13.652  68.287  1.00  0.00    -0.140 A  
HETATM   10  N   UNL     1      -8.669  14.417  67.745  1.00  0.00    -0.170 NA 
BRANCH  10  11
HETATM   11  C   UNL     1     -10.099  14.068  67.711  1.00  0.00    -0.240 C  
HETATM   12  C   UNL     1     -10.823  14.650  68.928  1.00  0.00    -0.257 C  
BRANCH  11  13
HETATM   13  C   UNL     1     -10.331  12.575  67.497  1.00  0.00    -0.225 A  
HETATM   14  C   UNL     1     -11.011  11.839  68.485  1.00  0.00    -0.270 A  
HETATM   15  C   UNL     1     -11.196  10.462  68.350  1.00  0.00    -0.318 A  
HETATM   16  C   UNL     1     -10.712   9.799  67.225  1.00  0.00    -0.296 A  
HETATM   17  C   UNL     1     -10.057  10.514  66.228  1.00  0.00    -0.290 A  
HETATM   18  C   UNL     1      -9.870  11.892  66.359  1.00  0.00    -0.234 A  
ENDBRANCH  11  13
ENDBRANCH  10  11
ENDBRANCH   4   6
ENDBRANCH   3   4
ENDBRANCH   2   3
TORSDOF 5
ENDMDL
MODEL      173
REMARK 921   NORMALIZED FREE ENERGY PREDICTED BY IDOCK:   -3.49 KCAL/MOL
REMARK 922        TOTAL FREE ENERGY PREDICTED BY IDOCK:   -5.06 KCAL/MOL
REMARK 923 INTER-LIGAND FREE ENERGY PREDICTED BY IDOCK:   -5.17 KCAL/MOL
REMARK 924 INTRA-LIGAND FREE ENERGY PREDICTED BY IDOCK:    0.11 KCAL/MOL
REMARK 927      BINDING AFFINITY PREDICTED BY RF-SCORE:    0.00 PKD
ROOT
HETATM    1  C   UNL     1     -12.089  12.337  63.238  1.00  0.00    -0.518 C  
HETATM    2  C   UNL     1     -12.270  13.793  63.628  1.00  0.00    -0.256 C  
ENDROOT
BRANCH   2   3
HETATM    3  O   UNL     1     -11.457  14.041  64.782  1.00  0.00    -0.340 OA 
BRANCH   3   4
HETATM    4  C   UNL     1     -11.658  13.198  65.833  1.00  0.00    -0.354 C  
HETATM    5  O   UNL     1     -12.756  12.866  66.257  1.00  0.00    -0.254 OA 
BRANCH   4   6
HETATM    6  C   UNL     1     -10.390  12.687  66.284  1.00  0.00    -0.252 A  
HETATM    7  C   UNL     1      -9.628  11.666  65.745  1.00  0.00    -0.232 A  
HETATM    8  N   UNL     1      -8.505  11.428  66.485  1.00  0.00    -0.171 NA 
HETATM    9  C   UNL     1      -8.563  12.284  67.477  1.00  0.00    -0.174 A  
HETATM   10  N   UNL     1      -9.672  13.083  67.401  1.00  0.00    -0.208 NA 
BRANCH  10  11
HETATM   11  C   UNL     1      -9.997  14.192  68.314  1.00  0.00    -0.241 C  
HETATM   12  C   UNL     1     -11.375  13.980  68.947  1.00  0.00    -0.314 C  
BRANCH  11  13
HETATM   13  C   UNL     1      -9.811  15.559  67.660  1.00  0.00    -0.213 A  
HETATM   14  C   UNL     1      -8.724  15.760  66.790  1.00  0.00    -0.305 A  
HETATM   15  C   UNL     1      -8.489  17.010  66.215  1.00  0.00    -0.304 A  
HETATM   16  C   UNL     1      -9.339  18.077  66.493  1.00  0.00    -0.294 A  
HETATM   17  C   UNL     1     -10.431  17.891  67.334  1.00  0.00    -0.390 A  
HETATM   18  C   UNL     1     -10.669  16.643  67.911  1.00  0.00    -0.344 A  
ENDBRANCH  11  13
ENDBRANCH  10  11
ENDBRANCH   4   6
ENDBRANCH   3   4
ENDBRANCH   2   3
TORSDOF 5
ENDMDL
MODEL      174
REMARK 921   NORMALIZED FREE ENERGY PREDICTED BY IDOCK:   -3.49 KCAL/MOL
REMARK 922        TOTAL FREE ENERGY PREDICTED BY IDOCK:   -5.06 KCAL/MOL
REMARK 923 INTER-LIGAND FREE ENERGY PREDICTED BY IDOCK:   -4.59 KCAL/MOL
REMARK 924 INTRA-LIGAND FREE ENERGY PREDICTED BY IDOCK:   -0.46 KCAL/MOL
REMARK 927      BINDING AFFINITY PREDICTED BY RF-SCORE:    0.00 PKD
ROOT
HETATM    1  C   UNL     1     -10.764  12.297  63.581  1.00  0.00    -0.513 C  
HETATM    2  C   UNL     1     -10.237  10.914  63.922  1.00  0.00    -0.354 C  
ENDROOT
BRANCH   2   3
HETATM    3  O   UNL     1     -10.590  10.636  65.283  1.00  0.00    -0.231 OA 
BRANCH   3   4
HETATM    4  C   UNL     1      -9.775   9.759  65.934  1.00  0.00    -0.266 C  
HETATM    5  O   UNL     1     -10.073   8.605  66.207  1.00  0.00    -0.277 OA 
BRANCH   4   6
HETATM    6  C   UNL     1      -8.489  10.370  66.145  1.00  0.00    -0.147 A  
HETATM    7  C   UNL     1      -7.298  10.131  65.485  1.00  0.00    -0.143 A  
HETATM    8  N   UNL     1      -6.274  10.869  66.005  1.00  0.00    -0.133 NA 
HETATM    9  C   UNL     1      -6.812  11.558  66.981  1.00  0.00    -0.147 A  
HETATM   10  N   UNL     1      -8.153  11.311  67.106  1.00  0.00    -0.143 NA 
BRANCH  10  11
HETATM   11  C   UNL     1      -9.066  11.975  68.052  1.00  0.00    -0.188 C  
HETATM   12  C   UNL     1      -9.892  10.938  68.817  1.00  0.00    -0.203 C  
BRANCH  11  13
HETATM   13  C   UNL     1      -9.894  13.073  67.390  1.00  0.00    -0.215 A  
HETATM   14  C   UNL     1      -9.239  14.073  66.648  1.00  0.00    -0.262 A  
HETATM   15  C   UNL     1      -9.956  15.123  66.073  1.00  0.00    -0.335 A  
HETATM   16  C   UNL     1     -11.339  15.188  66.224  1.00  0.00    -0.219 A  
HETATM   17  C   UNL     1     -12.007  14.197  66.935  1.00  0.00    -0.479 A  
HETATM   18  C   UNL     1     -11.293  13.145  67.512  1.00  0.00    -0.336 A  
ENDBRANCH  11  13
ENDBRANCH  10  11
ENDBRANCH   4   6
ENDBRANCH   3   4
ENDBRANCH   2   3
TORSDOF 5
ENDMDL
MODEL      175
REMARK 921   NORMALIZED FREE ENERGY PREDICTED BY IDOCK:   -3.48 KCAL/MOL
REMARK 922        TOTAL FREE ENERGY PREDICTED BY IDOCK:   -5.05 KCAL/MOL
REMARK 923 INTER-LIGAND FREE ENERGY PREDICTED BY IDOCK:   -4.46 KCAL/MOL
REMARK 924 INTRA-LIGAND FREE ENERGY PREDICTED BY IDOCK:   -0.59 KCAL/MOL
REMARK 927      BINDING AFFINITY PREDICTED BY RF-SCORE:    0.00 PKD
ROOT
HETATM    1  C   UNL     1     -13.022  10.556  71.277  1.00  0.00    -0.532 C  
HETATM    2  C   UNL     1     -13.521   9.464  72.208  1.00  0.00    -0.465 C  
ENDROOT
BRANCH   2   3
HETATM    3  O   UNL     1     -12.445   8.538  72.410  1.00  0.00    -0.373 OA 
BRANCH   3   4
HETATM    4  C   UNL     1     -12.448   7.448  71.594  1.00  0.00    -0.349 C  
HETATM    5  O   UNL     1     -13.443   6.798  71.306  1.00  0.00    -0.185 OA 
BRANCH   4   6
HETATM    6  C   UNL     1     -11.130   7.257  71.049  1.00  0.00    -0.258 A  
HETATM    7  C   UNL     1     -10.710   7.378  69.737  1.00  0.00    -0.241 A  
HETATM    8  N   UNL     1      -9.389   7.063  69.597  1.00  0.00    -0.149 NA 
HETATM    9  C   UNL     1      -8.985   6.744  70.802  1.00  0.00    -0.151 A  
HETATM   10  N   UNL     1      -9.989   6.857  71.727  1.00  0.00    -0.174 NA 
BRANCH  10  11
HETATM   11  C   UNL     1      -9.851   6.645  73.177  1.00  0.00    -0.170 C  
HETATM   12  C   UNL     1      -8.629   7.394  73.715  1.00  0.00    -0.227 C  
BRANCH  11  13
HETATM   13  C   UNL     1      -9.901   5.168  73.559  1.00  0.00    -0.170 A  
HETATM   14  C   UNL     1      -8.794   4.590  74.208  1.00  0.00    -0.108 A  
HETATM   15  C   UNL     1      -8.780   3.231  74.525  1.00  0.00    -0.083 A  
HETATM   16  C   UNL     1      -9.873   2.429  74.207  1.00  0.00    -0.140 A  
HETATM   17  C   UNL     1     -10.985   2.988  73.586  1.00  0.00    -0.323 A  
HETATM   18  C   UNL     1     -11.003   4.347  73.267  1.00  0.00    -0.358 A  
ENDBRANCH  11  13
ENDBRANCH  10  11
ENDBRANCH   4   6
ENDBRANCH   3   4
ENDBRANCH   2   3
TORSDOF 5
ENDMDL
MODEL      176
REMARK 921   NORMALIZED FREE ENERGY PREDICTED BY IDOCK:   -3.48 KCAL/MOL
REMARK 922        TOTAL FREE ENERGY PREDICTED BY IDOCK:   -5.05 KCAL/MOL
REMARK 923 INTER-LIGAND FREE ENERGY PREDICTED BY IDOCK:   -4.31 KCAL/MOL
REMARK 924 INTRA-LIGAND FREE ENERGY PREDICTED BY IDOCK:   -0.74 KCAL/MOL
REMARK 927      BINDING AFFINITY PREDICTED BY RF-SCORE:    0.00 PKD
ROOT
HETATM    1  C   UNL     1     -14.400   8.808  72.318  1.00  0.00    -0.468 C  
HETATM    2  C   UNL     1     -12.987   9.236  71.959  1.00  0.00    -0.425 C  
ENDROOT
BRANCH   2   3
HETATM    3  O   UNL     1     -12.099   8.182  72.352  1.00  0.00    -0.351 OA 
BRANCH   3   4
HETATM    4  C   UNL     1     -10.836   8.259  71.847  1.00  0.00    -0.283 C  
HETATM    5  O   UNL     1      -9.853   8.613  72.483  1.00  0.00    -0.285 OA 
BRANCH   4   6
HETATM    6  C   UNL     1     -10.832   7.760  70.496  1.00  0.00    -0.241 A  
HETATM    7  C   UNL     1     -11.082   6.476  70.047  1.00  0.00    -0.363 A  
HETATM    8  N   UNL     1     -10.930   6.375  68.694  1.00  0.00    -0.321 NA 
HETATM    9  C   UNL     1     -10.585   7.576  68.299  1.00  0.00    -0.136 A  
HETATM   10  N   UNL     1     -10.525   8.462  69.341  1.00  0.00    -0.220 NA 
BRANCH  10  11
HETATM   11  C   UNL     1     -10.241   9.902  69.231  1.00  0.00    -0.209 C  
HETATM   12  C   UNL     1     -11.183  10.560  68.220  1.00  0.00    -0.354 C  
BRANCH  11  13
HETATM   13  C   UNL     1      -8.761  10.189  68.988  1.00  0.00    -0.161 A  
HETATM   14  C   UNL     1      -8.339  10.569  67.700  1.00  0.00    -0.114 A  
HETATM   15  C   UNL     1      -6.988  10.787  67.425  1.00  0.00    -0.083 A  
HETATM   16  C   UNL     1      -6.038  10.638  68.432  1.00  0.00    -0.046 A  
HETATM   17  C   UNL     1      -6.439  10.284  69.717  1.00  0.00    -0.080 A  
HETATM   18  C   UNL     1      -7.790  10.065  69.995  1.00  0.00    -0.172 A  
ENDBRANCH  11  13
ENDBRANCH  10  11
ENDBRANCH   4   6
ENDBRANCH   3   4
ENDBRANCH   2   3
TORSDOF 5
ENDMDL
MODEL      177
REMARK 921   NORMALIZED FREE ENERGY PREDICTED BY IDOCK:   -3.47 KCAL/MOL
REMARK 922        TOTAL FREE ENERGY PREDICTED BY IDOCK:   -5.03 KCAL/MOL
REMARK 923 INTER-LIGAND FREE ENERGY PREDICTED BY IDOCK:   -4.73 KCAL/MOL
REMARK 924 INTRA-LIGAND FREE ENERGY PREDICTED BY IDOCK:   -0.31 KCAL/MOL
REMARK 927      BINDING AFFINITY PREDICTED BY RF-SCORE:    0.00 PKD
ROOT
HETATM    1  C   UNL     1     -11.241  15.579  71.139  1.00  0.00    -0.423 C  
HETATM    2  C   UNL     1     -11.095  15.577  69.627  1.00  0.00    -0.279 C  
ENDROOT
BRANCH   2   3
HETATM    3  O   UNL     1     -10.607  16.866  69.233  1.00  0.00    -0.336 OA 
BRANCH   3   4
HETATM    4  C   UNL     1     -10.023  16.923  68.004  1.00  0.00    -0.279 C  
HETATM    5  O   UNL     1      -9.752  15.947  67.318  1.00  0.00    -0.221 OA 
BRANCH   4   6
HETATM    6  C   UNL     1      -9.879  18.299  67.608  1.00  0.00    -0.320 A  
HETATM    7  C   UNL     1     -10.668  19.038  66.746  1.00  0.00    -0.364 A  
HETATM    8  N   UNL     1     -10.182  20.302  66.572  1.00  0.00    -0.411 NA 
HETATM    9  C   UNL     1      -9.100  20.355  67.310  1.00  0.00    -0.373 A  
HETATM   10  N   UNL     1      -8.872  19.179  67.973  1.00  0.00    -0.303 NA 
BRANCH  10  11
HETATM   11  C   UNL     1      -7.787  18.930  68.937  1.00  0.00    -0.279 C  
HETATM   12  C   UNL     1      -6.897  20.168  69.075  1.00  0.00    -0.249 C  
BRANCH  11  13
HETATM   13  C   UNL     1      -7.027  17.640  68.640  1.00  0.00    -0.237 A  
HETATM   14  C   UNL     1      -6.344  17.513  67.416  1.00  0.00    -0.166 A  
HETATM   15  C   UNL     1      -5.683  16.329  67.086  1.00  0.00    -0.085 A  
HETATM   16  C   UNL     1      -5.685  15.257  67.975  1.00  0.00    -0.148 A  
HETATM   17  C   UNL     1      -6.336  15.372  69.199  1.00  0.00    -0.117 A  
HETATM   18  C   UNL     1      -6.999  16.555  69.533  1.00  0.00    -0.136 A  
ENDBRANCH  11  13
ENDBRANCH  10  11
ENDBRANCH   4   6
ENDBRANCH   3   4
ENDBRANCH   2   3
TORSDOF 5
ENDMDL
MODEL      178
REMARK 921   NORMALIZED FREE ENERGY PREDICTED BY IDOCK:   -3.47 KCAL/MOL
REMARK 922        TOTAL FREE ENERGY PREDICTED BY IDOCK:   -5.03 KCAL/MOL
REMARK 923 INTER-LIGAND FREE ENERGY PREDICTED BY IDOCK:   -4.56 KCAL/MOL
REMARK 924 INTRA-LIGAND FREE ENERGY PREDICTED BY IDOCK:   -0.47 KCAL/MOL
REMARK 927      BINDING AFFINITY PREDICTED BY RF-SCORE:    0.00 PKD
ROOT
HETATM    1  C   UNL     1      -9.687  10.331  64.053  1.00  0.00    -0.343 C  
HETATM    2  C   UNL     1      -9.680   9.737  65.451  1.00  0.00    -0.313 C  
ENDROOT
BRANCH   2   3
HETATM    3  O   UNL     1      -8.689  10.434  66.217  1.00  0.00    -0.146 OA 
BRANCH   3   4
HETATM    4  C   UNL     1      -9.170  11.350  67.103  1.00  0.00    -0.166 C  
HETATM    5  O   UNL     1     -10.135  11.171  67.832  1.00  0.00    -0.170 OA 
BRANCH   4   6
HETATM    6  C   UNL     1      -8.304  12.500  67.118  1.00  0.00    -0.179 A  
HETATM    7  C   UNL     1      -6.942  12.555  67.352  1.00  0.00    -0.147 A  
HETATM    8  N   UNL     1      -6.477  13.838  67.338  1.00  0.00    -0.292 NA 
HETATM    9  C   UNL     1      -7.532  14.580  67.102  1.00  0.00     0.032 A  
HETATM   10  N   UNL     1      -8.664  13.827  66.944  1.00  0.00    -0.196 NA 
BRANCH  10  11
HETATM   11  C   UNL     1      -9.999  14.342  66.597  1.00  0.00    -0.272 C  
HETATM   12  C   UNL     1     -10.281  14.141  65.106  1.00  0.00    -0.411 C  
BRANCH  11  13
HETATM   13  C   UNL     1     -10.220  15.769  67.091  1.00  0.00    -0.279 A  
HETATM   14  C   UNL     1     -10.317  16.813  66.151  1.00  0.00    -0.338 A  
HETATM   15  C   UNL     1     -10.466  18.137  66.566  1.00  0.00    -0.356 A  
HETATM   16  C   UNL     1     -10.529  18.441  67.923  1.00  0.00    -0.416 A  
HETATM   17  C   UNL     1     -10.457  17.420  68.866  1.00  0.00    -0.312 A  
HETATM   18  C   UNL     1     -10.308  16.094  68.455  1.00  0.00    -0.254 A  
ENDBRANCH  11  13
ENDBRANCH  10  11
ENDBRANCH   4   6
ENDBRANCH   3   4
ENDBRANCH   2   3
TORSDOF 5
ENDMDL
MODEL      179
REMARK 921   NORMALIZED FREE ENERGY PREDICTED BY IDOCK:   -3.43 KCAL/MOL
REMARK 922        TOTAL FREE ENERGY PREDICTED BY IDOCK:   -4.98 KCAL/MOL
REMARK 923 INTER-LIGAND FREE ENERGY PREDICTED BY IDOCK:   -4.48 KCAL/MOL
REMARK 924 INTRA-LIGAND FREE ENERGY PREDICTED BY IDOCK:   -0.50 KCAL/MOL
REMARK 927      BINDING AFFINITY PREDICTED BY RF-SCORE:    0.00 PKD
ROOT
HETATM    1  C   UNL     1      -9.680  13.062  66.424  1.00  0.00    -0.268 C  
HETATM    2  C   UNL     1      -8.856  13.031  67.700  1.00  0.00    -0.191 C  
ENDROOT
BRANCH   2   3
HETATM    3  O   UNL     1      -8.042  14.211  67.722  1.00  0.00    -0.138 OA 
BRANCH   3   4
HETATM    4  C   UNL     1      -8.307  15.087  68.731  1.00  0.00    -0.174 C  
HETATM    5  O   UNL     1      -9.381  15.177  69.309  1.00  0.00    -0.218 OA 
BRANCH   4   6
HETATM    6  C   UNL     1      -7.104  15.801  69.070  1.00  0.00    -0.159 A  
HETATM    7  C   UNL     1      -6.276  15.631  70.165  1.00  0.00    -0.084 A  
HETATM    8  N   UNL     1      -5.255  16.538  70.173  1.00  0.00    -0.171 NA 
HETATM    9  C   UNL     1      -5.441  17.270  69.102  1.00  0.00    -0.165 A  
HETATM   10  N   UNL     1      -6.534  16.863  68.385  1.00  0.00    -0.146 NA 
BRANCH  10  11
HETATM   11  C   UNL     1      -6.977  17.424  67.097  1.00  0.00    -0.174 C  
HETATM   12  C   UNL     1      -5.843  18.214  66.438  1.00  0.00    -0.202 C  
BRANCH  11  13
HETATM   13  C   UNL     1      -8.291  18.190  67.215  1.00  0.00    -0.244 A  
HETATM   14  C   UNL     1      -8.503  19.020  68.331  1.00  0.00    -0.383 A  
HETATM   15  C   UNL     1      -9.713  19.696  68.501  1.00  0.00    -0.493 A  
HETATM   16  C   UNL     1     -10.726  19.560  67.556  1.00  0.00    -0.565 A  
HETATM   17  C   UNL     1     -10.526  18.762  66.435  1.00  0.00    -0.485 A  
HETATM   18  C   UNL     1      -9.318  18.084  66.261  1.00  0.00    -0.220 A  
ENDBRANCH  11  13
ENDBRANCH  10  11
ENDBRANCH   4   6
ENDBRANCH   3   4
ENDBRANCH   2   3
TORSDOF 5
ENDMDL
MODEL      180
REMARK 921   NORMALIZED FREE ENERGY PREDICTED BY IDOCK:   -3.43 KCAL/MOL
REMARK 922        TOTAL FREE ENERGY PREDICTED BY IDOCK:   -4.98 KCAL/MOL
REMARK 923 INTER-LIGAND FREE ENERGY PREDICTED BY IDOCK:   -4.38 KCAL/MOL
REMARK 924 INTRA-LIGAND FREE ENERGY PREDICTED BY IDOCK:   -0.60 KCAL/MOL
REMARK 927      BINDING AFFINITY PREDICTED BY RF-SCORE:    0.00 PKD
ROOT
HETATM    1  C   UNL     1     -10.364  16.520  66.067  1.00  0.00    -0.358 C  
HETATM    2  C   UNL     1      -9.003  15.898  66.328  1.00  0.00    -0.346 C  
ENDROOT
BRANCH   2   3
HETATM    3  O   UNL     1      -9.142  14.476  66.209  1.00  0.00    -0.234 OA 
BRANCH   3   4
HETATM    4  C   UNL     1      -8.846  13.761  67.330  1.00  0.00    -0.220 C  
HETATM    5  O   UNL     1      -7.747  13.731  67.864  1.00  0.00    -0.129 OA 
BRANCH   4   6
HETATM    6  C   UNL     1     -10.046  13.146  67.833  1.00  0.00    -0.232 A  
HETATM    7  C   UNL     1     -11.036  13.701  68.624  1.00  0.00    -0.272 A  
HETATM    8  N   UNL     1     -11.997  12.786  68.948  1.00  0.00    -0.286 NA 
HETATM    9  C   UNL     1     -11.615  11.672  68.372  1.00  0.00    -0.312 A  
HETATM   10  N   UNL     1     -10.450  11.830  67.671  1.00  0.00    -0.194 NA 
BRANCH  10  11
HETATM   11  C   UNL     1      -9.791  10.798  66.852  1.00  0.00    -0.187 C  
HETATM   12  C   UNL     1     -10.306  10.846  65.412  1.00  0.00    -0.326 C  
BRANCH  11  13
HETATM   13  C   UNL     1      -9.853   9.415  67.495  1.00  0.00    -0.220 A  
HETATM   14  C   UNL     1      -9.112   9.170  68.666  1.00  0.00    -0.136 A  
HETATM   15  C   UNL     1      -9.101   7.904  69.254  1.00  0.00    -0.148 A  
HETATM   16  C   UNL     1      -9.834   6.866  68.687  1.00  0.00    -0.145 A  
HETATM   17  C   UNL     1     -10.590   7.095  67.542  1.00  0.00    -0.348 A  
HETATM   18  C   UNL     1     -10.604   8.360  66.951  1.00  0.00    -0.285 A  
ENDBRANCH  11  13
ENDBRANCH  10  11
ENDBRANCH   4   6
ENDBRANCH   3   4
ENDBRANCH   2   3
TORSDOF 5
ENDMDL
MODEL      181
REMARK 921   NORMALIZED FREE ENERGY PREDICTED BY IDOCK:   -3.41 KCAL/MOL
REMARK 922        TOTAL FREE ENERGY PREDICTED BY IDOCK:   -4.96 KCAL/MOL
REMARK 923 INTER-LIGAND FREE ENERGY PREDICTED BY IDOCK:   -4.16 KCAL/MOL
REMARK 924 INTRA-LIGAND FREE ENERGY PREDICTED BY IDOCK:   -0.80 KCAL/MOL
REMARK 927      BINDING AFFINITY PREDICTED BY RF-SCORE:    0.00 PKD
ROOT
HETATM    1  C   UNL     1     -13.535   9.574  71.461  1.00  0.00    -0.444 C  
HETATM    2  C   UNL     1     -13.132   8.219  72.016  1.00  0.00    -0.327 C  
ENDROOT
BRANCH   2   3
HETATM    3  O   UNL     1     -11.857   8.370  72.655  1.00  0.00    -0.393 OA 
BRANCH   3   4
HETATM    4  C   UNL     1     -11.072   7.256  72.668  1.00  0.00    -0.313 C  
HETATM    5  O   UNL     1     -11.494   6.109  72.657  1.00  0.00    -0.276 OA 
BRANCH   4   6
HETATM    6  C   UNL     1      -9.689   7.648  72.587  1.00  0.00    -0.196 A  
HETATM    7  C   UNL     1      -8.884   8.187  73.573  1.00  0.00    -0.241 A  
HETATM    8  N   UNL     1      -7.636   8.482  73.103  1.00  0.00    -0.354 NA 
HETATM    9  C   UNL     1      -7.659   8.137  71.838  1.00  0.00    -0.097 A  
HETATM   10  N   UNL     1      -8.868   7.611  71.471  1.00  0.00    -0.123 NA 
BRANCH  10  11
HETATM   11  C   UNL     1      -9.201   7.060  70.147  1.00  0.00    -0.152 C  
HETATM   12  C   UNL     1      -8.104   6.103  69.672  1.00  0.00    -0.112 C  
BRANCH  11  13
HETATM   13  C   UNL     1      -9.566   8.145  69.138  1.00  0.00    -0.157 A  
HETATM   14  C   UNL     1      -8.729   8.358  68.026  1.00  0.00    -0.139 A  
HETATM   15  C   UNL     1      -9.001   9.376  67.111  1.00  0.00    -0.144 A  
HETATM   16  C   UNL     1     -10.115  10.192  67.285  1.00  0.00    -0.254 A  
HETATM   17  C   UNL     1     -10.966   9.983  68.365  1.00  0.00    -0.266 A  
HETATM   18  C   UNL     1     -10.698   8.966  69.283  1.00  0.00    -0.177 A  
ENDBRANCH  11  13
ENDBRANCH  10  11
ENDBRANCH   4   6
ENDBRANCH   3   4
ENDBRANCH   2   3
TORSDOF 5
ENDMDL
MODEL      182
REMARK 921   NORMALIZED FREE ENERGY PREDICTED BY IDOCK:   -3.40 KCAL/MOL
REMARK 922        TOTAL FREE ENERGY PREDICTED BY IDOCK:   -4.95 KCAL/MOL
REMARK 923 INTER-LIGAND FREE ENERGY PREDICTED BY IDOCK:   -4.56 KCAL/MOL
REMARK 924 INTRA-LIGAND FREE ENERGY PREDICTED BY IDOCK:   -0.38 KCAL/MOL
REMARK 927      BINDING AFFINITY PREDICTED BY RF-SCORE:    0.00 PKD
ROOT
HETATM    1  C   UNL     1      -6.638  18.454  69.110  1.00  0.00    -0.280 C  
HETATM    2  C   UNL     1      -6.456  16.949  69.041  1.00  0.00    -0.202 C  
ENDROOT
BRANCH   2   3
HETATM    3  O   UNL     1      -7.176  16.474  67.896  1.00  0.00    -0.134 OA 
BRANCH   3   4
HETATM    4  C   UNL     1      -7.811  15.279  68.056  1.00  0.00    -0.132 C  
HETATM    5  O   UNL     1      -7.243  14.206  68.210  1.00  0.00    -0.095 OA 
BRANCH   4   6
HETATM    6  C   UNL     1      -9.232  15.499  68.121  1.00  0.00    -0.189 A  
HETATM    7  C   UNL     1      -9.954  16.218  69.055  1.00  0.00    -0.256 A  
HETATM    8  N   UNL     1     -11.297  16.153  68.816  1.00  0.00    -0.362 NA 
HETATM    9  C   UNL     1     -11.417  15.401  67.750  1.00  0.00    -0.278 A  
HETATM   10  N   UNL     1     -10.202  14.987  67.274  1.00  0.00    -0.240 NA 
BRANCH  10  11
HETATM   11  C   UNL     1      -9.981  14.194  66.053  1.00  0.00    -0.322 C  
HETATM   12  C   UNL     1     -10.843  14.724  64.904  1.00  0.00    -0.433 C  
BRANCH  11  13
HETATM   13  C   UNL     1     -10.117  12.693  66.299  1.00  0.00    -0.264 A  
HETATM   14  C   UNL     1     -10.273  12.226  67.617  1.00  0.00    -0.208 A  
HETATM   15  C   UNL     1     -10.347  10.859  67.887  1.00  0.00    -0.216 A  
HETATM   16  C   UNL     1     -10.274   9.937  66.846  1.00  0.00    -0.302 A  
HETATM   17  C   UNL     1     -10.141  10.381  65.535  1.00  0.00    -0.352 A  
HETATM   18  C   UNL     1     -10.067  11.748  65.260  1.00  0.00    -0.300 A  
ENDBRANCH  11  13
ENDBRANCH  10  11
ENDBRANCH   4   6
ENDBRANCH   3   4
ENDBRANCH   2   3
TORSDOF 5
ENDMDL
MODEL      183
REMARK 921   NORMALIZED FREE ENERGY PREDICTED BY IDOCK:   -3.40 KCAL/MOL
REMARK 922        TOTAL FREE ENERGY PREDICTED BY IDOCK:   -4.95 KCAL/MOL
REMARK 923 INTER-LIGAND FREE ENERGY PREDICTED BY IDOCK:   -4.37 KCAL/MOL
REMARK 924 INTRA-LIGAND FREE ENERGY PREDICTED BY IDOCK:   -0.58 KCAL/MOL
REMARK 927      BINDING AFFINITY PREDICTED BY RF-SCORE:    0.00 PKD
ROOT
HETATM    1  C   UNL     1      -6.171   6.173  69.293  1.00  0.00    -0.033 C  
HETATM    2  C   UNL     1      -7.551   5.704  68.868  1.00  0.00    -0.088 C  
ENDROOT
BRANCH   2   3
HETATM    3  O   UNL     1      -8.087   4.905  69.931  1.00  0.00    -0.072 OA 
BRANCH   3   4
HETATM    4  C   UNL     1      -9.310   5.287  70.394  1.00  0.00    -0.159 C  
HETATM    5  O   UNL     1     -10.366   4.752  70.089  1.00  0.00    -0.242 OA 
BRANCH   4   6
HETATM    6  C   UNL     1      -9.145   6.334  71.368  1.00  0.00    -0.142 A  
HETATM    7  C   UNL     1      -8.443   6.305  72.559  1.00  0.00    -0.120 A  
HETATM    8  N   UNL     1      -8.563   7.479  73.246  1.00  0.00    -0.142 NA 
HETATM    9  C   UNL     1      -9.332   8.233  72.500  1.00  0.00    -0.280 A  
HETATM   10  N   UNL     1      -9.704   7.602  71.344  1.00  0.00    -0.163 NA 
BRANCH  10  11
HETATM   11  C   UNL     1     -10.503   8.195  70.258  1.00  0.00    -0.219 C  
HETATM   12  C   UNL     1      -9.591   8.773  69.174  1.00  0.00    -0.162 C  
BRANCH  11  13
HETATM   13  C   UNL     1     -11.559   9.169  70.775  1.00  0.00    -0.329 A  
HETATM   14  C   UNL     1     -11.485  10.523  70.399  1.00  0.00    -0.427 A  
HETATM   15  C   UNL     1     -12.400  11.453  70.894  1.00  0.00    -0.483 A  
HETATM   16  C   UNL     1     -13.407  11.047  71.764  1.00  0.00    -0.400 A  
HETATM   17  C   UNL     1     -13.510   9.708  72.129  1.00  0.00    -0.516 A  
HETATM   18  C   UNL     1     -12.596   8.774  71.637  1.00  0.00    -0.393 A  
ENDBRANCH  11  13
ENDBRANCH  10  11
ENDBRANCH   4   6
ENDBRANCH   3   4
ENDBRANCH   2   3
TORSDOF 5
ENDMDL
MODEL      184
REMARK 921   NORMALIZED FREE ENERGY PREDICTED BY IDOCK:   -3.40 KCAL/MOL
REMARK 922        TOTAL FREE ENERGY PREDICTED BY IDOCK:   -4.94 KCAL/MOL
REMARK 923 INTER-LIGAND FREE ENERGY PREDICTED BY IDOCK:   -4.62 KCAL/MOL
REMARK 924 INTRA-LIGAND FREE ENERGY PREDICTED BY IDOCK:   -0.32 KCAL/MOL
REMARK 927      BINDING AFFINITY PREDICTED BY RF-SCORE:    0.00 PKD
ROOT
HETATM    1  C   UNL     1     -14.339   6.951  71.901  1.00  0.00    -0.365 C  
HETATM    2  C   UNL     1     -14.252   8.376  71.383  1.00  0.00    -0.325 C  
ENDROOT
BRANCH   2   3
HETATM    3  O   UNL     1     -12.873   8.656  71.105  1.00  0.00    -0.228 OA 
BRANCH   3   4
HETATM    4  C   UNL     1     -12.492   9.954  71.271  1.00  0.00    -0.381 C  
HETATM    5  O   UNL     1     -12.750  10.633  72.255  1.00  0.00    -0.196 OA 
BRANCH   4   6
HETATM    6  C   UNL     1     -11.659  10.351  70.167  1.00  0.00    -0.312 A  
HETATM    7  C   UNL     1     -11.975  11.160  69.091  1.00  0.00    -0.343 A  
HETATM    8  N   UNL     1     -10.935  11.264  68.213  1.00  0.00    -0.205 NA 
HETATM    9  C   UNL     1      -9.980  10.527  68.726  1.00  0.00    -0.192 A  
HETATM   10  N   UNL     1     -10.352   9.960  69.916  1.00  0.00    -0.241 NA 
BRANCH  10  11
HETATM   11  C   UNL     1      -9.493   9.139  70.785  1.00  0.00    -0.272 C  
HETATM   12  C   UNL     1      -8.023   9.530  70.611  1.00  0.00    -0.152 C  
BRANCH  11  13
HETATM   13  C   UNL     1      -9.767   7.645  70.633  1.00  0.00    -0.174 A  
HETATM   14  C   UNL     1     -10.498   7.192  69.519  1.00  0.00    -0.236 A  
HETATM   15  C   UNL     1     -10.814   5.840  69.373  1.00  0.00    -0.393 A  
HETATM   16  C   UNL     1     -10.400   4.919  70.330  1.00  0.00    -0.248 A  
HETATM   17  C   UNL     1      -9.657   5.345  71.427  1.00  0.00    -0.202 A  
HETATM   18  C   UNL     1      -9.339   6.696  71.577  1.00  0.00    -0.153 A  
ENDBRANCH  11  13
ENDBRANCH  10  11
ENDBRANCH   4   6
ENDBRANCH   3   4
ENDBRANCH   2   3
TORSDOF 5
ENDMDL
MODEL      185
REMARK 921   NORMALIZED FREE ENERGY PREDICTED BY IDOCK:   -3.39 KCAL/MOL
REMARK 922        TOTAL FREE ENERGY PREDICTED BY IDOCK:   -4.93 KCAL/MOL
REMARK 923 INTER-LIGAND FREE ENERGY PREDICTED BY IDOCK:   -4.78 KCAL/MOL
REMARK 924 INTRA-LIGAND FREE ENERGY PREDICTED BY IDOCK:   -0.15 KCAL/MOL
REMARK 927      BINDING AFFINITY PREDICTED BY RF-SCORE:    0.00 PKD
ROOT
HETATM    1  C   UNL     1     -10.678   5.968  66.886  1.00  0.00    -0.407 C  
HETATM    2  C   UNL     1     -10.429   5.359  68.255  1.00  0.00    -0.120 C  
ENDROOT
BRANCH   2   3
HETATM    3  O   UNL     1     -10.607   6.393  69.232  1.00  0.00    -0.208 OA 
BRANCH   3   4
HETATM    4  C   UNL     1     -10.215   6.079  70.498  1.00  0.00    -0.206 C  
HETATM    5  O   UNL     1     -10.772   5.257  71.213  1.00  0.00    -0.210 OA 
BRANCH   4   6
HETATM    6  C   UNL     1      -8.996   6.779  70.808  1.00  0.00    -0.151 A  
HETATM    7  C   UNL     1      -7.773   6.713  70.166  1.00  0.00    -0.102 A  
HETATM    8  N   UNL     1      -6.834   7.485  70.786  1.00  0.00    -0.047 NA 
HETATM    9  C   UNL     1      -7.456   8.025  71.806  1.00  0.00    -0.081 A  
HETATM   10  N   UNL     1      -8.770   7.648  71.863  1.00  0.00    -0.110 NA 
BRANCH  10  11
HETATM   11  C   UNL     1      -9.763   8.132  72.838  1.00  0.00    -0.270 C  
HETATM   12  C   UNL     1     -10.148   7.015  73.811  1.00  0.00    -0.390 C  
BRANCH  11  13
HETATM   13  C   UNL     1     -10.950   8.820  72.170  1.00  0.00    -0.404 A  
HETATM   14  C   UNL     1     -10.711   9.797  71.186  1.00  0.00    -0.284 A  
HETATM   15  C   UNL     1     -11.769  10.486  70.590  1.00  0.00    -0.453 A  
HETATM   16  C   UNL     1     -13.081  10.206  70.962  1.00  0.00    -0.458 A  
HETATM   17  C   UNL     1     -13.338   9.228  71.917  1.00  0.00    -0.498 A  
HETATM   18  C   UNL     1     -12.282   8.536  72.515  1.00  0.00    -0.383 A  
ENDBRANCH  11  13
ENDBRANCH  10  11
ENDBRANCH   4   6
ENDBRANCH   3   4
ENDBRANCH   2   3
TORSDOF 5
ENDMDL
MODEL      186
REMARK 921   NORMALIZED FREE ENERGY PREDICTED BY IDOCK:   -3.38 KCAL/MOL
REMARK 922        TOTAL FREE ENERGY PREDICTED BY IDOCK:   -4.91 KCAL/MOL
REMARK 923 INTER-LIGAND FREE ENERGY PREDICTED BY IDOCK:   -4.85 KCAL/MOL
REMARK 924 INTRA-LIGAND FREE ENERGY PREDICTED BY IDOCK:   -0.06 KCAL/MOL
REMARK 927      BINDING AFFINITY PREDICTED BY RF-SCORE:    0.00 PKD
ROOT
HETATM    1  C   UNL     1     -10.171   1.864  74.414  1.00  0.00    -0.164 C  
HETATM    2  C   UNL     1      -9.157   2.864  73.887  1.00  0.00    -0.077 C  
ENDROOT
BRANCH   2   3
HETATM    3  O   UNL     1      -9.598   4.175  74.266  1.00  0.00    -0.105 OA 
BRANCH   3   4
HETATM    4  C   UNL     1     -10.354   4.830  73.342  1.00  0.00    -0.190 C  
HETATM    5  O   UNL     1     -11.577   4.824  73.314  1.00  0.00    -0.333 OA 
BRANCH   4   6
HETATM    6  C   UNL     1      -9.495   5.605  72.486  1.00  0.00    -0.144 A  
HETATM    7  C   UNL     1      -8.147   5.878  72.631  1.00  0.00    -0.105 A  
HETATM    8  N   UNL     1      -7.688   6.699  71.641  1.00  0.00    -0.097 NA 
HETATM    9  C   UNL     1      -8.732   6.941  70.887  1.00  0.00    -0.141 A  
HETATM   10  N   UNL     1      -9.852   6.295  71.338  1.00  0.00    -0.173 NA 
BRANCH  10  11
HETATM   11  C   UNL     1     -11.170   6.296  70.680  1.00  0.00    -0.337 C  
HETATM   12  C   UNL     1     -11.012   6.206  69.161  1.00  0.00    -0.450 C  
BRANCH  11  13
HETATM   13  C   UNL     1     -12.056   7.446  71.152  1.00  0.00    -0.357 A  
HETATM   14  C   UNL     1     -13.422   7.204  71.392  1.00  0.00    -0.374 A  
HETATM   15  C   UNL     1     -14.275   8.241  71.773  1.00  0.00    -0.544 A  
HETATM   16  C   UNL     1     -13.779   9.532  71.928  1.00  0.00    -0.410 A  
HETATM   17  C   UNL     1     -12.427   9.786  71.716  1.00  0.00    -0.485 A  
HETATM   18  C   UNL     1     -11.570   8.751  71.335  1.00  0.00    -0.366 A  
ENDBRANCH  11  13
ENDBRANCH  10  11
ENDBRANCH   4   6
ENDBRANCH   3   4
ENDBRANCH   2   3
TORSDOF 5
ENDMDL
MODEL      187
REMARK 921   NORMALIZED FREE ENERGY PREDICTED BY IDOCK:   -3.37 KCAL/MOL
REMARK 922        TOTAL FREE ENERGY PREDICTED BY IDOCK:   -4.91 KCAL/MOL
REMARK 923 INTER-LIGAND FREE ENERGY PREDICTED BY IDOCK:   -4.35 KCAL/MOL
REMARK 924 INTRA-LIGAND FREE ENERGY PREDICTED BY IDOCK:   -0.56 KCAL/MOL
REMARK 927      BINDING AFFINITY PREDICTED BY RF-SCORE:    0.00 PKD
ROOT
HETATM    1  C   UNL     1      -5.720   7.448  73.198  1.00  0.00    -0.044 C  
HETATM    2  C   UNL     1      -6.311   7.924  71.883  1.00  0.00    -0.041 C  
ENDROOT
BRANCH   2   3
HETATM    3  O   UNL     1      -7.737   7.957  72.031  1.00  0.00    -0.079 OA 
BRANCH   3   4
HETATM    4  C   UNL     1      -8.436   8.299  70.913  1.00  0.00    -0.132 C  
HETATM    5  O   UNL     1      -8.487   9.427  70.444  1.00  0.00    -0.184 OA 
BRANCH   4   6
HETATM    6  C   UNL     1      -9.003   7.114  70.324  1.00  0.00    -0.152 A  
HETATM    7  C   UNL     1      -8.663   6.489  69.138  1.00  0.00    -0.129 A  
HETATM    8  N   UNL     1      -9.467   5.415  68.884  1.00  0.00    -0.127 NA 
HETATM    9  C   UNL     1     -10.301   5.367  69.893  1.00  0.00    -0.307 A  
HETATM   10  N   UNL     1     -10.062   6.360  70.805  1.00  0.00    -0.185 NA 
BRANCH  10  11
HETATM   11  C   UNL     1     -10.768   6.543  72.084  1.00  0.00    -0.221 C  
HETATM   12  C   UNL     1     -11.071   5.188  72.729  1.00  0.00    -0.330 C  
BRANCH  11  13
HETATM   13  C   UNL     1     -11.980   7.462  71.955  1.00  0.00    -0.337 A  
HETATM   14  C   UNL     1     -13.264   6.893  71.860  1.00  0.00    -0.218 A  
HETATM   15  C   UNL     1     -14.392   7.698  71.687  1.00  0.00    -0.613 A  
HETATM   16  C   UNL     1     -14.257   9.081  71.614  1.00  0.00    -0.297 A  
HETATM   17  C   UNL     1     -12.998   9.662  71.727  1.00  0.00    -0.514 A  
HETATM   18  C   UNL     1     -11.868   8.861  71.900  1.00  0.00    -0.440 A  
ENDBRANCH  11  13
ENDBRANCH  10  11
ENDBRANCH   4   6
ENDBRANCH   3   4
ENDBRANCH   2   3
TORSDOF 5
ENDMDL
MODEL      188
REMARK 921   NORMALIZED FREE ENERGY PREDICTED BY IDOCK:   -3.36 KCAL/MOL
REMARK 922        TOTAL FREE ENERGY PREDICTED BY IDOCK:   -4.89 KCAL/MOL
REMARK 923 INTER-LIGAND FREE ENERGY PREDICTED BY IDOCK:   -4.78 KCAL/MOL
REMARK 924 INTRA-LIGAND FREE ENERGY PREDICTED BY IDOCK:   -0.11 KCAL/MOL
REMARK 927      BINDING AFFINITY PREDICTED BY RF-SCORE:    0.00 PKD
ROOT
HETATM    1  C   UNL     1      -8.810  12.442  66.960  1.00  0.00    -0.210 C  
HETATM    2  C   UNL     1      -9.639  13.337  66.055  1.00  0.00    -0.160 C  
ENDROOT
BRANCH   2   3
HETATM    3  O   UNL     1     -10.012  14.497  66.811  1.00  0.00    -0.252 OA 
BRANCH   3   4
HETATM    4  C   UNL     1      -9.933  15.682  66.144  1.00  0.00    -0.312 C  
HETATM    5  O   UNL     1     -10.071  15.810  64.936  1.00  0.00    -0.399 OA 
BRANCH   4   6
HETATM    6  C   UNL     1      -9.773  16.753  67.093  1.00  0.00    -0.251 A  
HETATM    7  C   UNL     1     -10.681  17.229  68.022  1.00  0.00    -0.367 A  
HETATM    8  N   UNL     1     -10.186  18.299  68.711  1.00  0.00    -0.367 NA 
HETATM    9  C   UNL     1      -8.987  18.495  68.220  1.00  0.00    -0.310 A  
HETATM   10  N   UNL     1      -8.674  17.583  67.248  1.00  0.00    -0.226 NA 
BRANCH  10  11
HETATM   11  C   UNL     1      -7.382  17.479  66.549  1.00  0.00    -0.270 C  
HETATM   12  C   UNL     1      -6.473  16.465  67.248  1.00  0.00    -0.222 C  
BRANCH  11  13
HETATM   13  C   UNL     1      -6.737  18.841  66.309  1.00  0.00    -0.247 A  
HETATM   14  C   UNL     1      -6.582  19.304  64.989  1.00  0.00    -0.181 A  
HETATM   15  C   UNL     1      -5.949  20.520  64.727  1.00  0.00    -0.304 A  
HETATM   16  C   UNL     1      -5.467  21.296  65.777  1.00  0.00    -0.233 A  
HETATM   17  C   UNL     1      -5.631  20.865  67.090  1.00  0.00    -0.269 A  
HETATM   18  C   UNL     1      -6.263  19.650  67.356  1.00  0.00    -0.203 A  
ENDBRANCH  11  13
ENDBRANCH  10  11
ENDBRANCH   4   6
ENDBRANCH   3   4
ENDBRANCH   2   3
TORSDOF 5
ENDMDL
MODEL      189
REMARK 921   NORMALIZED FREE ENERGY PREDICTED BY IDOCK:   -3.36 KCAL/MOL
REMARK 922        TOTAL FREE ENERGY PREDICTED BY IDOCK:   -4.89 KCAL/MOL
REMARK 923 INTER-LIGAND FREE ENERGY PREDICTED BY IDOCK:   -4.39 KCAL/MOL
REMARK 924 INTRA-LIGAND FREE ENERGY PREDICTED BY IDOCK:   -0.51 KCAL/MOL
REMARK 927      BINDING AFFINITY PREDICTED BY RF-SCORE:    0.00 PKD
ROOT
HETATM    1  C   UNL     1     -10.421  10.726  66.495  1.00  0.00    -0.299 C  
HETATM    2  C   UNL     1     -10.260   9.216  66.484  1.00  0.00    -0.252 C  
ENDROOT
BRANCH   2   3
HETATM    3  O   UNL     1      -9.218   8.881  67.411  1.00  0.00    -0.134 OA 
BRANCH   3   4
HETATM    4  C   UNL     1      -9.509   7.877  68.283  1.00  0.00    -0.144 C  
HETATM    5  O   UNL     1      -9.877   6.757  67.956  1.00  0.00    -0.133 OA 
BRANCH   4   6
HETATM    6  C   UNL     1      -9.211   8.308  69.624  1.00  0.00    -0.158 A  
HETATM    7  C   UNL     1      -8.193   9.137  70.060  1.00  0.00    -0.143 A  
HETATM    8  N   UNL     1      -8.199   9.273  71.419  1.00  0.00    -0.310 NA 
HETATM    9  C   UNL     1      -9.202   8.537  71.831  1.00  0.00    -0.255 A  
HETATM   10  N   UNL     1      -9.863   7.941  70.791  1.00  0.00    -0.180 NA 
BRANCH  10  11
HETATM   11  C   UNL     1     -11.075   7.112  70.903  1.00  0.00    -0.263 C  
HETATM   12  C   UNL     1     -12.194   7.889  71.601  1.00  0.00    -0.339 C  
BRANCH  11  13
HETATM   13  C   UNL     1     -10.790   5.740  71.509  1.00  0.00    -0.316 A  
HETATM   14  C   UNL     1     -11.211   5.471  72.824  1.00  0.00    -0.358 A  
HETATM   15  C   UNL     1     -10.922   4.248  73.432  1.00  0.00    -0.366 A  
HETATM   16  C   UNL     1     -10.217   3.272  72.734  1.00  0.00    -0.240 A  
HETATM   17  C   UNL     1      -9.812   3.511  71.425  1.00  0.00    -0.214 A  
HETATM   18  C   UNL     1     -10.099   4.733  70.813  1.00  0.00    -0.286 A  
ENDBRANCH  11  13
ENDBRANCH  10  11
ENDBRANCH   4   6
ENDBRANCH   3   4
ENDBRANCH   2   3
TORSDOF 5
ENDMDL
MODEL      190
REMARK 921   NORMALIZED FREE ENERGY PREDICTED BY IDOCK:   -3.36 KCAL/MOL
REMARK 922        TOTAL FREE ENERGY PREDICTED BY IDOCK:   -4.89 KCAL/MOL
REMARK 923 INTER-LIGAND FREE ENERGY PREDICTED BY IDOCK:   -4.51 KCAL/MOL
REMARK 924 INTRA-LIGAND FREE ENERGY PREDICTED BY IDOCK:   -0.38 KCAL/MOL
REMARK 927      BINDING AFFINITY PREDICTED BY RF-SCORE:    0.00 PKD
ROOT
HETATM    1  C   UNL     1     -11.174  15.104  67.616  1.00  0.00    -0.329 C  
HETATM    2  C   UNL     1     -10.612  14.502  66.340  1.00  0.00    -0.302 C  
ENDROOT
BRANCH   2   3
HETATM    3  O   UNL     1     -10.185  13.166  66.639  1.00  0.00    -0.250 OA 
BRANCH   3   4
HETATM    4  C   UNL     1     -10.982  12.173  66.156  1.00  0.00    -0.298 C  
HETATM    5  O   UNL     1     -12.088  11.893  66.598  1.00  0.00    -0.587 OA 
BRANCH   4   6
HETATM    6  C   UNL     1     -10.366  11.591  64.993  1.00  0.00    -0.281 A  
HETATM    7  C   UNL     1     -10.459  11.991  63.673  1.00  0.00    -0.454 A  
HETATM    8  N   UNL     1      -9.775  11.152  62.840  1.00  0.00    -0.331 NA 
HETATM    9  C   UNL     1      -9.264  10.236  63.625  1.00  0.00    -0.280 A  
HETATM   10  N   UNL     1      -9.573  10.455  64.940  1.00  0.00    -0.262 NA 
BRANCH  10  11
HETATM   11  C   UNL     1      -9.096   9.656  66.082  1.00  0.00    -0.161 C  
HETATM   12  C   UNL     1     -10.272   8.990  66.800  1.00  0.00    -0.341 C  
BRANCH  11  13
HETATM   13  C   UNL     1      -8.167  10.446  66.999  1.00  0.00    -0.123 A  
HETATM   14  C   UNL     1      -7.072  11.132  66.441  1.00  0.00    -0.091 A  
HETATM   15  C   UNL     1      -6.170  11.822  67.252  1.00  0.00    -0.130 A  
HETATM   16  C   UNL     1      -6.350  11.844  68.633  1.00  0.00    -0.058 A  
HETATM   17  C   UNL     1      -7.438  11.190  69.201  1.00  0.00    -0.109 A  
HETATM   18  C   UNL     1      -8.343  10.500  68.392  1.00  0.00    -0.126 A  
ENDBRANCH  11  13
ENDBRANCH  10  11
ENDBRANCH   4   6
ENDBRANCH   3   4
ENDBRANCH   2   3
TORSDOF 5
ENDMDL
MODEL      191
REMARK 921   NORMALIZED FREE ENERGY PREDICTED BY IDOCK:   -3.34 KCAL/MOL
REMARK 922        TOTAL FREE ENERGY PREDICTED BY IDOCK:   -4.87 KCAL/MOL
REMARK 923 INTER-LIGAND FREE ENERGY PREDICTED BY IDOCK:   -4.38 KCAL/MOL
REMARK 924 INTRA-LIGAND FREE ENERGY PREDICTED BY IDOCK:   -0.48 KCAL/MOL
REMARK 927      BINDING AFFINITY PREDICTED BY RF-SCORE:    0.00 PKD
ROOT
HETATM    1  C   UNL     1      -8.613   4.813  66.484  1.00  0.00    -0.109 C  
HETATM    2  C   UNL     1      -8.961   5.901  67.484  1.00  0.00    -0.107 C  
ENDROOT
BRANCH   2   3
HETATM    3  O   UNL     1      -8.869   5.333  68.797  1.00  0.00    -0.096 OA 
BRANCH   3   4
HETATM    4  C   UNL     1      -8.066   6.001  69.671  1.00  0.00    -0.107 C  
HETATM    5  O   UNL     1      -7.052   6.610  69.357  1.00  0.00    -0.074 OA 
BRANCH   4   6
HETATM    6  C   UNL     1      -8.655   5.965  70.983  1.00  0.00    -0.131 A  
HETATM    7  C   UNL     1      -8.370   5.117  72.038  1.00  0.00    -0.125 A  
HETATM    8  N   UNL     1      -9.180   5.353  73.111  1.00  0.00    -0.133 NA 
HETATM    9  C   UNL     1      -9.966   6.332  72.736  1.00  0.00    -0.172 A  
HETATM   10  N   UNL     1      -9.687   6.756  71.464  1.00  0.00    -0.164 NA 
BRANCH  10  11
HETATM   11  C   UNL     1     -10.334   7.883  70.771  1.00  0.00    -0.203 C  
HETATM   12  C   UNL     1      -9.467   9.141  70.866  1.00  0.00    -0.343 C  
BRANCH  11  13
HETATM   13  C   UNL     1     -11.782   8.085  71.209  1.00  0.00    -0.311 A  
HETATM   14  C   UNL     1     -12.141   9.279  71.860  1.00  0.00    -0.440 A  
HETATM   15  C   UNL     1     -13.443   9.478  72.324  1.00  0.00    -0.521 A  
HETATM   16  C   UNL     1     -14.408   8.492  72.138  1.00  0.00    -0.529 A  
HETATM   17  C   UNL     1     -14.077   7.314  71.477  1.00  0.00    -0.515 A  
HETATM   18  C   UNL     1     -12.776   7.111  71.012  1.00  0.00    -0.303 A  
ENDBRANCH  11  13
ENDBRANCH  10  11
ENDBRANCH   4   6
ENDBRANCH   3   4
ENDBRANCH   2   3
TORSDOF 5
ENDMDL
MODEL      192
REMARK 921   NORMALIZED FREE ENERGY PREDICTED BY IDOCK:   -3.34 KCAL/MOL
REMARK 922        TOTAL FREE ENERGY PREDICTED BY IDOCK:   -4.86 KCAL/MOL
REMARK 923 INTER-LIGAND FREE ENERGY PREDICTED BY IDOCK:   -4.08 KCAL/MOL
REMARK 924 INTRA-LIGAND FREE ENERGY PREDICTED BY IDOCK:   -0.78 KCAL/MOL
REMARK 927      BINDING AFFINITY PREDICTED BY RF-SCORE:    0.00 PKD
ROOT
HETATM    1  C   UNL     1     -10.219  11.416  63.006  1.00  0.00    -0.311 C  
HETATM    2  C   UNL     1     -11.407  12.302  63.337  1.00  0.00    -0.428 C  
ENDROOT
BRANCH   2   3
HETATM    3  O   UNL     1     -10.999  13.214  64.365  1.00  0.00    -0.350 OA 
BRANCH   3   4
HETATM    4  C   UNL     1     -11.324  12.849  65.636  1.00  0.00    -0.311 C  
HETATM    5  O   UNL     1     -12.440  12.500  65.995  1.00  0.00    -0.565 OA 
BRANCH   4   6
HETATM    6  C   UNL     1     -10.135  12.838  66.448  1.00  0.00    -0.259 A  
HETATM    7  C   UNL     1      -9.409  13.909  66.934  1.00  0.00    -0.258 A  
HETATM    8  N   UNL     1      -8.303  13.500  67.623  1.00  0.00    -0.165 NA 
HETATM    9  C   UNL     1      -8.331  12.191  67.566  1.00  0.00    -0.166 A  
HETATM   10  N   UNL     1      -9.424  11.730  66.882  1.00  0.00    -0.188 NA 
BRANCH  10  11
HETATM   11  C   UNL     1      -9.792  10.316  66.700  1.00  0.00    -0.204 C  
HETATM   12  C   UNL     1     -10.680   9.840  67.853  1.00  0.00    -0.312 C  
BRANCH  11  13
HETATM   13  C   UNL     1      -8.580   9.427  66.433  1.00  0.00    -0.144 A  
HETATM   14  C   UNL     1      -8.250   8.422  67.361  1.00  0.00    -0.120 A  
HETATM   15  C   UNL     1      -7.119   7.624  67.178  1.00  0.00    -0.085 A  
HETATM   16  C   UNL     1      -6.305   7.811  66.064  1.00  0.00    -0.042 A  
HETATM   17  C   UNL     1      -6.629   8.785  65.125  1.00  0.00    -0.064 A  
HETATM   18  C   UNL     1      -7.759   9.585  65.304  1.00  0.00    -0.111 A  
ENDBRANCH  11  13
ENDBRANCH  10  11
ENDBRANCH   4   6
ENDBRANCH   3   4
ENDBRANCH   2   3
TORSDOF 5
ENDMDL
MODEL      193
REMARK 921   NORMALIZED FREE ENERGY PREDICTED BY IDOCK:   -3.33 KCAL/MOL
REMARK 922        TOTAL FREE ENERGY PREDICTED BY IDOCK:   -4.86 KCAL/MOL
REMARK 923 INTER-LIGAND FREE ENERGY PREDICTED BY IDOCK:   -5.41 KCAL/MOL
REMARK 924 INTRA-LIGAND FREE ENERGY PREDICTED BY IDOCK:    0.56 KCAL/MOL
REMARK 927      BINDING AFFINITY PREDICTED BY RF-SCORE:    0.00 PKD
ROOT
HETATM    1  C   UNL     1      -7.506  14.223  67.344  1.00  0.00    -0.172 C  
HETATM    2  C   UNL     1      -8.546  13.636  68.282  1.00  0.00    -0.170 C  
ENDROOT
BRANCH   2   3
HETATM    3  O   UNL     1      -9.832  14.111  67.860  1.00  0.00    -0.215 OA 
BRANCH   3   4
HETATM    4  C   UNL     1      -9.897  14.567  66.578  1.00  0.00    -0.285 C  
HETATM    5  O   UNL     1      -9.109  15.360  66.082  1.00  0.00    -0.306 OA 
BRANCH   4   6
HETATM    6  C   UNL     1     -10.961  13.890  65.885  1.00  0.00    -0.284 A  
HETATM    7  C   UNL     1     -12.249  14.329  65.636  1.00  0.00    -0.400 A  
HETATM    8  N   UNL     1     -12.992  13.380  64.995  1.00  0.00    -0.731 NA 
HETATM    9  C   UNL     1     -12.185  12.357  64.847  1.00  0.00    -0.418 A  
HETATM   10  N   UNL     1     -10.938  12.611  65.351  1.00  0.00    -0.280 NA 
BRANCH  10  11
HETATM   11  C   UNL     1      -9.780  11.703  65.280  1.00  0.00    -0.229 C  
HETATM   12  C   UNL     1      -9.443  11.376  63.823  1.00  0.00    -0.189 C  
BRANCH  11  13
HETATM   13  C   UNL     1      -9.942  10.479  66.177  1.00  0.00    -0.286 A  
HETATM   14  C   UNL     1     -10.455  10.645  67.477  1.00  0.00    -0.272 A  
HETATM   15  C   UNL     1     -10.568   9.558  68.346  1.00  0.00    -0.261 A  
HETATM   16  C   UNL     1     -10.178   8.288  67.929  1.00  0.00    -0.276 A  
HETATM   17  C   UNL     1      -9.689   8.101  66.640  1.00  0.00    -0.318 A  
HETATM   18  C   UNL     1      -9.575   9.186  65.768  1.00  0.00    -0.323 A  
ENDBRANCH  11  13
ENDBRANCH  10  11
ENDBRANCH   4   6
ENDBRANCH   3   4
ENDBRANCH   2   3
TORSDOF 5
ENDMDL
MODEL      194
REMARK 921   NORMALIZED FREE ENERGY PREDICTED BY IDOCK:   -3.32 KCAL/MOL
REMARK 922        TOTAL FREE ENERGY PREDICTED BY IDOCK:   -4.84 KCAL/MOL
REMARK 923 INTER-LIGAND FREE ENERGY PREDICTED BY IDOCK:   -4.36 KCAL/MOL
REMARK 924 INTRA-LIGAND FREE ENERGY PREDICTED BY IDOCK:   -0.49 KCAL/MOL
REMARK 927      BINDING AFFINITY PREDICTED BY RF-SCORE:    0.00 PKD
ROOT
HETATM    1  C   UNL     1     -14.391   8.368  71.642  1.00  0.00    -0.536 C  
HETATM    2  C   UNL     1     -12.958   7.886  71.783  1.00  0.00    -0.325 C  
ENDROOT
BRANCH   2   3
HETATM    3  O   UNL     1     -12.722   6.915  70.755  1.00  0.00    -0.286 OA 
BRANCH   3   4
HETATM    4  C   UNL     1     -11.454   6.419  70.696  1.00  0.00    -0.362 C  
HETATM    5  O   UNL     1     -10.963   5.669  71.529  1.00  0.00    -0.252 OA 
BRANCH   4   6
HETATM    6  C   UNL     1     -10.839   6.826  69.461  1.00  0.00    -0.273 A  
HETATM    7  C   UNL     1     -10.968   6.266  68.203  1.00  0.00    -0.323 A  
HETATM    8  N   UNL     1     -10.182   6.898  67.284  1.00  0.00    -0.194 NA 
HETATM    9  C   UNL     1      -9.564   7.840  67.954  1.00  0.00    -0.146 A  
HETATM   10  N   UNL     1      -9.932   7.857  69.273  1.00  0.00    -0.185 NA 
BRANCH  10  11
HETATM   11  C   UNL     1      -9.481   8.833  70.279  1.00  0.00    -0.174 C  
HETATM   12  C   UNL     1      -8.660   9.945  69.620  1.00  0.00    -0.207 C  
BRANCH  11  13
HETATM   13  C   UNL     1      -8.797   8.169  71.471  1.00  0.00    -0.195 A  
HETATM   14  C   UNL     1      -9.275   8.429  72.769  1.00  0.00    -0.311 A  
HETATM   15  C   UNL     1      -8.642   7.883  73.887  1.00  0.00    -0.332 A  
HETATM   16  C   UNL     1      -7.528   7.064  73.727  1.00  0.00    -0.099 A  
HETATM   17  C   UNL     1      -7.054   6.778  72.451  1.00  0.00    -0.071 A  
HETATM   18  C   UNL     1      -7.684   7.322  71.330  1.00  0.00    -0.088 A  
ENDBRANCH  11  13
ENDBRANCH  10  11
ENDBRANCH   4   6
ENDBRANCH   3   4
ENDBRANCH   2   3
TORSDOF 5
ENDMDL
MODEL      195
REMARK 921   NORMALIZED FREE ENERGY PREDICTED BY IDOCK:   -3.31 KCAL/MOL
REMARK 922        TOTAL FREE ENERGY PREDICTED BY IDOCK:   -4.83 KCAL/MOL
REMARK 923 INTER-LIGAND FREE ENERGY PREDICTED BY IDOCK:   -4.14 KCAL/MOL
REMARK 924 INTRA-LIGAND FREE ENERGY PREDICTED BY IDOCK:   -0.69 KCAL/MOL
REMARK 927      BINDING AFFINITY PREDICTED BY RF-SCORE:    0.00 PKD
ROOT
HETATM    1  C   UNL     1     -11.995  14.390  65.474  1.00  0.00    -0.358 C  
HETATM    2  C   UNL     1     -12.205  14.006  66.929  1.00  0.00    -0.380 C  
ENDROOT
BRANCH   2   3
HETATM    3  O   UNL     1     -11.079  13.219  67.339  1.00  0.00    -0.265 OA 
BRANCH   3   4
HETATM    4  C   UNL     1     -11.279  11.871  67.352  1.00  0.00    -0.305 C  
HETATM    5  O   UNL     1     -12.267  11.320  67.814  1.00  0.00    -0.504 OA 
BRANCH   4   6
HETATM    6  C   UNL     1     -10.204  11.224  66.646  1.00  0.00    -0.229 A  
HETATM    7  C   UNL     1      -9.839  11.353  65.318  1.00  0.00    -0.248 A  
HETATM    8  N   UNL     1      -8.796  10.532  64.998  1.00  0.00    -0.185 NA 
HETATM    9  C   UNL     1      -8.513   9.893  66.107  1.00  0.00    -0.125 A  
HETATM   10  N   UNL     1      -9.320  10.279  67.143  1.00  0.00    -0.152 NA 
BRANCH  10  11
HETATM   11  C   UNL     1      -9.216   9.811  68.535  1.00  0.00    -0.134 C  
HETATM   12  C   UNL     1      -7.889  10.257  69.154  1.00  0.00    -0.127 C  
BRANCH  11  13
HETATM   13  C   UNL     1      -9.503   8.318  68.672  1.00  0.00    -0.147 A  
HETATM   14  C   UNL     1      -8.497   7.470  69.170  1.00  0.00    -0.136 A  
HETATM   15  C   UNL     1      -8.702   6.092  69.260  1.00  0.00    -0.122 A  
HETATM   16  C   UNL     1      -9.917   5.541  68.862  1.00  0.00    -0.236 A  
HETATM   17  C   UNL     1     -10.931   6.366  68.388  1.00  0.00    -0.390 A  
HETATM   18  C   UNL     1     -10.729   7.745  68.296  1.00  0.00    -0.093 A  
ENDBRANCH  11  13
ENDBRANCH  10  11
ENDBRANCH   4   6
ENDBRANCH   3   4
ENDBRANCH   2   3
TORSDOF 5
ENDMDL
MODEL      196
REMARK 921   NORMALIZED FREE ENERGY PREDICTED BY IDOCK:   -3.31 KCAL/MOL
REMARK 922        TOTAL FREE ENERGY PREDICTED BY IDOCK:   -4.82 KCAL/MOL
REMARK 923 INTER-LIGAND FREE ENERGY PREDICTED BY IDOCK:   -4.58 KCAL/MOL
REMARK 924 INTRA-LIGAND FREE ENERGY PREDICTED BY IDOCK:   -0.24 KCAL/MOL
REMARK 927      BINDING AFFINITY PREDICTED BY RF-SCORE:    0.00 PKD
ROOT
HETATM    1  C   UNL     1      -8.557  17.268  67.448  1.00  0.00    -0.213 C  
HETATM    2  C   UNL     1      -7.568  16.131  67.639  1.00  0.00    -0.145 C  
ENDROOT
BRANCH   2   3
HETATM    3  O   UNL     1      -8.156  15.189  68.547  1.00  0.00    -0.133 OA 
BRANCH   3   4
HETATM    4  C   UNL     1      -8.679  14.069  67.974  1.00  0.00    -0.180 C  
HETATM    5  O   UNL     1      -8.019  13.190  67.437  1.00  0.00    -0.169 OA 
BRANCH   4   6
HETATM    6  C   UNL     1     -10.101  14.040  68.197  1.00  0.00    -0.244 A  
HETATM    7  C   UNL     1     -10.825  14.592  69.237  1.00  0.00    -0.252 A  
HETATM    8  N   UNL     1     -12.156  14.306  69.135  1.00  0.00    -0.326 NA 
HETATM    9  C   UNL     1     -12.267  13.582  68.048  1.00  0.00    -0.123 A  
HETATM   10  N   UNL     1     -11.060  13.399  67.428  1.00  0.00    -0.271 NA 
BRANCH  10  11
HETATM   11  C   UNL     1     -10.846  12.699  66.150  1.00  0.00    -0.273 C  
HETATM   12  C   UNL     1     -12.074  12.839  65.249  1.00  0.00    -0.505 C  
BRANCH  11  13
HETATM   13  C   UNL     1     -10.371  11.261  66.345  1.00  0.00    -0.291 A  
HETATM   14  C   UNL     1      -9.841  10.559  65.247  1.00  0.00    -0.345 A  
HETATM   15  C   UNL     1      -9.445   9.227  65.372  1.00  0.00    -0.281 A  
HETATM   16  C   UNL     1      -9.565   8.576  66.597  1.00  0.00    -0.292 A  
HETATM   17  C   UNL     1     -10.066   9.260  67.700  1.00  0.00    -0.266 A  
HETATM   18  C   UNL     1     -10.462  10.593  67.578  1.00  0.00    -0.272 A  
ENDBRANCH  11  13
ENDBRANCH  10  11
ENDBRANCH   4   6
ENDBRANCH   3   4
ENDBRANCH   2   3
TORSDOF 5
ENDMDL
MODEL      197
REMARK 921   NORMALIZED FREE ENERGY PREDICTED BY IDOCK:   -3.30 KCAL/MOL
REMARK 922        TOTAL FREE ENERGY PREDICTED BY IDOCK:   -4.81 KCAL/MOL
REMARK 923 INTER-LIGAND FREE ENERGY PREDICTED BY IDOCK:   -4.94 KCAL/MOL
REMARK 924 INTRA-LIGAND FREE ENERGY PREDICTED BY IDOCK:    0.13 KCAL/MOL
REMARK 927      BINDING AFFINITY PREDICTED BY RF-SCORE:    0.00 PKD
ROOT
HETATM    1  C   UNL     1      -8.446  10.883  66.836  1.00  0.00    -0.135 C  
HETATM    2  C   UNL     1      -7.412  11.922  67.234  1.00  0.00    -0.151 C  
ENDROOT
BRANCH   2   3
HETATM    3  O   UNL     1      -7.808  13.175  66.660  1.00  0.00     0.232 OA 
BRANCH   3   4
HETATM    4  C   UNL     1      -7.995  14.193  67.546  1.00  0.00    -0.188 C  
HETATM    5  O   UNL     1      -7.590  14.192  68.700  1.00  0.00    -0.118 OA 
BRANCH   4   6
HETATM    6  C   UNL     1      -8.640  15.293  66.879  1.00  0.00    -0.257 A  
HETATM    7  C   UNL     1      -8.077  16.458  66.390  1.00  0.00    -0.322 A  
HETATM    8  N   UNL     1      -9.021  17.295  65.867  1.00  0.00    -0.531 NA 
HETATM    9  C   UNL     1     -10.160  16.668  66.029  1.00  0.00    -0.340 A  
HETATM   10  N   UNL     1      -9.993  15.445  66.622  1.00  0.00    -0.252 NA 
BRANCH  10  11
HETATM   11  C   UNL     1     -11.058  14.460  66.878  1.00  0.00    -0.323 C  
HETATM   12  C   UNL     1     -10.737  13.635  68.127  1.00  0.00    -0.260 C  
BRANCH  11  13
HETATM   13  C   UNL     1     -11.391  13.626  65.644  1.00  0.00    -0.309 A  
HETATM   14  C   UNL     1     -12.715  13.194  65.446  1.00  0.00    -0.422 A  
HETATM   15  C   UNL     1     -13.049  12.385  64.358  1.00  0.00    -0.050 A  
HETATM   16  C   UNL     1     -12.069  12.002  63.447  1.00  0.00    -0.597 A  
HETATM   17  C   UNL     1     -10.758  12.437  63.615  1.00  0.00    -0.497 A  
HETATM   18  C   UNL     1     -10.420  13.246  64.701  1.00  0.00    -0.420 A  
ENDBRANCH  11  13
ENDBRANCH  10  11
ENDBRANCH   4   6
ENDBRANCH   3   4
ENDBRANCH   2   3
TORSDOF 5
ENDMDL
MODEL      198
REMARK 921   NORMALIZED FREE ENERGY PREDICTED BY IDOCK:   -3.29 KCAL/MOL
REMARK 922        TOTAL FREE ENERGY PREDICTED BY IDOCK:   -4.80 KCAL/MOL
REMARK 923 INTER-LIGAND FREE ENERGY PREDICTED BY IDOCK:   -4.31 KCAL/MOL
REMARK 924 INTRA-LIGAND FREE ENERGY PREDICTED BY IDOCK:   -0.49 KCAL/MOL
REMARK 927      BINDING AFFINITY PREDICTED BY RF-SCORE:    0.00 PKD
ROOT
HETATM    1  C   UNL     1      -9.710  10.128  65.062  1.00  0.00    -0.384 C  
HETATM    2  C   UNL     1      -8.660  10.964  65.772  1.00  0.00    -0.173 C  
ENDROOT
BRANCH   2   3
HETATM    3  O   UNL     1      -8.315  10.289  66.989  1.00  0.00    -0.124 OA 
BRANCH   3   4
HETATM    4  C   UNL     1      -8.559  10.983  68.136  1.00  0.00    -0.140 C  
HETATM    5  O   UNL     1      -7.736  11.677  68.716  1.00  0.00    -0.134 OA 
BRANCH   4   6
HETATM    6  C   UNL     1      -9.950  10.855  68.483  1.00  0.00    -0.182 A  
HETATM    7  C   UNL     1     -10.957  11.799  68.384  1.00  0.00    -0.231 A  
HETATM    8  N   UNL     1     -12.143  11.325  68.866  1.00  0.00    -0.502 NA 
HETATM    9  C   UNL     1     -11.886  10.103  69.265  1.00  0.00     0.078 A  
HETATM   10  N   UNL     1     -10.580   9.756  69.046  1.00  0.00    -0.213 NA 
BRANCH  10  11
HETATM   11  C   UNL     1      -9.984   8.436  69.310  1.00  0.00    -0.195 C  
HETATM   12  C   UNL     1     -10.410   7.430  68.239  1.00  0.00    -0.231 C  
BRANCH  11  13
HETATM   13  C   UNL     1     -10.220   7.965  70.743  1.00  0.00    -0.202 A  
HETATM   14  C   UNL     1     -11.326   7.140  71.019  1.00  0.00    -0.310 A  
HETATM   15  C   UNL     1     -11.606   6.732  72.325  1.00  0.00    -0.311 A  
HETATM   16  C   UNL     1     -10.784   7.136  73.373  1.00  0.00    -0.410 A  
HETATM   17  C   UNL     1      -9.674   7.933  73.116  1.00  0.00    -0.353 A  
HETATM   18  C   UNL     1      -9.390   8.343  71.812  1.00  0.00    -0.293 A  
ENDBRANCH  11  13
ENDBRANCH  10  11
ENDBRANCH   4   6
ENDBRANCH   3   4
ENDBRANCH   2   3
TORSDOF 5
ENDMDL
MODEL      199
REMARK 921   NORMALIZED FREE ENERGY PREDICTED BY IDOCK:   -3.28 KCAL/MOL
REMARK 922        TOTAL FREE ENERGY PREDICTED BY IDOCK:   -4.78 KCAL/MOL
REMARK 923 INTER-LIGAND FREE ENERGY PREDICTED BY IDOCK:   -4.07 KCAL/MOL
REMARK 924 INTRA-LIGAND FREE ENERGY PREDICTED BY IDOCK:   -0.71 KCAL/MOL
REMARK 927      BINDING AFFINITY PREDICTED BY RF-SCORE:    0.00 PKD
ROOT
HETATM    1  C   UNL     1      -6.765   6.011  68.977  1.00  0.00    -0.060 C  
HETATM    2  C   UNL     1      -6.648   6.558  70.389  1.00  0.00    -0.045 C  
ENDROOT
BRANCH   2   3
HETATM    3  O   UNL     1      -7.427   7.759  70.458  1.00  0.00    -0.071 OA 
BRANCH   3   4
HETATM    4  C   UNL     1      -7.627   8.259  71.709  1.00  0.00    -0.099 C  
HETATM    5  O   UNL     1      -7.097   9.271  72.146  1.00  0.00    -0.309 OA 
BRANCH   4   6
HETATM    6  C   UNL     1      -8.629   7.475  72.381  1.00  0.00    -0.122 A  
HETATM    7  C   UNL     1      -8.465   6.526  73.373  1.00  0.00    -0.119 A  
HETATM    8  N   UNL     1      -9.651   5.950  73.726  1.00  0.00    -0.141 NA 
HETATM    9  C   UNL     1     -10.549   6.526  72.963  1.00  0.00    -0.250 A  
HETATM   10  N   UNL     1      -9.994   7.468  72.139  1.00  0.00    -0.173 NA 
BRANCH  10  11
HETATM   11  C   UNL     1     -10.732   8.345  71.215  1.00  0.00    -0.230 C  
HETATM   12  C   UNL     1     -12.139   8.626  71.749  1.00  0.00    -0.403 C  
BRANCH  11  13
HETATM   13  C   UNL     1     -10.697   7.837  69.776  1.00  0.00    -0.236 A  
HETATM   14  C   UNL     1     -10.380   8.735  68.740  1.00  0.00    -0.234 A  
HETATM   15  C   UNL     1     -10.390   8.321  67.406  1.00  0.00    -0.350 A  
HETATM   16  C   UNL     1     -10.709   7.004  67.087  1.00  0.00    -0.433 A  
HETATM   17  C   UNL     1     -11.004   6.097  68.099  1.00  0.00    -0.398 A  
HETATM   18  C   UNL     1     -10.995   6.507  69.434  1.00  0.00    -0.395 A  
ENDBRANCH  11  13
ENDBRANCH  10  11
ENDBRANCH   4   6
ENDBRANCH   3   4
ENDBRANCH   2   3
TORSDOF 5
ENDMDL
MODEL      200
REMARK 921   NORMALIZED FREE ENERGY PREDICTED BY IDOCK:   -3.28 KCAL/MOL
REMARK 922        TOTAL FREE ENERGY PREDICTED BY IDOCK:   -4.78 KCAL/MOL
REMARK 923 INTER-LIGAND FREE ENERGY PREDICTED BY IDOCK:   -4.17 KCAL/MOL
REMARK 924 INTRA-LIGAND FREE ENERGY PREDICTED BY IDOCK:   -0.61 KCAL/MOL
REMARK 927      BINDING AFFINITY PREDICTED BY RF-SCORE:    0.00 PKD
ROOT
HETATM    1  C   UNL     1      -8.108  11.951  68.348  1.00  0.00    -0.155 C  
HETATM    2  C   UNL     1      -7.100  10.861  68.665  1.00  0.00    -0.080 C  
ENDROOT
BRANCH   2   3
HETATM    3  O   UNL     1      -7.376  10.383  69.989  1.00  0.00    -0.160 OA 
BRANCH   3   4
HETATM    4  C   UNL     1      -7.416   9.028  70.127  1.00  0.00    -0.072 C  
HETATM    5  O   UNL     1      -6.912   8.235  69.344  1.00  0.00    -0.049 OA 
BRANCH   4   6
HETATM    6  C   UNL     1      -8.042   8.695  71.380  1.00  0.00    -0.151 A  
HETATM    7  C   UNL     1      -7.456   8.231  72.543  1.00  0.00    -0.113 A  
HETATM    8  N   UNL     1      -8.386   7.973  73.509  1.00  0.00    -0.211 NA 
HETATM    9  C   UNL     1      -9.539   8.267  72.960  1.00  0.00    -0.225 A  
HETATM   10  N   UNL     1      -9.395   8.724  71.678  1.00  0.00    -0.260 NA 
BRANCH  10  11
HETATM   11  C   UNL     1     -10.482   9.208  70.809  1.00  0.00    -0.257 C  
HETATM   12  C   UNL     1     -11.781   9.355  71.606  1.00  0.00    -0.468 C  
BRANCH  11  13
HETATM   13  C   UNL     1     -10.619   8.384  69.532  1.00  0.00    -0.217 A  
HETATM   14  C   UNL     1     -10.984   7.028  69.626  1.00  0.00    -0.268 A  
HETATM   15  C   UNL     1     -11.067   6.228  68.485  1.00  0.00    -0.397 A  
HETATM   16  C   UNL     1     -10.796   6.770  67.232  1.00  0.00    -0.443 A  
HETATM   17  C   UNL     1     -10.455   8.114  67.117  1.00  0.00    -0.396 A  
HETATM   18  C   UNL     1     -10.370   8.917  68.256  1.00  0.00    -0.250 A  
ENDBRANCH  11  13
ENDBRANCH  10  11
ENDBRANCH   4   6
ENDBRANCH   3   4
ENDBRANCH   2   3
TORSDOF 5
ENDMDL
MODEL      201
REMARK 921   NORMALIZED FREE ENERGY PREDICTED BY IDOCK:   -3.27 KCAL/MOL
REMARK 922        TOTAL FREE ENERGY PREDICTED BY IDOCK:   -4.77 KCAL/MOL
REMARK 923 INTER-LIGAND FREE ENERGY PREDICTED BY IDOCK:   -4.14 KCAL/MOL
REMARK 924 INTRA-LIGAND FREE ENERGY PREDICTED BY IDOCK:   -0.63 KCAL/MOL
REMARK 927      BINDING AFFINITY PREDICTED BY RF-SCORE:    0.00 PKD
ROOT
HETATM    1  C   UNL     1      -8.387  13.170  67.982  1.00  0.00    -0.162 C  
HETATM    2  C   UNL     1      -8.882  11.751  67.763  1.00  0.00    -0.163 C  
ENDROOT
BRANCH   2   3
HETATM    3  O   UNL     1      -9.678  11.385  68.898  1.00  0.00    -0.179 OA 
BRANCH   3   4
HETATM    4  C   UNL     1     -10.927  10.922  68.616  1.00  0.00    -0.227 C  
HETATM    5  O   UNL     1     -11.345  10.696  67.489  1.00  0.00    -0.408 OA 
BRANCH   4   6
HETATM    6  C   UNL     1     -11.622  10.643  69.845  1.00  0.00    -0.316 A  
HETATM    7  C   UNL     1     -12.307  11.517  70.669  1.00  0.00    -0.364 A  
HETATM    8  N   UNL     1     -12.790  10.891  71.782  1.00  0.00    -0.436 NA 
HETATM    9  C   UNL     1     -12.410   9.642  71.661  1.00  0.00    -0.404 A  
HETATM   10  N   UNL     1     -11.713   9.427  70.503  1.00  0.00    -0.238 NA 
BRANCH  10  11
HETATM   11  C   UNL     1     -11.210   8.126  70.030  1.00  0.00    -0.084 C  
HETATM   12  C   UNL     1     -11.949   6.980  70.725  1.00  0.00    -0.392 C  
BRANCH  11  13
HETATM   13  C   UNL     1      -9.689   8.027  70.101  1.00  0.00    -0.176 A  
HETATM   14  C   UNL     1      -8.979   7.549  68.984  1.00  0.00    -0.131 A  
HETATM   15  C   UNL     1      -7.593   7.394  69.030  1.00  0.00    -0.102 A  
HETATM   16  C   UNL     1      -6.892   7.721  70.187  1.00  0.00    -0.049 A  
HETATM   17  C   UNL     1      -7.574   8.216  71.294  1.00  0.00    -0.084 A  
HETATM   18  C   UNL     1      -8.960   8.373  71.252  1.00  0.00    -0.224 A  
ENDBRANCH  11  13
ENDBRANCH  10  11
ENDBRANCH   4   6
ENDBRANCH   3   4
ENDBRANCH   2   3
TORSDOF 5
ENDMDL
MODEL      202
REMARK 921   NORMALIZED FREE ENERGY PREDICTED BY IDOCK:   -3.26 KCAL/MOL
REMARK 922        TOTAL FREE ENERGY PREDICTED BY IDOCK:   -4.76 KCAL/MOL
REMARK 923 INTER-LIGAND FREE ENERGY PREDICTED BY IDOCK:   -4.95 KCAL/MOL
REMARK 924 INTRA-LIGAND FREE ENERGY PREDICTED BY IDOCK:    0.19 KCAL/MOL
REMARK 927      BINDING AFFINITY PREDICTED BY RF-SCORE:    0.00 PKD
ROOT
HETATM    1  C   UNL     1      -6.249  15.831  67.770  1.00  0.00    -0.175 C  
HETATM    2  C   UNL     1      -7.482  16.716  67.788  1.00  0.00    -0.155 C  
ENDROOT
BRANCH   2   3
HETATM    3  O   UNL     1      -8.508  16.051  67.039  1.00  0.00    -0.180 OA 
BRANCH   3   4
HETATM    4  C   UNL     1      -9.765  16.555  67.188  1.00  0.00    -0.245 C  
HETATM    5  O   UNL     1     -10.144  17.200  68.155  1.00  0.00    -0.280 OA 
BRANCH   4   6
HETATM    6  C   UNL     1     -10.525  16.300  65.993  1.00  0.00    -0.331 A  
HETATM    7  C   UNL     1     -10.682  17.104  64.879  1.00  0.00     0.270 A  
HETATM    8  N   UNL     1     -11.528  16.545  63.965  1.00  0.00    -1.122 NA 
HETATM    9  C   UNL     1     -11.902  15.408  64.499  1.00  0.00    -0.256 A  
HETATM   10  N   UNL     1     -11.317  15.196  65.719  1.00  0.00    -0.289 NA 
BRANCH  10  11
HETATM   11  C   UNL     1     -11.466  13.987  66.547  1.00  0.00    -0.357 C  
HETATM   12  C   UNL     1     -11.486  14.354  68.033  1.00  0.00    -0.336 C  
BRANCH  11  13
HETATM   13  C   UNL     1     -10.458  12.901  66.181  1.00  0.00    -0.283 A  
HETATM   14  C   UNL     1     -10.608  12.208  64.965  1.00  0.00    -0.330 A  
HETATM   15  C   UNL     1      -9.738  11.173  64.620  1.00  0.00    -0.308 A  
HETATM   16  C   UNL     1      -8.701  10.818  65.479  1.00  0.00    -0.196 A  
HETATM   17  C   UNL     1      -8.524  11.506  66.674  1.00  0.00    -0.172 A  
HETATM   18  C   UNL     1      -9.392  12.543  67.023  1.00  0.00    -0.210 A  
ENDBRANCH  11  13
ENDBRANCH  10  11
ENDBRANCH   4   6
ENDBRANCH   3   4
ENDBRANCH   2   3
TORSDOF 5
ENDMDL
MODEL      203
REMARK 921   NORMALIZED FREE ENERGY PREDICTED BY IDOCK:   -3.24 KCAL/MOL
REMARK 922        TOTAL FREE ENERGY PREDICTED BY IDOCK:   -4.74 KCAL/MOL
REMARK 923 INTER-LIGAND FREE ENERGY PREDICTED BY IDOCK:   -4.13 KCAL/MOL
REMARK 924 INTRA-LIGAND FREE ENERGY PREDICTED BY IDOCK:   -0.61 KCAL/MOL
REMARK 927      BINDING AFFINITY PREDICTED BY RF-SCORE:    0.00 PKD
ROOT
HETATM    1  C   UNL     1      -7.342   9.736  70.253  1.00  0.00    -0.165 C  
HETATM    2  C   UNL     1      -7.745  10.540  69.029  1.00  0.00    -0.125 C  
ENDROOT
BRANCH   2   3
HETATM    3  O   UNL     1      -8.230   9.619  68.043  1.00  0.00    -0.109 OA 
BRANCH   3   4
HETATM    4  C   UNL     1      -9.579   9.612  67.859  1.00  0.00    -0.139 C  
HETATM    5  O   UNL     1     -10.383   9.108  68.630  1.00  0.00    -0.200 OA 
BRANCH   4   6
HETATM    6  C   UNL     1      -9.904  10.377  66.684  1.00  0.00    -0.202 A  
HETATM    7  C   UNL     1      -9.891   9.978  65.360  1.00  0.00    -0.314 A  
HETATM    8  N   UNL     1     -10.207  11.005  64.518  1.00  0.00    -0.319 NA 
HETATM    9  C   UNL     1     -10.413  12.036  65.301  1.00  0.00    -0.284 A  
HETATM   10  N   UNL     1     -10.260  11.716  66.623  1.00  0.00    -0.211 NA 
BRANCH  10  11
HETATM   11  C   UNL     1     -10.490  12.622  67.761  1.00  0.00    -0.221 C  
HETATM   12  C   UNL     1     -11.903  12.433  68.319  1.00  0.00    -0.364 C  
BRANCH  11  13
HETATM   13  C   UNL     1     -10.132  14.069  67.437  1.00  0.00    -0.244 A  
HETATM   14  C   UNL     1      -8.778  14.452  67.415  1.00  0.00    -0.214 A  
HETATM   15  C   UNL     1      -8.412  15.777  67.175  1.00  0.00    -0.235 A  
HETATM   16  C   UNL     1      -9.391  16.740  66.945  1.00  0.00    -0.250 A  
HETATM   17  C   UNL     1     -10.734  16.376  66.941  1.00  0.00    -0.202 A  
HETATM   18  C   UNL     1     -11.104  15.052  67.181  1.00  0.00    -0.332 A  
ENDBRANCH  11  13
ENDBRANCH  10  11
ENDBRANCH   4   6
ENDBRANCH   3   4
ENDBRANCH   2   3
TORSDOF 5
ENDMDL
MODEL      204
REMARK 921   NORMALIZED FREE ENERGY PREDICTED BY IDOCK:   -3.24 KCAL/MOL
REMARK 922        TOTAL FREE ENERGY PREDICTED BY IDOCK:   -4.73 KCAL/MOL
REMARK 923 INTER-LIGAND FREE ENERGY PREDICTED BY IDOCK:   -5.19 KCAL/MOL
REMARK 924 INTRA-LIGAND FREE ENERGY PREDICTED BY IDOCK:    0.45 KCAL/MOL
REMARK 927      BINDING AFFINITY PREDICTED BY RF-SCORE:    0.00 PKD
ROOT
HETATM    1  C   UNL     1     -10.253  20.213  66.852  1.00  0.00    -0.566 C  
HETATM    2  C   UNL     1     -10.614  18.738  66.841  1.00  0.00    -0.409 C  
ENDROOT
BRANCH   2   3
HETATM    3  O   UNL     1     -10.475  18.245  68.181  1.00  0.00    -0.373 OA 
BRANCH   3   4
HETATM    4  C   UNL     1     -10.345  16.894  68.298  1.00  0.00    -0.335 C  
HETATM    5  O   UNL     1     -11.279  16.117  68.440  1.00  0.00    -0.345 OA 
BRANCH   4   6
HETATM    6  C   UNL     1      -8.964  16.530  68.122  1.00  0.00    -0.207 A  
HETATM    7  C   UNL     1      -7.864  16.923  68.862  1.00  0.00    -0.233 A  
HETATM    8  N   UNL     1      -6.704  16.412  68.355  1.00  0.00    -0.137 NA 
HETATM    9  C   UNL     1      -7.069  15.711  67.309  1.00  0.00    -0.207 A  
HETATM   10  N   UNL     1      -8.425  15.731  67.125  1.00  0.00    -0.191 NA 
BRANCH  10  11
HETATM   11  C   UNL     1      -9.165  14.989  66.090  1.00  0.00    -0.259 C  
HETATM   12  C   UNL     1     -10.014  15.944  65.248  1.00  0.00    -0.121 C  
BRANCH  11  13
HETATM   13  C   UNL     1      -9.935  13.802  66.662  1.00  0.00    -0.279 A  
HETATM   14  C   UNL     1     -10.840  13.110  65.836  1.00  0.00    -0.288 A  
HETATM   15  C   UNL     1     -11.602  12.054  66.337  1.00  0.00    -0.381 A  
HETATM   16  C   UNL     1     -11.467  11.665  67.667  1.00  0.00    -0.373 A  
HETATM   17  C   UNL     1     -10.561  12.323  68.492  1.00  0.00    -0.254 A  
HETATM   18  C   UNL     1      -9.797  13.380  67.995  1.00  0.00    -0.229 A  
ENDBRANCH  11  13
ENDBRANCH  10  11
ENDBRANCH   4   6
ENDBRANCH   3   4
ENDBRANCH   2   3
TORSDOF 5
ENDMDL
MODEL      205
REMARK 921   NORMALIZED FREE ENERGY PREDICTED BY IDOCK:   -3.23 KCAL/MOL
REMARK 922        TOTAL FREE ENERGY PREDICTED BY IDOCK:   -4.73 KCAL/MOL
REMARK 923 INTER-LIGAND FREE ENERGY PREDICTED BY IDOCK:   -4.45 KCAL/MOL
REMARK 924 INTRA-LIGAND FREE ENERGY PREDICTED BY IDOCK:   -0.28 KCAL/MOL
REMARK 927      BINDING AFFINITY PREDICTED BY RF-SCORE:    0.00 PKD
ROOT
HETATM    1  C   UNL     1     -11.814  14.423  70.704  1.00  0.00    -0.361 C  
HETATM    2  C   UNL     1     -12.521  13.302  69.962  1.00  0.00    -0.100 C  
ENDROOT
BRANCH   2   3
HETATM    3  O   UNL     1     -11.679  12.143  70.016  1.00  0.00    -0.308 OA 
BRANCH   3   4
HETATM    4  C   UNL     1     -11.467  11.516  68.825  1.00  0.00    -0.287 C  
HETATM    5  O   UNL     1     -12.352  11.076  68.105  1.00  0.00    -0.402 OA 
BRANCH   4   6
HETATM    6  C   UNL     1     -10.063  11.553  68.511  1.00  0.00    -0.207 A  
HETATM    7  C   UNL     1      -9.249  12.653  68.314  1.00  0.00    -0.184 A  
HETATM    8  N   UNL     1      -7.977  12.288  67.976  1.00  0.00    -0.140 NA 
HETATM    9  C   UNL     1      -7.993  10.978  67.956  1.00  0.00    -0.115 A  
HETATM   10  N   UNL     1      -9.222  10.474  68.286  1.00  0.00    -0.147 NA 
BRANCH  10  11
HETATM   11  C   UNL     1      -9.558   9.047  68.428  1.00  0.00    -0.152 C  
HETATM   12  C   UNL     1     -10.523   8.609  67.323  1.00  0.00    -0.360 C  
BRANCH  11  13
HETATM   13  C   UNL     1     -10.018   8.694  69.840  1.00  0.00    -0.189 A  
HETATM   14  C   UNL     1      -9.149   8.925  70.922  1.00  0.00    -0.283 A  
HETATM   15  C   UNL     1      -9.513   8.566  72.221  1.00  0.00    -0.365 A  
HETATM   16  C   UNL     1     -10.751   7.978  72.461  1.00  0.00    -0.407 A  
HETATM   17  C   UNL     1     -11.633   7.762  71.407  1.00  0.00    -0.305 A  
HETATM   18  C   UNL     1     -11.273   8.120  70.106  1.00  0.00    -0.134 A  
ENDBRANCH  11  13
ENDBRANCH  10  11
ENDBRANCH   4   6
ENDBRANCH   3   4
ENDBRANCH   2   3
TORSDOF 5
ENDMDL
MODEL      206
REMARK 921   NORMALIZED FREE ENERGY PREDICTED BY IDOCK:   -3.23 KCAL/MOL
REMARK 922        TOTAL FREE ENERGY PREDICTED BY IDOCK:   -4.73 KCAL/MOL
REMARK 923 INTER-LIGAND FREE ENERGY PREDICTED BY IDOCK:   -4.40 KCAL/MOL
REMARK 924 INTRA-LIGAND FREE ENERGY PREDICTED BY IDOCK:   -0.33 KCAL/MOL
REMARK 927      BINDING AFFINITY PREDICTED BY RF-SCORE:    0.00 PKD
ROOT
HETATM    1  C   UNL     1      -8.420  13.367  67.355  1.00  0.00    -0.197 C  
HETATM    2  C   UNL     1      -9.484  12.324  67.061  1.00  0.00    -0.204 C  
ENDROOT
BRANCH   2   3
HETATM    3  O   UNL     1     -10.194  12.068  68.280  1.00  0.00    -0.195 OA 
BRANCH   3   4
HETATM    4  C   UNL     1     -11.183  11.135  68.198  1.00  0.00    -0.292 C  
HETATM    5  O   UNL     1     -11.647  10.705  67.151  1.00  0.00    -0.321 OA 
BRANCH   4   6
HETATM    6  C   UNL     1     -11.509  10.668  69.520  1.00  0.00    -0.291 A  
HETATM    7  C   UNL     1     -12.551  11.055  70.342  1.00  0.00    -0.267 A  
HETATM    8  N   UNL     1     -12.501  10.426  71.553  1.00  0.00    -0.398 NA 
HETATM    9  C   UNL     1     -11.440   9.659  71.495  1.00  0.00    -0.369 A  
HETATM   10  N   UNL     1     -10.806   9.750  70.285  1.00  0.00    -0.277 NA 
BRANCH  10  11
HETATM   11  C   UNL     1      -9.631   8.967  69.867  1.00  0.00    -0.177 C  
HETATM   12  C   UNL     1      -8.410   9.876  69.707  1.00  0.00    -0.196 C  
BRANCH  11  13
HETATM   13  C   UNL     1      -9.918   8.082  68.657  1.00  0.00    -0.200 A  
HETATM   14  C   UNL     1     -10.881   7.062  68.767  1.00  0.00    -0.198 A  
HETATM   15  C   UNL     1     -11.134   6.199  67.700  1.00  0.00    -0.311 A  
HETATM   16  C   UNL     1     -10.436   6.345  66.504  1.00  0.00    -0.150 A  
HETATM   17  C   UNL     1      -9.496   7.361  66.370  1.00  0.00    -0.194 A  
HETATM   18  C   UNL     1      -9.240   8.227  67.435  1.00  0.00    -0.163 A  
ENDBRANCH  11  13
ENDBRANCH  10  11
ENDBRANCH   4   6
ENDBRANCH   3   4
ENDBRANCH   2   3
TORSDOF 5
ENDMDL
MODEL      207
REMARK 921   NORMALIZED FREE ENERGY PREDICTED BY IDOCK:   -3.22 KCAL/MOL
REMARK 922        TOTAL FREE ENERGY PREDICTED BY IDOCK:   -4.71 KCAL/MOL
REMARK 923 INTER-LIGAND FREE ENERGY PREDICTED BY IDOCK:   -4.15 KCAL/MOL
REMARK 924 INTRA-LIGAND FREE ENERGY PREDICTED BY IDOCK:   -0.56 KCAL/MOL
REMARK 927      BINDING AFFINITY PREDICTED BY RF-SCORE:    0.00 PKD
ROOT
HETATM    1  C   UNL     1      -7.546   5.178  65.988  1.00  0.00    -0.087 C  
HETATM    2  C   UNL     1      -8.901   5.858  66.069  1.00  0.00    -0.149 C  
ENDROOT
BRANCH   2   3
HETATM    3  O   UNL     1      -8.944   6.602  67.293  1.00  0.00    -0.115 OA 
BRANCH   3   4
HETATM    4  C   UNL     1     -10.168   7.086  67.644  1.00  0.00    -0.193 C  
HETATM    5  O   UNL     1     -11.218   6.781  67.096  1.00  0.00    -0.379 OA 
BRANCH   4   6
HETATM    6  C   UNL     1     -10.036   7.916  68.812  1.00  0.00    -0.193 A  
HETATM    7  C   UNL     1      -9.258   9.045  68.989  1.00  0.00    -0.140 A  
HETATM    8  N   UNL     1      -9.352   9.532  70.261  1.00  0.00    -0.246 NA 
HETATM    9  C   UNL     1     -10.175   8.719  70.876  1.00  0.00    -0.226 A  
HETATM   10  N   UNL     1     -10.634   7.729  70.049  1.00  0.00    -0.235 NA 
BRANCH  10  11
HETATM   11  C   UNL     1     -11.626   6.700  70.405  1.00  0.00    -0.398 C  
HETATM   12  C   UNL     1     -12.832   7.335  71.102  1.00  0.00    -0.334 C  
BRANCH  11  13
HETATM   13  C   UNL     1     -11.005   5.530  71.164  1.00  0.00    -0.196 A  
HETATM   14  C   UNL     1     -11.422   5.271  72.483  1.00  0.00    -0.209 A  
HETATM   15  C   UNL     1     -10.840   4.244  73.228  1.00  0.00    -0.323 A  
HETATM   16  C   UNL     1      -9.840   3.455  72.667  1.00  0.00    -0.209 A  
HETATM   17  C   UNL     1      -9.430   3.683  71.357  1.00  0.00    -0.227 A  
HETATM   18  C   UNL     1     -10.010   4.709  70.608  1.00  0.00    -0.293 A  
ENDBRANCH  11  13
ENDBRANCH  10  11
ENDBRANCH   4   6
ENDBRANCH   3   4
ENDBRANCH   2   3
TORSDOF 5
ENDMDL
MODEL      208
REMARK 921   NORMALIZED FREE ENERGY PREDICTED BY IDOCK:   -3.22 KCAL/MOL
REMARK 922        TOTAL FREE ENERGY PREDICTED BY IDOCK:   -4.70 KCAL/MOL
REMARK 923 INTER-LIGAND FREE ENERGY PREDICTED BY IDOCK:   -4.47 KCAL/MOL
REMARK 924 INTRA-LIGAND FREE ENERGY PREDICTED BY IDOCK:   -0.23 KCAL/MOL
REMARK 927      BINDING AFFINITY PREDICTED BY RF-SCORE:    0.00 PKD
ROOT
HETATM    1  C   UNL     1      -9.820   3.392  71.500  1.00  0.00    -0.212 C  
HETATM    2  C   UNL     1      -8.966   4.629  71.290  1.00  0.00    -0.127 C  
ENDROOT
BRANCH   2   3
HETATM    3  O   UNL     1      -9.525   5.686  72.081  1.00  0.00    -0.149 OA 
BRANCH   3   4
HETATM    4  C   UNL     1     -10.195   6.648  71.386  1.00  0.00    -0.199 C  
HETATM    5  O   UNL     1     -11.386   6.603  71.112  1.00  0.00    -0.274 OA 
BRANCH   4   6
HETATM    6  C   UNL     1      -9.311   7.754  71.130  1.00  0.00    -0.150 A  
HETATM    7  C   UNL     1      -8.204   8.162  71.850  1.00  0.00    -0.141 A  
HETATM    8  N   UNL     1      -7.648   9.294  71.327  1.00  0.00    -0.338 NA 
HETATM    9  C   UNL     1      -8.397   9.595  70.295  1.00  0.00    -0.186 A  
HETATM   10  N   UNL     1      -9.411   8.693  70.115  1.00  0.00    -0.160 NA 
BRANCH  10  11
HETATM   11  C   UNL     1     -10.383   8.699  69.009  1.00  0.00    -0.213 C  
HETATM   12  C   UNL     1      -9.866   7.865  67.834  1.00  0.00    -0.201 C  
BRANCH  11  13
HETATM   13  C   UNL     1     -10.826  10.110  68.629  1.00  0.00    -0.272 A  
HETATM   14  C   UNL     1     -11.403  10.935  69.613  1.00  0.00    -0.362 A  
HETATM   15  C   UNL     1     -11.869  12.211  69.293  1.00  0.00    -0.370 A  
HETATM   16  C   UNL     1     -11.761  12.686  67.989  1.00  0.00    -0.402 A  
HETATM   17  C   UNL     1     -11.173  11.894  67.008  1.00  0.00    -0.379 A  
HETATM   18  C   UNL     1     -10.705  10.617  67.324  1.00  0.00    -0.338 A  
ENDBRANCH  11  13
ENDBRANCH  10  11
ENDBRANCH   4   6
ENDBRANCH   3   4
ENDBRANCH   2   3
TORSDOF 5
ENDMDL
MODEL      209
REMARK 921   NORMALIZED FREE ENERGY PREDICTED BY IDOCK:   -3.22 KCAL/MOL
REMARK 922        TOTAL FREE ENERGY PREDICTED BY IDOCK:   -4.70 KCAL/MOL
REMARK 923 INTER-LIGAND FREE ENERGY PREDICTED BY IDOCK:   -6.27 KCAL/MOL
REMARK 924 INTRA-LIGAND FREE ENERGY PREDICTED BY IDOCK:    1.57 KCAL/MOL
REMARK 927      BINDING AFFINITY PREDICTED BY RF-SCORE:    0.00 PKD
ROOT
HETATM    1  C   UNL     1     -13.078  16.084  73.625  1.00  0.00    -0.609 C  
HETATM    2  C   UNL     1     -12.416  14.721  73.524  1.00  0.00    -0.391 C  
ENDROOT
BRANCH   2   3
HETATM    3  O   UNL     1     -12.027  14.525  72.158  1.00  0.00    -0.252 OA 
BRANCH   3   4
HETATM    4  C   UNL     1     -12.948  13.906  71.368  1.00  0.00    -0.355 C  
HETATM    5  O   UNL     1     -14.144  14.164  71.362  1.00  0.00    -0.305 OA 
BRANCH   4   6
HETATM    6  C   UNL     1     -12.278  12.993  70.480  1.00  0.00    -0.313 A  
HETATM    7  C   UNL     1     -12.187  11.615  70.563  1.00  0.00    -0.361 A  
HETATM    8  N   UNL     1     -11.416  11.098  69.562  1.00  0.00    -0.274 NA 
HETATM    9  C   UNL     1     -11.026  12.135  68.862  1.00  0.00    -0.224 A  
HETATM   10  N   UNL     1     -11.527  13.308  69.358  1.00  0.00    -0.273 NA 
BRANCH  10  11
HETATM   11  C   UNL     1     -11.342  14.643  68.765  1.00  0.00    -0.281 C  
HETATM   12  C   UNL     1     -12.229  15.672  69.471  1.00  0.00    -0.231 C  
BRANCH  11  13
HETATM   13  C   UNL     1     -11.482  14.631  67.245  1.00  0.00    -0.386 A  
HETATM   14  C   UNL     1     -10.691  15.506  66.477  1.00  0.00    -0.304 A  
HETATM   15  C   UNL     1     -10.828  15.562  65.089  1.00  0.00    -0.452 A  
HETATM   16  C   UNL     1     -11.750  14.741  64.446  1.00  0.00    -0.347 A  
HETATM   17  C   UNL     1     -12.525  13.855  65.186  1.00  0.00    -0.479 A  
HETATM   18  C   UNL     1     -12.391  13.795  66.575  1.00  0.00    -0.432 A  
ENDBRANCH  11  13
ENDBRANCH  10  11
ENDBRANCH   4   6
ENDBRANCH   3   4
ENDBRANCH   2   3
TORSDOF 5
ENDMDL
MODEL      210
REMARK 921   NORMALIZED FREE ENERGY PREDICTED BY IDOCK:   -3.20 KCAL/MOL
REMARK 922        TOTAL FREE ENERGY PREDICTED BY IDOCK:   -4.69 KCAL/MOL
REMARK 923 INTER-LIGAND FREE ENERGY PREDICTED BY IDOCK:   -4.75 KCAL/MOL
REMARK 924 INTRA-LIGAND FREE ENERGY PREDICTED BY IDOCK:    0.07 KCAL/MOL
REMARK 927      BINDING AFFINITY PREDICTED BY RF-SCORE:    0.00 PKD
ROOT
HETATM    1  C   UNL     1      -7.962   7.975  73.565  1.00  0.00    -0.243 C  
HETATM    2  C   UNL     1      -7.421   8.362  72.200  1.00  0.00    -0.112 C  
ENDROOT
BRANCH   2   3
HETATM    3  O   UNL     1      -8.517   8.863  71.423  1.00  0.00    -0.187 OA 
BRANCH   3   4
HETATM    4  C   UNL     1      -8.176   9.674  70.383  1.00  0.00    -0.160 C  
HETATM    5  O   UNL     1      -7.279  10.504  70.415  1.00  0.00    -0.248 OA 
BRANCH   4   6
HETATM    6  C   UNL     1      -8.960   9.323  69.228  1.00  0.00    -0.147 A  
HETATM    7  C   UNL     1      -8.890   9.837  67.946  1.00  0.00    -0.122 A  
HETATM    8  N   UNL     1      -9.839   9.292  67.130  1.00  0.00    -0.181 NA 
HETATM    9  C   UNL     1     -10.499   8.451  67.888  1.00  0.00    -0.193 A  
HETATM   10  N   UNL     1     -10.005   8.415  69.165  1.00  0.00    -0.191 NA 
BRANCH  10  11
HETATM   11  C   UNL     1     -10.470   7.526  70.243  1.00  0.00    -0.222 C  
HETATM   12  C   UNL     1     -10.425   6.064  69.791  1.00  0.00    -0.320 C  
BRANCH  11  13
HETATM   13  C   UNL     1     -11.814   7.963  70.820  1.00  0.00    -0.190 A  
HETATM   14  C   UNL     1     -12.012   9.317  71.146  1.00  0.00    -0.394 A  
HETATM   15  C   UNL     1     -13.207   9.746  71.725  1.00  0.00    -0.532 A  
HETATM   16  C   UNL     1     -14.226   8.833  71.982  1.00  0.00    -0.493 A  
HETATM   17  C   UNL     1     -14.056   7.493  71.646  1.00  0.00    -0.562 A  
HETATM   18  C   UNL     1     -12.862   7.060  71.067  1.00  0.00    -0.258 A  
ENDBRANCH  11  13
ENDBRANCH  10  11
ENDBRANCH   4   6
ENDBRANCH   3   4
ENDBRANCH   2   3
TORSDOF 5
ENDMDL
MODEL      211
REMARK 921   NORMALIZED FREE ENERGY PREDICTED BY IDOCK:   -3.19 KCAL/MOL
REMARK 922        TOTAL FREE ENERGY PREDICTED BY IDOCK:   -4.67 KCAL/MOL
REMARK 923 INTER-LIGAND FREE ENERGY PREDICTED BY IDOCK:   -4.16 KCAL/MOL
REMARK 924 INTRA-LIGAND FREE ENERGY PREDICTED BY IDOCK:   -0.50 KCAL/MOL
REMARK 927      BINDING AFFINITY PREDICTED BY RF-SCORE:    0.00 PKD
ROOT
HETATM    1  C   UNL     1      -8.316   8.134  72.668  1.00  0.00    -0.236 C  
HETATM    2  C   UNL     1      -7.682   7.916  71.306  1.00  0.00    -0.086 C  
ENDROOT
BRANCH   2   3
HETATM    3  O   UNL     1      -8.739   7.703  70.361  1.00  0.00    -0.140 OA 
BRANCH   3   4
HETATM    4  C   UNL     1      -8.415   7.930  69.057  1.00  0.00    -0.131 C  
HETATM    5  O   UNL     1      -8.430   7.079  68.179  1.00  0.00    -0.127 OA 
BRANCH   4   6
HETATM    6  C   UNL     1      -8.165   9.335  68.866  1.00  0.00    -0.111 A  
HETATM    7  C   UNL     1      -6.968  10.021  68.962  1.00  0.00    -0.056 A  
HETATM    8  N   UNL     1      -7.136  11.362  68.767  1.00  0.00    -0.094 NA 
HETATM    9  C   UNL     1      -8.421  11.517  68.556  1.00  0.00    -0.143 A  
HETATM   10  N   UNL     1      -9.094  10.325  68.589  1.00  0.00    -0.144 NA 
BRANCH  10  11
HETATM   11  C   UNL     1     -10.530  10.140  68.319  1.00  0.00    -0.211 C  
HETATM   12  C   UNL     1     -10.934  10.871  67.036  1.00  0.00    -0.310 C  
BRANCH  11  13
HETATM   13  C   UNL     1     -11.398  10.471  69.530  1.00  0.00    -0.341 A  
HETATM   14  C   UNL     1     -11.906  11.775  69.673  1.00  0.00    -0.407 A  
HETATM   15  C   UNL     1     -12.660  12.130  70.793  1.00  0.00    -0.305 A  
HETATM   16  C   UNL     1     -12.925  11.188  71.783  1.00  0.00    -0.526 A  
HETATM   17  C   UNL     1     -12.450   9.888  71.648  1.00  0.00    -0.507 A  
HETATM   18  C   UNL     1     -11.696   9.528  70.529  1.00  0.00    -0.285 A  
ENDBRANCH  11  13
ENDBRANCH  10  11
ENDBRANCH   4   6
ENDBRANCH   3   4
ENDBRANCH   2   3
TORSDOF 5
ENDMDL
MODEL      212
REMARK 921   NORMALIZED FREE ENERGY PREDICTED BY IDOCK:   -3.19 KCAL/MOL
REMARK 922        TOTAL FREE ENERGY PREDICTED BY IDOCK:   -4.67 KCAL/MOL
REMARK 923 INTER-LIGAND FREE ENERGY PREDICTED BY IDOCK:   -4.14 KCAL/MOL
REMARK 924 INTRA-LIGAND FREE ENERGY PREDICTED BY IDOCK:   -0.52 KCAL/MOL
REMARK 927      BINDING AFFINITY PREDICTED BY RF-SCORE:    0.00 PKD
ROOT
HETATM    1  C   UNL     1      -9.758   4.170  65.873  1.00  0.00    -0.208 C  
HETATM    2  C   UNL     1      -9.104   5.336  66.593  1.00  0.00    -0.122 C  
ENDROOT
BRANCH   2   3
HETATM    3  O   UNL     1      -9.810   5.541  67.824  1.00  0.00    -0.124 OA 
BRANCH   3   4
HETATM    4  C   UNL     1     -10.579   6.664  67.880  1.00  0.00    -0.247 C  
HETATM    5  O   UNL     1     -11.109   7.192  66.912  1.00  0.00    -0.327 OA 
BRANCH   4   6
HETATM    6  C   UNL     1     -10.751   7.056  69.254  1.00  0.00    -0.225 A  
HETATM    7  C   UNL     1     -11.542   6.474  70.228  1.00  0.00    -0.409 A  
HETATM    8  N   UNL     1     -11.488   7.165  71.404  1.00  0.00    -0.261 NA 
HETATM    9  C   UNL     1     -10.679   8.169  71.172  1.00  0.00    -0.221 A  
HETATM   10  N   UNL     1     -10.189   8.149  69.894  1.00  0.00    -0.200 NA 
BRANCH  10  11
HETATM   11  C   UNL     1      -9.202   9.089  69.336  1.00  0.00    -0.150 C  
HETATM   12  C   UNL     1      -8.051   9.307  70.321  1.00  0.00    -0.165 C  
BRANCH  11  13
HETATM   13  C   UNL     1      -9.844  10.376  68.826  1.00  0.00    -0.190 A  
HETATM   14  C   UNL     1      -9.035  11.506  68.606  1.00  0.00    -0.115 A  
HETATM   15  C   UNL     1      -9.594  12.716  68.192  1.00  0.00    -0.219 A  
HETATM   16  C   UNL     1     -10.966  12.816  67.982  1.00  0.00    -0.266 A  
HETATM   17  C   UNL     1     -11.779  11.703  68.173  1.00  0.00    -0.365 A  
HETATM   18  C   UNL     1     -11.225  10.491  68.588  1.00  0.00    -0.328 A  
ENDBRANCH  11  13
ENDBRANCH  10  11
ENDBRANCH   4   6
ENDBRANCH   3   4
ENDBRANCH   2   3
TORSDOF 5
ENDMDL
MODEL      213
REMARK 921   NORMALIZED FREE ENERGY PREDICTED BY IDOCK:   -3.17 KCAL/MOL
REMARK 922        TOTAL FREE ENERGY PREDICTED BY IDOCK:   -4.64 KCAL/MOL
REMARK 923 INTER-LIGAND FREE ENERGY PREDICTED BY IDOCK:   -4.34 KCAL/MOL
REMARK 924 INTRA-LIGAND FREE ENERGY PREDICTED BY IDOCK:   -0.31 KCAL/MOL
REMARK 927      BINDING AFFINITY PREDICTED BY RF-SCORE:    0.00 PKD
ROOT
HETATM    1  C   UNL     1      -5.325   8.923  71.668  1.00  0.00    -0.045 C  
HETATM    2  C   UNL     1      -6.634   9.294  70.994  1.00  0.00    -0.091 C  
ENDROOT
BRANCH   2   3
HETATM    3  O   UNL     1      -7.437   8.108  70.919  1.00  0.00    -0.056 OA 
BRANCH   3   4
HETATM    4  C   UNL     1      -8.488   8.055  71.783  1.00  0.00    -0.129 C  
HETATM    5  O   UNL     1      -8.802   8.954  72.551  1.00  0.00    -0.381 OA 
BRANCH   4   6
HETATM    6  C   UNL     1      -9.219   6.833  71.571  1.00  0.00    -0.149 A  
HETATM    7  C   UNL     1      -9.071   5.614  72.208  1.00  0.00    -0.139 A  
HETATM    8  N   UNL     1      -9.912   4.670  71.694  1.00  0.00    -0.186 NA 
HETATM    9  C   UNL     1     -10.576   5.284  70.745  1.00  0.00    -0.186 A  
HETATM   10  N   UNL     1     -10.212   6.599  70.633  1.00  0.00    -0.188 NA 
BRANCH  10  11
HETATM   11  C   UNL     1     -10.815   7.584  69.719  1.00  0.00    -0.225 C  
HETATM   12  C   UNL     1      -9.762   8.137  68.755  1.00  0.00    -0.155 C  
BRANCH  11  13
HETATM   13  C   UNL     1     -11.613   8.655  70.459  1.00  0.00    -0.158 A  
HETATM   14  C   UNL     1     -11.407  10.009  70.136  1.00  0.00    -0.357 A  
HETATM   15  C   UNL     1     -12.078  11.019  70.826  1.00  0.00    -0.467 A  
HETATM   16  C   UNL     1     -12.970  10.694  71.845  1.00  0.00    -0.542 A  
HETATM   17  C   UNL     1     -13.203   9.360  72.163  1.00  0.00    -0.541 A  
HETATM   18  C   UNL     1     -12.534   8.347  71.475  1.00  0.00    -0.342 A  
ENDBRANCH  11  13
ENDBRANCH  10  11
ENDBRANCH   4   6
ENDBRANCH   3   4
ENDBRANCH   2   3
TORSDOF 5
ENDMDL
MODEL      214
REMARK 921   NORMALIZED FREE ENERGY PREDICTED BY IDOCK:   -3.16 KCAL/MOL
REMARK 922        TOTAL FREE ENERGY PREDICTED BY IDOCK:   -4.63 KCAL/MOL
REMARK 923 INTER-LIGAND FREE ENERGY PREDICTED BY IDOCK:   -4.38 KCAL/MOL
REMARK 924 INTRA-LIGAND FREE ENERGY PREDICTED BY IDOCK:   -0.26 KCAL/MOL
REMARK 927      BINDING AFFINITY PREDICTED BY RF-SCORE:    0.00 PKD
ROOT
HETATM    1  C   UNL     1      -6.789   6.132  67.643  1.00  0.00    -0.060 C  
HETATM    2  C   UNL     1      -7.764   6.978  68.443  1.00  0.00    -0.120 C  
ENDROOT
BRANCH   2   3
HETATM    3  O   UNL     1      -7.458   6.802  69.832  1.00  0.00    -0.089 OA 
BRANCH   3   4
HETATM    4  C   UNL     1      -7.140   7.938  70.513  1.00  0.00    -0.046 C  
HETATM    5  O   UNL     1      -6.392   8.811  70.095  1.00  0.00    -0.036 OA 
BRANCH   4   6
HETATM    6  C   UNL     1      -7.901   7.992  71.733  1.00  0.00    -0.110 A  
HETATM    7  C   UNL     1      -7.465   7.816  73.033  1.00  0.00    -0.108 A  
HETATM    8  N   UNL     1      -8.496   7.886  73.927  1.00  0.00    -0.238 NA 
HETATM    9  C   UNL     1      -9.564   8.099  73.198  1.00  0.00    -0.237 A  
HETATM   10  N   UNL     1      -9.267   8.189  71.865  1.00  0.00    -0.163 NA 
BRANCH  10  11
HETATM   11  C   UNL     1     -10.224   8.496  70.788  1.00  0.00    -0.198 C  
HETATM   12  C   UNL     1      -9.814   9.775  70.054  1.00  0.00    -0.295 C  
BRANCH  11  13
HETATM   13  C   UNL     1     -11.671   8.487  71.274  1.00  0.00    -0.331 A  
HETATM   14  C   UNL     1     -12.409   7.291  71.208  1.00  0.00    -0.401 A  
HETATM   15  C   UNL     1     -13.750   7.256  71.593  1.00  0.00    -0.446 A  
HETATM   16  C   UNL     1     -14.374   8.411  72.056  1.00  0.00    -0.555 A  
HETATM   17  C   UNL     1     -13.654   9.598  72.148  1.00  0.00    -0.471 A  
HETATM   18  C   UNL     1     -12.312   9.637  71.765  1.00  0.00    -0.474 A  
ENDBRANCH  11  13
ENDBRANCH  10  11
ENDBRANCH   4   6
ENDBRANCH   3   4
ENDBRANCH   2   3
TORSDOF 5
ENDMDL
MODEL      215
REMARK 921   NORMALIZED FREE ENERGY PREDICTED BY IDOCK:   -3.13 KCAL/MOL
REMARK 922        TOTAL FREE ENERGY PREDICTED BY IDOCK:   -4.59 KCAL/MOL
REMARK 923 INTER-LIGAND FREE ENERGY PREDICTED BY IDOCK:   -4.10 KCAL/MOL
REMARK 924 INTRA-LIGAND FREE ENERGY PREDICTED BY IDOCK:   -0.49 KCAL/MOL
REMARK 927      BINDING AFFINITY PREDICTED BY RF-SCORE:    0.00 PKD
ROOT
HETATM    1  C   UNL     1      -7.687   9.518  69.526  1.00  0.00    -0.100 C  
HETATM    2  C   UNL     1      -9.153   9.353  69.167  1.00  0.00    -0.148 C  
ENDROOT
BRANCH   2   3
HETATM    3  O   UNL     1      -9.805  10.607  69.407  1.00  0.00    -0.210 OA 
BRANCH   3   4
HETATM    4  C   UNL     1     -10.995  10.782  68.767  1.00  0.00    -0.247 C  
HETATM    5  O   UNL     1     -11.577   9.913  68.134  1.00  0.00    -0.051 OA 
BRANCH   4   6
HETATM    6  C   UNL     1     -11.497  12.102  69.046  1.00  0.00    -0.297 A  
HETATM    7  C   UNL     1     -12.104  12.572  70.197  1.00  0.00    -0.292 A  
HETATM    8  N   UNL     1     -12.497  13.873  70.066  1.00  0.00    -0.308 NA 
HETATM    9  C   UNL     1     -12.146  14.215  68.851  1.00  0.00    -0.304 A  
HETATM   10  N   UNL     1     -11.522  13.191  68.189  1.00  0.00    -0.292 NA 
BRANCH  10  11
HETATM   11  C   UNL     1     -10.940  13.267  66.839  1.00  0.00    -0.283 C  
HETATM   12  C   UNL     1     -11.916  12.706  65.801  1.00  0.00    -0.503 C  
BRANCH  11  13
HETATM   13  C   UNL     1      -9.539  12.666  66.772  1.00  0.00    -0.241 A  
HETATM   14  C   UNL     1      -9.335  11.482  66.040  1.00  0.00    -0.239 A  
HETATM   15  C   UNL     1      -8.080  10.872  65.999  1.00  0.00    -0.142 A  
HETATM   16  C   UNL     1      -7.007  11.438  66.682  1.00  0.00    -0.102 A  
HETATM   17  C   UNL     1      -7.185  12.621  67.394  1.00  0.00    -0.138 A  
HETATM   18  C   UNL     1      -8.439  13.233  67.437  1.00  0.00    -0.206 A  
ENDBRANCH  11  13
ENDBRANCH  10  11
ENDBRANCH   4   6
ENDBRANCH   3   4
ENDBRANCH   2   3
TORSDOF 5
ENDMDL
MODEL      216
REMARK 921   NORMALIZED FREE ENERGY PREDICTED BY IDOCK:   -3.12 KCAL/MOL
REMARK 922        TOTAL FREE ENERGY PREDICTED BY IDOCK:   -4.58 KCAL/MOL
REMARK 923 INTER-LIGAND FREE ENERGY PREDICTED BY IDOCK:   -4.09 KCAL/MOL
REMARK 924 INTRA-LIGAND FREE ENERGY PREDICTED BY IDOCK:   -0.48 KCAL/MOL
REMARK 927      BINDING AFFINITY PREDICTED BY RF-SCORE:    0.00 PKD
ROOT
HETATM    1  C   UNL     1      -8.159   4.359  67.886  1.00  0.00    -0.094 C  
HETATM    2  C   UNL     1      -7.740   5.800  68.115  1.00  0.00    -0.096 C  
ENDROOT
BRANCH   2   3
HETATM    3  O   UNL     1      -8.652   6.640  67.395  1.00  0.00    -0.119 OA 
BRANCH   3   4
HETATM    4  C   UNL     1      -9.188   7.670  68.107  1.00  0.00    -0.138 C  
HETATM    5  O   UNL     1     -10.117   7.560  68.895  1.00  0.00    -0.181 OA 
BRANCH   4   6
HETATM    6  C   UNL     1      -8.425   8.866  67.865  1.00  0.00    -0.125 A  
HETATM    7  C   UNL     1      -7.433   9.432  68.645  1.00  0.00    -0.079 A  
HETATM    8  N   UNL     1      -6.977  10.603  68.112  1.00  0.00    -0.072 NA 
HETATM    9  C   UNL     1      -7.673  10.773  67.015  1.00  0.00    -0.121 A  
HETATM   10  N   UNL     1      -8.555   9.747  66.803  1.00  0.00    -0.127 NA 
BRANCH  10  11
HETATM   11  C   UNL     1      -9.432   9.594  65.630  1.00  0.00    -0.255 C  
HETATM   12  C   UNL     1      -8.613   9.212  64.394  1.00  0.00    -0.204 C  
BRANCH  11  13
HETATM   13  C   UNL     1     -10.350  10.796  65.426  1.00  0.00    -0.315 A  
HETATM   14  C   UNL     1     -10.570  11.278  64.123  1.00  0.00    -0.437 A  
HETATM   15  C   UNL     1     -11.360  12.407  63.901  1.00  0.00    -0.502 A  
HETATM   16  C   UNL     1     -11.950  13.068  64.975  1.00  0.00    -0.438 A  
HETATM   17  C   UNL     1     -11.762  12.593  66.269  1.00  0.00    -0.460 A  
HETATM   18  C   UNL     1     -10.972  11.464  66.495  1.00  0.00    -0.328 A  
ENDBRANCH  11  13
ENDBRANCH  10  11
ENDBRANCH   4   6
ENDBRANCH   3   4
ENDBRANCH   2   3
TORSDOF 5
ENDMDL
MODEL      217
REMARK 921   NORMALIZED FREE ENERGY PREDICTED BY IDOCK:   -3.09 KCAL/MOL
REMARK 922        TOTAL FREE ENERGY PREDICTED BY IDOCK:   -4.54 KCAL/MOL
REMARK 923 INTER-LIGAND FREE ENERGY PREDICTED BY IDOCK:   -4.50 KCAL/MOL
REMARK 924 INTRA-LIGAND FREE ENERGY PREDICTED BY IDOCK:   -0.04 KCAL/MOL
REMARK 927      BINDING AFFINITY PREDICTED BY RF-SCORE:    0.00 PKD
ROOT
HETATM    1  C   UNL     1     -12.009  15.630  69.562  1.00  0.00    -0.363 C  
HETATM    2  C   UNL     1     -11.750  14.722  68.373  1.00  0.00    -0.314 C  
ENDROOT
BRANCH   2   3
HETATM    3  O   UNL     1     -11.719  13.372  68.853  1.00  0.00    -0.285 OA 
BRANCH   3   4
HETATM    4  C   UNL     1     -11.738  12.406  67.893  1.00  0.00    -0.360 C  
HETATM    5  O   UNL     1     -12.101  12.582  66.738  1.00  0.00    -0.546 OA 
BRANCH   4   6
HETATM    6  C   UNL     1     -11.167  11.196  68.422  1.00  0.00    -0.262 A  
HETATM    7  C   UNL     1     -11.734  10.277  69.286  1.00  0.00    -0.070 A  
HETATM    8  N   UNL     1     -10.860   9.280  69.609  1.00  0.00    -0.231 NA 
HETATM    9  C   UNL     1      -9.758   9.568  68.961  1.00  0.00    -0.170 A  
HETATM   10  N   UNL     1      -9.886  10.708  68.213  1.00  0.00    -0.158 NA 
BRANCH  10  11
HETATM   11  C   UNL     1      -8.863  11.266  67.312  1.00  0.00    -0.150 C  
HETATM   12  C   UNL     1      -8.633  12.749  67.615  1.00  0.00    -0.181 C  
BRANCH  11  13
HETATM   13  C   UNL     1      -9.150  10.963  65.844  1.00  0.00    -0.212 A  
HETATM   14  C   UNL     1      -8.864   9.681  65.340  1.00  0.00    -0.204 A  
HETATM   15  C   UNL     1      -9.062   9.382  63.991  1.00  0.00    -0.110 A  
HETATM   16  C   UNL     1      -9.557  10.354  63.126  1.00  0.00    -0.346 A  
HETATM   17  C   UNL     1      -9.867  11.620  63.611  1.00  0.00    -0.366 A  
HETATM   18  C   UNL     1      -9.670  11.924  64.959  1.00  0.00    -0.177 A  
ENDBRANCH  11  13
ENDBRANCH  10  11
ENDBRANCH   4   6
ENDBRANCH   3   4
ENDBRANCH   2   3
TORSDOF 5
ENDMDL
MODEL      218
REMARK 921   NORMALIZED FREE ENERGY PREDICTED BY IDOCK:   -3.09 KCAL/MOL
REMARK 922        TOTAL FREE ENERGY PREDICTED BY IDOCK:   -4.54 KCAL/MOL
REMARK 923 INTER-LIGAND FREE ENERGY PREDICTED BY IDOCK:   -3.80 KCAL/MOL
REMARK 924 INTRA-LIGAND FREE ENERGY PREDICTED BY IDOCK:   -0.74 KCAL/MOL
REMARK 927      BINDING AFFINITY PREDICTED BY RF-SCORE:    0.00 PKD
ROOT
HETATM    1  C   UNL     1     -13.027   7.165  71.679  1.00  0.00    -0.415 C  
HETATM    2  C   UNL     1     -12.821   8.604  71.238  1.00  0.00    -0.192 C  
ENDROOT
BRANCH   2   3
HETATM    3  O   UNL     1     -11.428   8.909  71.383  1.00  0.00    -0.267 OA 
BRANCH   3   4
HETATM    4  C   UNL     1     -10.840   9.497  70.304  1.00  0.00    -0.269 C  
HETATM    5  O   UNL     1     -10.696  10.704  70.164  1.00  0.00    -0.238 OA 
BRANCH   4   6
HETATM    6  C   UNL     1     -10.329   8.479  69.425  1.00  0.00    -0.215 A  
HETATM    7  C   UNL     1     -10.700   8.193  68.124  1.00  0.00    -0.029 A  
HETATM    8  N   UNL     1     -10.026   7.112  67.631  1.00  0.00    -0.149 NA 
HETATM    9  C   UNL     1      -9.246   6.722  68.610  1.00  0.00    -0.132 A  
HETATM   10  N   UNL     1      -9.373   7.518  69.716  1.00  0.00    -0.151 NA 
BRANCH  10  11
HETATM   11  C   UNL     1      -8.589   7.399  70.957  1.00  0.00    -0.134 C  
HETATM   12  C   UNL     1      -7.159   6.950  70.647  1.00  0.00    -0.068 C  
BRANCH  11  13
HETATM   13  C   UNL     1      -9.296   6.557  72.016  1.00  0.00    -0.147 A  
HETATM   14  C   UNL     1      -9.812   5.298  71.658  1.00  0.00    -0.223 A  
HETATM   15  C   UNL     1     -10.511   4.522  72.584  1.00  0.00    -0.258 A  
HETATM   16  C   UNL     1     -10.700   4.986  73.882  1.00  0.00    -0.356 A  
HETATM   17  C   UNL     1     -10.178   6.219  74.261  1.00  0.00    -0.351 A  
HETATM   18  C   UNL     1      -9.478   6.998  73.337  1.00  0.00    -0.210 A  
ENDBRANCH  11  13
ENDBRANCH  10  11
ENDBRANCH   4   6
ENDBRANCH   3   4
ENDBRANCH   2   3
TORSDOF 5
ENDMDL
MODEL      219
REMARK 921   NORMALIZED FREE ENERGY PREDICTED BY IDOCK:   -3.08 KCAL/MOL
REMARK 922        TOTAL FREE ENERGY PREDICTED BY IDOCK:   -4.53 KCAL/MOL
REMARK 923 INTER-LIGAND FREE ENERGY PREDICTED BY IDOCK:   -4.45 KCAL/MOL
REMARK 924 INTRA-LIGAND FREE ENERGY PREDICTED BY IDOCK:   -0.08 KCAL/MOL
REMARK 927      BINDING AFFINITY PREDICTED BY RF-SCORE:    0.00 PKD
ROOT
HETATM    1  C   UNL     1      -9.486  11.480  67.945  1.00  0.00    -0.178 C  
HETATM    2  C   UNL     1      -8.655  10.681  68.933  1.00  0.00    -0.158 C  
ENDROOT
BRANCH   2   3
HETATM    3  O   UNL     1      -9.556  10.054  69.856  1.00  0.00    -0.226 OA 
BRANCH   3   4
HETATM    4  C   UNL     1      -9.146   8.856  70.356  1.00  0.00    -0.190 C  
HETATM    5  O   UNL     1      -8.445   8.721  71.349  1.00  0.00    -0.172 OA 
BRANCH   4   6
HETATM    6  C   UNL     1      -9.751   7.791  69.600  1.00  0.00    -0.172 A  
HETATM    7  C   UNL     1      -9.332   7.229  68.408  1.00  0.00    -0.143 A  
HETATM    8  N   UNL     1     -10.201   6.273  67.966  1.00  0.00    -0.155 NA 
HETATM    9  C   UNL     1     -11.155   6.237  68.865  1.00  0.00    -0.362 A  
HETATM   10  N   UNL     1     -10.931   7.122  69.886  1.00  0.00    -0.257 NA 
BRANCH  10  11
HETATM   11  C   UNL     1     -11.768   7.279  71.087  1.00  0.00    -0.303 C  
HETATM   12  C   UNL     1     -12.085   8.757  71.331  1.00  0.00    -0.361 C  
BRANCH  11  13
HETATM   13  C   UNL     1     -11.192   6.553  72.299  1.00  0.00    -0.308 A  
HETATM   14  C   UNL     1     -10.686   7.307  73.374  1.00  0.00    -0.415 A  
HETATM   15  C   UNL     1     -10.103   6.680  74.476  1.00  0.00    -0.276 A  
HETATM   16  C   UNL     1     -10.022   5.292  74.527  1.00  0.00    -0.258 A  
HETATM   17  C   UNL     1     -10.536   4.528  73.484  1.00  0.00    -0.303 A  
HETATM   18  C   UNL     1     -11.120   5.152  72.380  1.00  0.00    -0.213 A  
ENDBRANCH  11  13
ENDBRANCH  10  11
ENDBRANCH   4   6
ENDBRANCH   3   4
ENDBRANCH   2   3
TORSDOF 5
ENDMDL
MODEL      220
REMARK 921   NORMALIZED FREE ENERGY PREDICTED BY IDOCK:   -3.08 KCAL/MOL
REMARK 922        TOTAL FREE ENERGY PREDICTED BY IDOCK:   -4.53 KCAL/MOL
REMARK 923 INTER-LIGAND FREE ENERGY PREDICTED BY IDOCK:   -4.28 KCAL/MOL
REMARK 924 INTRA-LIGAND FREE ENERGY PREDICTED BY IDOCK:   -0.24 KCAL/MOL
REMARK 927      BINDING AFFINITY PREDICTED BY RF-SCORE:    0.00 PKD
ROOT
HETATM    1  C   UNL     1     -10.849   9.483  68.091  1.00  0.00    -0.208 C  
HETATM    2  C   UNL     1     -10.543  10.265  69.357  1.00  0.00    -0.237 C  
ENDROOT
BRANCH   2   3
HETATM    3  O   UNL     1     -10.006  11.536  68.966  1.00  0.00    -0.142 OA 
BRANCH   3   4
HETATM    4  C   UNL     1     -10.925  12.501  68.684  1.00  0.00    -0.255 C  
HETATM    5  O   UNL     1     -12.103  12.454  69.009  1.00  0.00    -0.259 OA 
BRANCH   4   6
HETATM    6  C   UNL     1     -10.269  13.613  68.048  1.00  0.00    -0.248 A  
HETATM    7  C   UNL     1      -9.688  14.724  68.631  1.00  0.00    -0.225 A  
HETATM    8  N   UNL     1      -9.213  15.597  67.695  1.00  0.00    -0.193 NA 
HETATM    9  C   UNL     1      -9.493  15.044  66.540  1.00  0.00    -0.282 A  
HETATM   10  N   UNL     1     -10.119  13.835  66.688  1.00  0.00    -0.271 NA 
BRANCH  10  11
HETATM   11  C   UNL     1     -10.502  12.925  65.595  1.00  0.00    -0.277 C  
HETATM   12  C   UNL     1     -12.008  12.654  65.625  1.00  0.00    -0.507 C  
BRANCH  11  13
HETATM   13  C   UNL     1      -9.638  11.667  65.554  1.00  0.00    -0.241 A  
HETATM   14  C   UNL     1     -10.107  10.537  64.859  1.00  0.00    -0.403 A  
HETATM   15  C   UNL     1      -9.371   9.351  64.844  1.00  0.00    -0.218 A  
HETATM   16  C   UNL     1      -8.153   9.276  65.514  1.00  0.00    -0.113 A  
HETATM   17  C   UNL     1      -7.663  10.390  66.188  1.00  0.00    -0.129 A  
HETATM   18  C   UNL     1      -8.397  11.579  66.206  1.00  0.00    -0.076 A  
ENDBRANCH  11  13
ENDBRANCH  10  11
ENDBRANCH   4   6
ENDBRANCH   3   4
ENDBRANCH   2   3
TORSDOF 5
ENDMDL
MODEL      221
REMARK 921   NORMALIZED FREE ENERGY PREDICTED BY IDOCK:   -3.08 KCAL/MOL
REMARK 922        TOTAL FREE ENERGY PREDICTED BY IDOCK:   -4.52 KCAL/MOL
REMARK 923 INTER-LIGAND FREE ENERGY PREDICTED BY IDOCK:   -3.97 KCAL/MOL
REMARK 924 INTRA-LIGAND FREE ENERGY PREDICTED BY IDOCK:   -0.55 KCAL/MOL
REMARK 927      BINDING AFFINITY PREDICTED BY RF-SCORE:    0.00 PKD
ROOT
HETATM    1  C   UNL     1     -10.051  10.955  67.485  1.00  0.00    -0.214 C  
HETATM    2  C   UNL     1     -11.073  10.156  68.274  1.00  0.00    -0.227 C  
ENDROOT
BRANCH   2   3
HETATM    3  O   UNL     1     -10.415   8.986  68.780  1.00  0.00    -0.216 OA 
BRANCH   3   4
HETATM    4  C   UNL     1     -10.179   8.980  70.121  1.00  0.00    -0.197 C  
HETATM    5  O   UNL     1      -9.270   9.588  70.669  1.00  0.00    -0.245 OA 
BRANCH   4   6
HETATM    6  C   UNL     1     -11.221   8.242  70.786  1.00  0.00    -0.264 A  
HETATM    7  C   UNL     1     -12.460   8.686  71.211  1.00  0.00    -0.252 A  
HETATM    8  N   UNL     1     -13.156   7.704  71.855  1.00  0.00    -0.293 NA 
HETATM    9  C   UNL     1     -12.366   6.659  71.838  1.00  0.00    -0.318 A  
HETATM   10  N   UNL     1     -11.187   6.917  71.192  1.00  0.00    -0.262 NA 
BRANCH  10  11
HETATM   11  C   UNL     1     -10.115   5.941  70.933  1.00  0.00    -0.197 C  
HETATM   12  C   UNL     1     -10.406   5.149  69.656  1.00  0.00    -0.316 C  
BRANCH  11  13
HETATM   13  C   UNL     1      -9.808   5.075  72.152  1.00  0.00    -0.220 A  
HETATM   14  C   UNL     1     -10.128   3.705  72.118  1.00  0.00    -0.212 A  
HETATM   15  C   UNL     1      -9.911   2.892  73.231  1.00  0.00    -0.180 A  
HETATM   16  C   UNL     1      -9.365   3.430  74.393  1.00  0.00    -0.114 A  
HETATM   17  C   UNL     1      -9.021   4.778  74.438  1.00  0.00    -0.111 A  
HETATM   18  C   UNL     1      -9.237   5.595  73.326  1.00  0.00    -0.132 A  
ENDBRANCH  11  13
ENDBRANCH  10  11
ENDBRANCH   4   6
ENDBRANCH   3   4
ENDBRANCH   2   3
TORSDOF 5
ENDMDL
MODEL      222
REMARK 921   NORMALIZED FREE ENERGY PREDICTED BY IDOCK:   -3.07 KCAL/MOL
REMARK 922        TOTAL FREE ENERGY PREDICTED BY IDOCK:   -4.52 KCAL/MOL
REMARK 923 INTER-LIGAND FREE ENERGY PREDICTED BY IDOCK:   -4.09 KCAL/MOL
REMARK 924 INTRA-LIGAND FREE ENERGY PREDICTED BY IDOCK:   -0.43 KCAL/MOL
REMARK 927      BINDING AFFINITY PREDICTED BY RF-SCORE:    0.00 PKD
ROOT
HETATM    1  C   UNL     1     -10.453   8.605  68.691  1.00  0.00    -0.208 C  
HETATM    2  C   UNL     1     -10.356   9.595  69.838  1.00  0.00    -0.249 C  
ENDROOT
BRANCH   2   3
HETATM    3  O   UNL     1     -10.516  10.912  69.293  1.00  0.00    -0.216 OA 
BRANCH   3   4
HETATM    4  C   UNL     1      -9.489  11.353  68.515  1.00  0.00    -0.183 C  
HETATM    5  O   UNL     1      -8.318  11.035  68.663  1.00  0.00    -0.140 OA 
BRANCH   4   6
HETATM    6  C   UNL     1     -10.015  12.154  67.441  1.00  0.00    -0.199 A  
HETATM    7  C   UNL     1     -10.271  11.787  66.132  1.00  0.00    -0.220 A  
HETATM    8  N   UNL     1     -10.718  12.841  65.389  1.00  0.00    -0.278 NA 
HETATM    9  C   UNL     1     -10.739  13.857  66.216  1.00  0.00    -0.285 A  
HETATM   10  N   UNL     1     -10.339  13.501  67.476  1.00  0.00    -0.236 NA 
BRANCH  10  11
HETATM   11  C   UNL     1     -10.319  14.384  68.655  1.00  0.00    -0.245 C  
HETATM   12  C   UNL     1     -11.734  14.864  68.990  1.00  0.00    -0.347 C  
BRANCH  11  13
HETATM   13  C   UNL     1      -9.290  15.504  68.528  1.00  0.00    -0.197 A  
HETATM   14  C   UNL     1      -9.667  16.716  67.920  1.00  0.00    -0.244 A  
HETATM   15  C   UNL     1      -8.740  17.743  67.737  1.00  0.00    -0.241 A  
HETATM   16  C   UNL     1      -7.425  17.581  68.165  1.00  0.00    -0.218 A  
HETATM   17  C   UNL     1      -7.040  16.398  68.788  1.00  0.00    -0.180 A  
HETATM   18  C   UNL     1      -7.964  15.368  68.972  1.00  0.00    -0.202 A  
ENDBRANCH  11  13
ENDBRANCH  10  11
ENDBRANCH   4   6
ENDBRANCH   3   4
ENDBRANCH   2   3
TORSDOF 5
ENDMDL
MODEL      223
REMARK 921   NORMALIZED FREE ENERGY PREDICTED BY IDOCK:   -3.07 KCAL/MOL
REMARK 922        TOTAL FREE ENERGY PREDICTED BY IDOCK:   -4.51 KCAL/MOL
REMARK 923 INTER-LIGAND FREE ENERGY PREDICTED BY IDOCK:   -3.70 KCAL/MOL
REMARK 924 INTRA-LIGAND FREE ENERGY PREDICTED BY IDOCK:   -0.81 KCAL/MOL
REMARK 927      BINDING AFFINITY PREDICTED BY RF-SCORE:    0.00 PKD
ROOT
HETATM    1  C   UNL     1      -8.500   8.877  71.308  1.00  0.00    -0.239 C  
HETATM    2  C   UNL     1      -7.219   8.767  70.500  1.00  0.00    -0.059 C  
ENDROOT
BRANCH   2   3
HETATM    3  O   UNL     1      -7.317   7.591  69.685  1.00  0.00    -0.085 OA 
BRANCH   3   4
HETATM    4  C   UNL     1      -7.162   7.789  68.346  1.00  0.00    -0.093 C  
HETATM    5  O   UNL     1      -6.162   7.488  67.710  1.00  0.00    -0.045 OA 
BRANCH   4   6
HETATM    6  C   UNL     1      -8.390   8.302  67.796  1.00  0.00    -0.128 A  
HETATM    7  C   UNL     1      -8.645   9.554  67.268  1.00  0.00    -0.128 A  
HETATM    8  N   UNL     1      -9.951   9.689  66.894  1.00  0.00    -0.198 NA 
HETATM    9  C   UNL     1     -10.510   8.539  67.186  1.00  0.00    -0.299 A  
HETATM   10  N   UNL     1      -9.613   7.654  67.720  1.00  0.00    -0.142 NA 
BRANCH  10  11
HETATM   11  C   UNL     1      -9.897   6.256  68.087  1.00  0.00    -0.129 C  
HETATM   12  C   UNL     1     -10.843   5.616  67.068  1.00  0.00    -0.265 C  
BRANCH  11  13
HETATM   13  C   UNL     1     -10.349   6.114  69.538  1.00  0.00    -0.277 A  
HETATM   14  C   UNL     1      -9.728   5.153  70.358  1.00  0.00    -0.270 A  
HETATM   15  C   UNL     1     -10.149   4.957  71.674  1.00  0.00    -0.266 A  
HETATM   16  C   UNL     1     -11.189   5.721  72.196  1.00  0.00    -0.327 A  
HETATM   17  C   UNL     1     -11.800   6.691  71.407  1.00  0.00    -0.388 A  
HETATM   18  C   UNL     1     -11.382   6.891  70.090  1.00  0.00    -0.364 A  
ENDBRANCH  11  13
ENDBRANCH  10  11
ENDBRANCH   4   6
ENDBRANCH   3   4
ENDBRANCH   2   3
TORSDOF 5
ENDMDL
MODEL      224
REMARK 921   NORMALIZED FREE ENERGY PREDICTED BY IDOCK:   -3.06 KCAL/MOL
REMARK 922        TOTAL FREE ENERGY PREDICTED BY IDOCK:   -4.50 KCAL/MOL
REMARK 923 INTER-LIGAND FREE ENERGY PREDICTED BY IDOCK:   -3.98 KCAL/MOL
REMARK 924 INTRA-LIGAND FREE ENERGY PREDICTED BY IDOCK:   -0.52 KCAL/MOL
REMARK 927      BINDING AFFINITY PREDICTED BY RF-SCORE:    0.00 PKD
ROOT
HETATM    1  C   UNL     1      -8.051   4.993  65.735  1.00  0.00    -0.113 C  
HETATM    2  C   UNL     1      -7.982   6.495  65.950  1.00  0.00    -0.115 C  
ENDROOT
BRANCH   2   3
HETATM    3  O   UNL     1      -8.512   6.774  67.253  1.00  0.00    -0.119 OA 
BRANCH   3   4
HETATM    4  C   UNL     1      -9.480   7.732  67.300  1.00  0.00    -0.148 C  
HETATM    5  O   UNL     1     -10.623   7.584  66.893  1.00  0.00    -0.332 OA 
BRANCH   4   6
HETATM    6  C   UNL     1      -8.974   8.887  67.995  1.00  0.00    -0.140 A  
HETATM    7  C   UNL     1      -7.797   9.581  67.778  1.00  0.00    -0.095 A  
HETATM    8  N   UNL     1      -7.634  10.593  68.679  1.00  0.00    -0.095 NA 
HETATM    9  C   UNL     1      -8.689  10.534  69.453  1.00  0.00    -0.078 A  
HETATM   10  N   UNL     1      -9.544   9.532  69.081  1.00  0.00    -0.164 NA 
BRANCH  10  11
HETATM   11  C   UNL     1     -10.852   9.244  69.693  1.00  0.00    -0.212 C  
HETATM   12  C   UNL     1     -11.538  10.541  70.130  1.00  0.00    -0.408 C  
BRANCH  11  13
HETATM   13  C   UNL     1     -10.763   8.182  70.786  1.00  0.00    -0.242 A  
HETATM   14  C   UNL     1     -10.443   8.575  72.099  1.00  0.00    -0.412 A  
HETATM   15  C   UNL     1     -10.301   7.628  73.115  1.00  0.00    -0.411 A  
HETATM   16  C   UNL     1     -10.481   6.275  72.838  1.00  0.00    -0.240 A  
HETATM   17  C   UNL     1     -10.819   5.870  71.551  1.00  0.00    -0.325 A  
HETATM   18  C   UNL     1     -10.963   6.814  70.532  1.00  0.00    -0.327 A  
ENDBRANCH  11  13
ENDBRANCH  10  11
ENDBRANCH   4   6
ENDBRANCH   3   4
ENDBRANCH   2   3
TORSDOF 5
ENDMDL
MODEL      225
REMARK 921   NORMALIZED FREE ENERGY PREDICTED BY IDOCK:   -2.99 KCAL/MOL
REMARK 922        TOTAL FREE ENERGY PREDICTED BY IDOCK:   -4.41 KCAL/MOL
REMARK 923 INTER-LIGAND FREE ENERGY PREDICTED BY IDOCK:   -3.88 KCAL/MOL
REMARK 924 INTRA-LIGAND FREE ENERGY PREDICTED BY IDOCK:   -0.53 KCAL/MOL
REMARK 927      BINDING AFFINITY PREDICTED BY RF-SCORE:    0.00 PKD
ROOT
HETATM    1  C   UNL     1      -6.083  10.221  70.130  1.00  0.00    -0.088 C  
HETATM    2  C   UNL     1      -7.429   9.518  70.176  1.00  0.00    -0.135 C  
ENDROOT
BRANCH   2   3
HETATM    3  O   UNL     1      -8.432  10.471  69.800  1.00  0.00    -0.076 OA 
BRANCH   3   4
HETATM    4  C   UNL     1      -9.710  10.000  69.778  1.00  0.00    -0.226 C  
HETATM    5  O   UNL     1     -10.163   9.183  70.568  1.00  0.00    -0.202 OA 
BRANCH   4   6
HETATM    6  C   UNL     1     -10.456  10.692  68.760  1.00  0.00    -0.194 A  
HETATM    7  C   UNL     1     -11.460  11.630  68.910  1.00  0.00    -0.287 A  
HETATM    8  N   UNL     1     -11.970  12.022  67.705  1.00  0.00    -0.553 NA 
HETATM    9  C   UNL     1     -11.299  11.337  66.812  1.00  0.00    -0.111 A  
HETATM   10  N   UNL     1     -10.359  10.526  67.387  1.00  0.00    -0.210 NA 
BRANCH  10  11
HETATM   11  C   UNL     1      -9.391   9.683  66.665  1.00  0.00    -0.156 C  
HETATM   12  C   UNL     1      -9.365  10.049  65.178  1.00  0.00    -0.302 C  
BRANCH  11  13
HETATM   13  C   UNL     1      -9.591   8.196  66.942  1.00  0.00    -0.269 A  
HETATM   14  C   UNL     1      -8.462   7.372  67.109  1.00  0.00    -0.118 A  
HETATM   15  C   UNL     1      -8.603   5.998  67.311  1.00  0.00    -0.106 A  
HETATM   16  C   UNL     1      -9.871   5.426  67.357  1.00  0.00    -0.175 A  
HETATM   17  C   UNL     1     -10.999   6.228  67.216  1.00  0.00    -0.455 A  
HETATM   18  C   UNL     1     -10.863   7.603  67.014  1.00  0.00    -0.219 A  
ENDBRANCH  11  13
ENDBRANCH  10  11
ENDBRANCH   4   6
ENDBRANCH   3   4
ENDBRANCH   2   3
TORSDOF 5
ENDMDL
MODEL      226
REMARK 921   NORMALIZED FREE ENERGY PREDICTED BY IDOCK:   -2.97 KCAL/MOL
REMARK 922        TOTAL FREE ENERGY PREDICTED BY IDOCK:   -4.39 KCAL/MOL
REMARK 923 INTER-LIGAND FREE ENERGY PREDICTED BY IDOCK:   -3.92 KCAL/MOL
REMARK 924 INTRA-LIGAND FREE ENERGY PREDICTED BY IDOCK:   -0.47 KCAL/MOL
REMARK 927      BINDING AFFINITY PREDICTED BY RF-SCORE:    0.00 PKD
ROOT
HETATM    1  C   UNL     1      -7.424   9.623  70.533  1.00  0.00    -0.147 C  
HETATM    2  C   UNL     1      -8.177  10.321  69.414  1.00  0.00    -0.165 C  
ENDROOT
BRANCH   2   3
HETATM    3  O   UNL     1      -8.999   9.342  68.764  1.00  0.00    -0.130 OA 
BRANCH   3   4
HETATM    4  C   UNL     1     -10.335   9.606  68.761  1.00  0.00    -0.213 C  
HETATM    5  O   UNL     1     -10.961  10.013  67.793  1.00  0.00    -0.283 OA 
BRANCH   4   6
HETATM    6  C   UNL     1     -10.898   9.229  70.031  1.00  0.00    -0.238 A  
HETATM    7  C   UNL     1     -11.669   9.986  70.895  1.00  0.00    -0.374 A  
HETATM    8  N   UNL     1     -11.972   9.300  72.036  1.00  0.00    -0.352 NA 
HETATM    9  C   UNL     1     -11.397   8.130  71.894  1.00  0.00    -0.296 A  
HETATM   10  N   UNL     1     -10.745   8.022  70.695  1.00  0.00    -0.224 NA 
BRANCH  10  11
HETATM   11  C   UNL     1     -10.061   6.818  70.193  1.00  0.00    -0.178 C  
HETATM   12  C   UNL     1     -10.993   6.009  69.287  1.00  0.00    -0.436 C  
BRANCH  11  13
HETATM   13  C   UNL     1      -9.412   6.006  71.311  1.00  0.00    -0.180 A  
HETATM   14  C   UNL     1      -8.222   6.476  71.897  1.00  0.00    -0.108 A  
HETATM   15  C   UNL     1      -7.571   5.735  72.885  1.00  0.00    -0.096 A  
HETATM   16  C   UNL     1      -8.100   4.519  73.309  1.00  0.00    -0.095 A  
HETATM   17  C   UNL     1      -9.288   4.050  72.757  1.00  0.00    -0.150 A  
HETATM   18  C   UNL     1      -9.942   4.788  71.768  1.00  0.00    -0.255 A  
ENDBRANCH  11  13
ENDBRANCH  10  11
ENDBRANCH   4   6
ENDBRANCH   3   4
ENDBRANCH   2   3
TORSDOF 5
ENDMDL
MODEL      227
REMARK 921   NORMALIZED FREE ENERGY PREDICTED BY IDOCK:   -2.96 KCAL/MOL
REMARK 922        TOTAL FREE ENERGY PREDICTED BY IDOCK:   -4.37 KCAL/MOL
REMARK 923 INTER-LIGAND FREE ENERGY PREDICTED BY IDOCK:   -4.10 KCAL/MOL
REMARK 924 INTRA-LIGAND FREE ENERGY PREDICTED BY IDOCK:   -0.27 KCAL/MOL
REMARK 927      BINDING AFFINITY PREDICTED BY RF-SCORE:    0.00 PKD
ROOT
HETATM    1  C   UNL     1      -6.253  10.783  66.439  1.00  0.00    -0.119 C  
HETATM    2  C   UNL     1      -6.071  12.017  67.306  1.00  0.00    -0.147 C  
ENDROOT
BRANCH   2   3
HETATM    3  O   UNL     1      -7.327  12.292  67.943  1.00  0.00    -0.092 OA 
BRANCH   3   4
HETATM    4  C   UNL     1      -7.584  11.570  69.069  1.00  0.00    -0.058 C  
HETATM    5  O   UNL     1      -6.862  11.541  70.055  1.00  0.00    -0.035 OA 
BRANCH   4   6
HETATM    6  C   UNL     1      -8.876  10.946  68.950  1.00  0.00    -0.138 A  
HETATM    7  C   UNL     1      -9.215   9.618  69.129  1.00  0.00    -0.168 A  
HETATM    8  N   UNL     1     -10.538   9.394  68.874  1.00  0.00    -0.219 NA 
HETATM    9  C   UNL     1     -11.022  10.564  68.536  1.00  0.00    -0.252 A  
HETATM   10  N   UNL     1     -10.069  11.546  68.578  1.00  0.00    -0.203 NA 
BRANCH  10  11
HETATM   11  C   UNL     1     -10.298  12.979  68.329  1.00  0.00    -0.252 C  
HETATM   12  C   UNL     1     -11.137  13.593  69.453  1.00  0.00    -0.193 C  
BRANCH  11  13
HETATM   13  C   UNL     1     -10.835  13.249  66.926  1.00  0.00    -0.286 A  
HETATM   14  C   UNL     1     -12.213  13.109  66.681  1.00  0.00    -0.331 A  
HETATM   15  C   UNL     1     -12.735  13.295  65.399  1.00  0.00    -0.460 A  
HETATM   16  C   UNL     1     -11.891  13.631  64.345  1.00  0.00    -0.460 A  
HETATM   17  C   UNL     1     -10.528  13.796  64.572  1.00  0.00    -0.378 A  
HETATM   18  C   UNL     1     -10.003  13.610  65.853  1.00  0.00    -0.304 A  
ENDBRANCH  11  13
ENDBRANCH  10  11
ENDBRANCH   4   6
ENDBRANCH   3   4
ENDBRANCH   2   3
TORSDOF 5
ENDMDL
MODEL      228
REMARK 921   NORMALIZED FREE ENERGY PREDICTED BY IDOCK:   -2.94 KCAL/MOL
REMARK 922        TOTAL FREE ENERGY PREDICTED BY IDOCK:   -4.35 KCAL/MOL
REMARK 923 INTER-LIGAND FREE ENERGY PREDICTED BY IDOCK:   -3.53 KCAL/MOL
REMARK 924 INTRA-LIGAND FREE ENERGY PREDICTED BY IDOCK:   -0.81 KCAL/MOL
REMARK 927      BINDING AFFINITY PREDICTED BY RF-SCORE:    0.00 PKD
ROOT
HETATM    1  C   UNL     1      -8.399   6.275  67.518  1.00  0.00    -0.113 C  
HETATM    2  C   UNL     1      -8.107   7.430  68.460  1.00  0.00    -0.125 C  
ENDROOT
BRANCH   2   3
HETATM    3  O   UNL     1      -9.358   7.893  68.985  1.00  0.00    -0.151 OA 
BRANCH   3   4
HETATM    4  C   UNL     1      -9.271   8.783  70.012  1.00  0.00    -0.168 C  
HETATM    5  O   UNL     1      -8.317   9.521  70.212  1.00  0.00    -0.168 OA 
BRANCH   4   6
HETATM    6  C   UNL     1     -10.510   8.788  70.745  1.00  0.00    -0.219 A  
HETATM    7  C   UNL     1     -11.681   9.466  70.461  1.00  0.00    -0.198 A  
HETATM    8  N   UNL     1     -12.628   9.267  71.424  1.00  0.00    -0.325 NA 
HETATM    9  C   UNL     1     -12.059   8.478  72.303  1.00  0.00    -0.387 A  
HETATM   10  N   UNL     1     -10.783   8.141  71.940  1.00  0.00    -0.247 NA 
BRANCH  10  11
HETATM   11  C   UNL     1      -9.897   7.215  72.667  1.00  0.00    -0.166 C  
HETATM   12  C   UNL     1      -8.708   7.970  73.267  1.00  0.00    -0.308 C  
BRANCH  11  13
HETATM   13  C   UNL     1      -9.512   5.999  71.830  1.00  0.00    -0.165 A  
HETATM   14  C   UNL     1      -8.171   5.572  71.818  1.00  0.00    -0.119 A  
HETATM   15  C   UNL     1      -7.769   4.497  71.024  1.00  0.00    -0.072 A  
HETATM   16  C   UNL     1      -8.700   3.826  70.235  1.00  0.00    -0.126 A  
HETATM   17  C   UNL     1     -10.034   4.220  70.250  1.00  0.00    -0.203 A  
HETATM   18  C   UNL     1     -10.439   5.295  71.043  1.00  0.00    -0.274 A  
ENDBRANCH  11  13
ENDBRANCH  10  11
ENDBRANCH   4   6
ENDBRANCH   3   4
ENDBRANCH   2   3
TORSDOF 5
ENDMDL
MODEL      229
REMARK 921   NORMALIZED FREE ENERGY PREDICTED BY IDOCK:   -2.92 KCAL/MOL
REMARK 922        TOTAL FREE ENERGY PREDICTED BY IDOCK:   -4.33 KCAL/MOL
REMARK 923 INTER-LIGAND FREE ENERGY PREDICTED BY IDOCK:   -3.94 KCAL/MOL
REMARK 924 INTRA-LIGAND FREE ENERGY PREDICTED BY IDOCK:   -0.38 KCAL/MOL
REMARK 927      BINDING AFFINITY PREDICTED BY RF-SCORE:    0.00 PKD
ROOT
HETATM    1  C   UNL     1     -10.858   5.761  66.736  1.00  0.00    -0.327 C  
HETATM    2  C   UNL     1     -10.582   5.521  68.210  1.00  0.00    -0.136 C  
ENDROOT
BRANCH   2   3
HETATM    3  O   UNL     1     -10.837   6.748  68.907  1.00  0.00    -0.237 OA 
BRANCH   3   4
HETATM    4  C   UNL     1     -10.936   6.644  70.262  1.00  0.00    -0.303 C  
HETATM    5  O   UNL     1     -11.911   6.205  70.855  1.00  0.00    -0.232 OA 
BRANCH   4   6
HETATM    6  C   UNL     1      -9.685   7.027  70.862  1.00  0.00    -0.174 A  
HETATM    7  C   UNL     1      -8.681   6.218  71.361  1.00  0.00    -0.135 A  
HETATM    8  N   UNL     1      -7.665   6.949  71.905  1.00  0.00    -0.094 NA 
HETATM    9  C   UNL     1      -8.027   8.200  71.755  1.00  0.00    -0.121 A  
HETATM   10  N   UNL     1      -9.233   8.312  71.117  1.00  0.00    -0.152 NA 
BRANCH  10  11
HETATM   11  C   UNL     1      -9.887   9.573  70.728  1.00  0.00    -0.239 C  
HETATM   12  C   UNL     1     -11.296   9.652  71.320  1.00  0.00    -0.458 C  
BRANCH  11  13
HETATM   13  C   UNL     1      -9.823   9.824  69.224  1.00  0.00    -0.208 A  
HETATM   14  C   UNL     1     -10.948  10.360  68.570  1.00  0.00    -0.302 A  
HETATM   15  C   UNL     1     -10.947  10.554  67.188  1.00  0.00    -0.294 A  
HETATM   16  C   UNL     1      -9.822  10.224  66.438  1.00  0.00    -0.272 A  
HETATM   17  C   UNL     1      -8.693   9.713  67.070  1.00  0.00    -0.135 A  
HETATM   18  C   UNL     1      -8.689   9.518  68.452  1.00  0.00    -0.124 A  
ENDBRANCH  11  13
ENDBRANCH  10  11
ENDBRANCH   4   6
ENDBRANCH   3   4
ENDBRANCH   2   3
TORSDOF 5
ENDMDL
MODEL      230
REMARK 921   NORMALIZED FREE ENERGY PREDICTED BY IDOCK:   -2.92 KCAL/MOL
REMARK 922        TOTAL FREE ENERGY PREDICTED BY IDOCK:   -4.33 KCAL/MOL
REMARK 923 INTER-LIGAND FREE ENERGY PREDICTED BY IDOCK:   -3.74 KCAL/MOL
REMARK 924 INTRA-LIGAND FREE ENERGY PREDICTED BY IDOCK:   -0.58 KCAL/MOL
REMARK 927      BINDING AFFINITY PREDICTED BY RF-SCORE:    0.00 PKD
ROOT
HETATM    1  C   UNL     1      -5.848  13.809  70.756  1.00  0.00    -0.188 C  
HETATM    2  C   UNL     1      -5.921  12.714  69.707  1.00  0.00    -0.129 C  
ENDROOT
BRANCH   2   3
HETATM    3  O   UNL     1      -7.192  12.821  69.051  1.00  0.00    -0.076 OA 
BRANCH   3   4
HETATM    4  C   UNL     1      -7.143  12.970  67.698  1.00  0.00    -0.156 C  
HETATM    5  O   UNL     1      -6.219  12.595  66.990  1.00  0.00    -0.250 OA 
BRANCH   4   6
HETATM    6  C   UNL     1      -8.384  13.534  67.236  1.00  0.00    -0.179 A  
HETATM    7  C   UNL     1      -8.823  14.843  67.315  1.00  0.00    -0.201 A  
HETATM    8  N   UNL     1     -10.086  14.984  66.815  1.00  0.00    -0.250 NA 
HETATM    9  C   UNL     1     -10.437  13.781  66.430  1.00  0.00    -0.284 A  
HETATM   10  N   UNL     1      -9.444  12.864  66.645  1.00  0.00    -0.251 NA 
BRANCH  10  11
HETATM   11  C   UNL     1      -9.487  11.443  66.259  1.00  0.00    -0.209 C  
HETATM   12  C   UNL     1     -10.421  11.239  65.064  1.00  0.00    -0.359 C  
BRANCH  11  13
HETATM   13  C   UNL     1      -9.776  10.525  67.445  1.00  0.00    -0.190 A  
HETATM   14  C   UNL     1      -9.068   9.315  67.562  1.00  0.00    -0.133 A  
HETATM   15  C   UNL     1      -9.341   8.425  68.602  1.00  0.00    -0.143 A  
HETATM   16  C   UNL     1     -10.318   8.732  69.545  1.00  0.00    -0.213 A  
HETATM   17  C   UNL     1     -11.013   9.934  69.457  1.00  0.00    -0.274 A  
HETATM   18  C   UNL     1     -10.743  10.827  68.419  1.00  0.00    -0.255 A  
ENDBRANCH  11  13
ENDBRANCH  10  11
ENDBRANCH   4   6
ENDBRANCH   3   4
ENDBRANCH   2   3
TORSDOF 5
ENDMDL
MODEL      231
REMARK 921   NORMALIZED FREE ENERGY PREDICTED BY IDOCK:   -2.91 KCAL/MOL
REMARK 922        TOTAL FREE ENERGY PREDICTED BY IDOCK:   -4.31 KCAL/MOL
REMARK 923 INTER-LIGAND FREE ENERGY PREDICTED BY IDOCK:   -4.39 KCAL/MOL
REMARK 924 INTRA-LIGAND FREE ENERGY PREDICTED BY IDOCK:    0.09 KCAL/MOL
REMARK 927      BINDING AFFINITY PREDICTED BY RF-SCORE:    0.00 PKD
ROOT
HETATM    1  C   UNL     1      -9.995   4.147  65.372  1.00  0.00    -0.211 C  
HETATM    2  C   UNL     1     -10.651   5.120  66.335  1.00  0.00    -0.276 C  
ENDROOT
BRANCH   2   3
HETATM    3  O   UNL     1      -9.609   5.803  67.044  1.00  0.00    -0.125 OA 
BRANCH   3   4
HETATM    4  C   UNL     1      -9.933   7.037  67.521  1.00  0.00    -0.156 C  
HETATM    5  O   UNL     1     -10.960   7.641  67.242  1.00  0.00    -0.245 OA 
BRANCH   4   6
HETATM    6  C   UNL     1      -8.939   7.457  68.473  1.00  0.00    -0.128 A  
HETATM    7  C   UNL     1      -7.670   7.952  68.237  1.00  0.00    -0.121 A  
HETATM    8  N   UNL     1      -6.995   8.191  69.400  1.00  0.00    -0.050 NA 
HETATM    9  C   UNL     1      -7.827   7.847  70.353  1.00  0.00    -0.089 A  
HETATM   10  N   UNL     1      -9.025   7.409  69.856  1.00  0.00    -0.142 NA 
BRANCH  10  11
HETATM   11  C   UNL     1     -10.199   7.020  70.655  1.00  0.00    -0.191 C  
HETATM   12  C   UNL     1     -10.838   5.750  70.087  1.00  0.00    -0.383 C  
BRANCH  11  13
HETATM   13  C   UNL     1     -11.174   8.175  70.863  1.00  0.00    -0.286 A  
HETATM   14  C   UNL     1     -12.468   7.903  71.343  1.00  0.00    -0.330 A  
HETATM   15  C   UNL     1     -13.405   8.926  71.495  1.00  0.00    -0.374 A  
HETATM   16  C   UNL     1     -13.063  10.238  71.178  1.00  0.00    -0.481 A  
HETATM   17  C   UNL     1     -11.782  10.530  70.722  1.00  0.00    -0.454 A  
HETATM   18  C   UNL     1     -10.842   9.509  70.569  1.00  0.00    -0.352 A  
ENDBRANCH  11  13
ENDBRANCH  10  11
ENDBRANCH   4   6
ENDBRANCH   3   4
ENDBRANCH   2   3
TORSDOF 5
ENDMDL
MODEL      232
REMARK 921   NORMALIZED FREE ENERGY PREDICTED BY IDOCK:   -2.90 KCAL/MOL
REMARK 922        TOTAL FREE ENERGY PREDICTED BY IDOCK:   -4.29 KCAL/MOL
REMARK 923 INTER-LIGAND FREE ENERGY PREDICTED BY IDOCK:   -3.89 KCAL/MOL
REMARK 924 INTRA-LIGAND FREE ENERGY PREDICTED BY IDOCK:   -0.40 KCAL/MOL
REMARK 927      BINDING AFFINITY PREDICTED BY RF-SCORE:    0.00 PKD
ROOT
HETATM    1  C   UNL     1      -6.318   9.765  70.549  1.00  0.00    -0.100 C  
HETATM    2  C   UNL     1      -6.388  10.317  69.136  1.00  0.00    -0.045 C  
ENDROOT
BRANCH   2   3
HETATM    3  O   UNL     1      -7.468   9.658  68.462  1.00  0.00    -0.078 OA 
BRANCH   3   4
HETATM    4  C   UNL     1      -7.870  10.232  67.295  1.00  0.00    -0.103 C  
HETATM    5  O   UNL     1      -7.153  10.394  66.317  1.00  0.00    -0.108 OA 
BRANCH   4   6
HETATM    6  C   UNL     1      -9.280  10.514  67.362  1.00  0.00    -0.142 A  
HETATM    7  C   UNL     1      -9.949  11.671  67.010  1.00  0.00    -0.204 A  
HETATM    8  N   UNL     1     -11.287  11.582  67.269  1.00  0.00    -0.400 NA 
HETATM    9  C   UNL     1     -11.455  10.387  67.781  1.00  0.00     0.028 A  
HETATM   10  N   UNL     1     -10.281   9.687  67.849  1.00  0.00    -0.185 NA 
BRANCH  10  11
HETATM   11  C   UNL     1     -10.134   8.294  68.303  1.00  0.00    -0.198 C  
HETATM   12  C   UNL     1     -10.776   7.332  67.300  1.00  0.00    -0.391 C  
BRANCH  11  13
HETATM   13  C   UNL     1     -10.595   8.098  69.745  1.00  0.00    -0.231 A  
HETATM   14  C   UNL     1     -11.461   7.032  70.049  1.00  0.00    -0.262 A  
HETATM   15  C   UNL     1     -11.946   6.851  71.345  1.00  0.00    -0.393 A  
HETATM   16  C   UNL     1     -11.569   7.727  72.359  1.00  0.00    -0.410 A  
HETATM   17  C   UNL     1     -10.696   8.774  72.082  1.00  0.00    -0.383 A  
HETATM   18  C   UNL     1     -10.208   8.958  70.787  1.00  0.00    -0.282 A  
ENDBRANCH  11  13
ENDBRANCH  10  11
ENDBRANCH   4   6
ENDBRANCH   3   4
ENDBRANCH   2   3
TORSDOF 5
ENDMDL
MODEL      233
REMARK 921   NORMALIZED FREE ENERGY PREDICTED BY IDOCK:   -2.86 KCAL/MOL
REMARK 922        TOTAL FREE ENERGY PREDICTED BY IDOCK:   -4.25 KCAL/MOL
REMARK 923 INTER-LIGAND FREE ENERGY PREDICTED BY IDOCK:   -3.85 KCAL/MOL
REMARK 924 INTRA-LIGAND FREE ENERGY PREDICTED BY IDOCK:   -0.39 KCAL/MOL
REMARK 927      BINDING AFFINITY PREDICTED BY RF-SCORE:    0.00 PKD
ROOT
HETATM    1  C   UNL     1      -6.668   8.321  69.722  1.00  0.00    -0.040 C  
HETATM    2  C   UNL     1      -7.315   9.692  69.811  1.00  0.00    -0.104 C  
ENDROOT
BRANCH   2   3
HETATM    3  O   UNL     1      -8.564   9.632  69.109  1.00  0.00    -0.130 OA 
BRANCH   3   4
HETATM    4  C   UNL     1      -8.490   9.827  67.762  1.00  0.00    -0.121 C  
HETATM    5  O   UNL     1      -8.760   8.980  66.923  1.00  0.00    -0.121 OA 
BRANCH   4   6
HETATM    6  C   UNL     1      -8.156  11.202  67.497  1.00  0.00    -0.119 A  
HETATM    7  C   UNL     1      -6.907  11.793  67.441  1.00  0.00    -0.122 A  
HETATM    8  N   UNL     1      -6.993  13.137  67.218  1.00  0.00    -0.094 NA 
HETATM    9  C   UNL     1      -8.277  13.388  67.140  1.00  0.00    -0.110 A  
HETATM   10  N   UNL     1      -9.032  12.255  67.285  1.00  0.00    -0.180 NA 
BRANCH  10  11
HETATM   11  C   UNL     1     -10.498  12.177  67.176  1.00  0.00    -0.219 C  
HETATM   12  C   UNL     1     -10.987  12.948  65.947  1.00  0.00    -0.300 C  
BRANCH  11  13
HETATM   13  C   UNL     1     -11.201  12.558  68.476  1.00  0.00    -0.322 A  
HETATM   14  C   UNL     1     -11.713  11.540  69.302  1.00  0.00    -0.397 A  
HETATM   15  C   UNL     1     -12.408  11.849  70.472  1.00  0.00    -0.372 A  
HETATM   16  C   UNL     1     -12.598  13.179  70.840  1.00  0.00    -0.377 A  
HETATM   17  C   UNL     1     -12.080  14.198  70.048  1.00  0.00    -0.409 A  
HETATM   18  C   UNL     1     -11.384  13.892  68.877  1.00  0.00    -0.319 A  
ENDBRANCH  11  13
ENDBRANCH  10  11
ENDBRANCH   4   6
ENDBRANCH   3   4
ENDBRANCH   2   3
TORSDOF 5
ENDMDL
MODEL      234
REMARK 921   NORMALIZED FREE ENERGY PREDICTED BY IDOCK:   -2.86 KCAL/MOL
REMARK 922        TOTAL FREE ENERGY PREDICTED BY IDOCK:   -4.24 KCAL/MOL
REMARK 923 INTER-LIGAND FREE ENERGY PREDICTED BY IDOCK:   -3.81 KCAL/MOL
REMARK 924 INTRA-LIGAND FREE ENERGY PREDICTED BY IDOCK:   -0.44 KCAL/MOL
REMARK 927      BINDING AFFINITY PREDICTED BY RF-SCORE:    0.00 PKD
ROOT
HETATM    1  C   UNL     1     -10.162  10.114  65.994  1.00  0.00    -0.288 C  
HETATM    2  C   UNL     1     -10.179   9.225  67.225  1.00  0.00    -0.252 C  
ENDROOT
BRANCH   2   3
HETATM    3  O   UNL     1     -11.101   9.795  68.163  1.00  0.00    -0.215 OA 
BRANCH   3   4
HETATM    4  C   UNL     1     -10.574  10.133  69.373  1.00  0.00    -0.237 C  
HETATM    5  O   UNL     1      -9.637  10.902  69.532  1.00  0.00    -0.052 OA 
BRANCH   4   6
HETATM    6  C   UNL     1     -11.359   9.533  70.420  1.00  0.00    -0.264 A  
HETATM    7  C   UNL     1     -12.292  10.126  71.251  1.00  0.00    -0.400 A  
HETATM    8  N   UNL     1     -12.792   9.241  72.163  1.00  0.00    -0.399 NA 
HETATM    9  C   UNL     1     -12.180   8.110  71.911  1.00  0.00    -0.331 A  
HETATM   10  N   UNL     1     -11.312   8.218  70.858  1.00  0.00    -0.267 NA 
BRANCH  10  11
HETATM   11  C   UNL     1     -10.526   7.119  70.274  1.00  0.00    -0.217 C  
HETATM   12  C   UNL     1     -11.376   5.852  70.159  1.00  0.00    -0.231 C  
BRANCH  11  13
HETATM   13  C   UNL     1      -9.189   6.916  70.983  1.00  0.00    -0.156 A  
HETATM   14  C   UNL     1      -8.155   6.235  70.316  1.00  0.00    -0.116 A  
HETATM   15  C   UNL     1      -6.938   5.983  70.950  1.00  0.00    -0.067 A  
HETATM   16  C   UNL     1      -6.731   6.414  72.258  1.00  0.00    -0.068 A  
HETATM   17  C   UNL     1      -7.734   7.109  72.926  1.00  0.00    -0.095 A  
HETATM   18  C   UNL     1      -8.953   7.363  72.295  1.00  0.00    -0.154 A  
ENDBRANCH  11  13
ENDBRANCH  10  11
ENDBRANCH   4   6
ENDBRANCH   3   4
ENDBRANCH   2   3
TORSDOF 5
ENDMDL
MODEL      235
REMARK 921   NORMALIZED FREE ENERGY PREDICTED BY IDOCK:   -2.86 KCAL/MOL
REMARK 922        TOTAL FREE ENERGY PREDICTED BY IDOCK:   -4.24 KCAL/MOL
REMARK 923 INTER-LIGAND FREE ENERGY PREDICTED BY IDOCK:   -6.19 KCAL/MOL
REMARK 924 INTRA-LIGAND FREE ENERGY PREDICTED BY IDOCK:    1.95 KCAL/MOL
REMARK 927      BINDING AFFINITY PREDICTED BY RF-SCORE:    0.00 PKD
ROOT
HETATM    1  C   UNL     1     -13.160  16.108  73.388  1.00  0.00    -0.595 C  
HETATM    2  C   UNL     1     -12.332  14.853  73.172  1.00  0.00    -0.365 C  
ENDROOT
BRANCH   2   3
HETATM    3  O   UNL     1     -11.975  14.798  71.784  1.00  0.00    -0.351 OA 
BRANCH   3   4
HETATM    4  C   UNL     1     -12.875  14.180  70.971  1.00  0.00    -0.351 C  
HETATM    5  O   UNL     1     -14.085  14.356  71.012  1.00  0.00    -0.196 OA 
BRANCH   4   6
HETATM    6  C   UNL     1     -12.172  13.383  70.000  1.00  0.00    -0.298 A  
HETATM    7  C   UNL     1     -11.417  13.801  68.920  1.00  0.00    -0.304 A  
HETATM    8  N   UNL     1     -10.949  12.747  68.190  1.00  0.00    -0.235 NA 
HETATM    9  C   UNL     1     -11.405  11.680  68.801  1.00  0.00    -0.264 A  
HETATM   10  N   UNL     1     -12.140  12.000  69.911  1.00  0.00    -0.290 NA 
BRANCH  10  11
HETATM   11  C   UNL     1     -12.730  11.039  70.859  1.00  0.00    -0.358 C  
HETATM   12  C   UNL     1     -13.305  11.769  72.075  1.00  0.00    -0.417 C  
BRANCH  11  13
HETATM   13  C   UNL     1     -11.776   9.898  71.204  1.00  0.00    -0.478 A  
HETATM   14  C   UNL     1     -12.253   8.811  71.959  1.00  0.00    -0.447 A  
HETATM   15  C   UNL     1     -11.398   7.775  72.340  1.00  0.00    -0.400 A  
HETATM   16  C   UNL     1     -10.057   7.804  71.967  1.00  0.00    -0.244 A  
HETATM   17  C   UNL     1      -9.573   8.860  71.201  1.00  0.00    -0.342 A  
HETATM   18  C   UNL     1     -10.425   9.898  70.818  1.00  0.00    -0.253 A  
ENDBRANCH  11  13
ENDBRANCH  10  11
ENDBRANCH   4   6
ENDBRANCH   3   4
ENDBRANCH   2   3
TORSDOF 5
ENDMDL
MODEL      236
REMARK 921   NORMALIZED FREE ENERGY PREDICTED BY IDOCK:   -2.85 KCAL/MOL
REMARK 922        TOTAL FREE ENERGY PREDICTED BY IDOCK:   -4.23 KCAL/MOL
REMARK 923 INTER-LIGAND FREE ENERGY PREDICTED BY IDOCK:   -4.02 KCAL/MOL
REMARK 924 INTRA-LIGAND FREE ENERGY PREDICTED BY IDOCK:   -0.20 KCAL/MOL
REMARK 927      BINDING AFFINITY PREDICTED BY RF-SCORE:    0.00 PKD
ROOT
HETATM    1  C   UNL     1     -10.908   5.956  67.026  1.00  0.00    -0.379 C  
HETATM    2  C   UNL     1     -10.304   6.010  68.418  1.00  0.00    -0.207 C  
ENDROOT
BRANCH   2   3
HETATM    3  O   UNL     1     -10.786   7.199  69.057  1.00  0.00    -0.213 OA 
BRANCH   3   4
HETATM    4  C   UNL     1     -11.148   7.059  70.363  1.00  0.00    -0.287 C  
HETATM    5  O   UNL     1     -12.271   6.764  70.744  1.00  0.00    -0.390 OA 
BRANCH   4   6
HETATM    6  C   UNL     1      -9.985   7.206  71.198  1.00  0.00    -0.183 A  
HETATM    7  C   UNL     1      -8.945   8.111  71.084  1.00  0.00    -0.146 A  
HETATM    8  N   UNL     1      -7.988   7.906  72.035  1.00  0.00    -0.104 NA 
HETATM    9  C   UNL     1      -8.417   6.885  72.736  1.00  0.00    -0.116 A  
HETATM   10  N   UNL     1      -9.627   6.427  72.287  1.00  0.00    -0.152 NA 
BRANCH  10  11
HETATM   11  C   UNL     1     -10.417   5.344  72.897  1.00  0.00    -0.211 C  
HETATM   12  C   UNL     1     -10.319   5.401  74.423  1.00  0.00    -0.293 C  
BRANCH  11  13
HETATM   13  C   UNL     1     -10.094   3.977  72.298  1.00  0.00    -0.240 A  
HETATM   14  C   UNL     1      -9.585   3.906  70.988  1.00  0.00    -0.251 A  
HETATM   15  C   UNL     1      -9.327   2.673  70.386  1.00  0.00    -0.212 A  
HETATM   16  C   UNL     1      -9.567   1.493  71.084  1.00  0.00    -0.199 A  
HETATM   17  C   UNL     1     -10.049   1.544  72.388  1.00  0.00    -0.203 A  
HETATM   18  C   UNL     1     -10.308   2.775  72.993  1.00  0.00    -0.239 A  
ENDBRANCH  11  13
ENDBRANCH  10  11
ENDBRANCH   4   6
ENDBRANCH   3   4
ENDBRANCH   2   3
TORSDOF 5
ENDMDL
MODEL      237
REMARK 921   NORMALIZED FREE ENERGY PREDICTED BY IDOCK:   -2.84 KCAL/MOL
REMARK 922        TOTAL FREE ENERGY PREDICTED BY IDOCK:   -4.22 KCAL/MOL
REMARK 923 INTER-LIGAND FREE ENERGY PREDICTED BY IDOCK:   -3.71 KCAL/MOL
REMARK 924 INTRA-LIGAND FREE ENERGY PREDICTED BY IDOCK:   -0.51 KCAL/MOL
REMARK 927      BINDING AFFINITY PREDICTED BY RF-SCORE:    0.00 PKD
ROOT
HETATM    1  C   UNL     1      -9.869   7.988  70.506  1.00  0.00    -0.184 C  
HETATM    2  C   UNL     1      -9.507   9.406  70.098  1.00  0.00    -0.240 C  
ENDROOT
BRANCH   2   3
HETATM    3  O   UNL     1     -10.401   9.799  69.048  1.00  0.00    -0.190 OA 
BRANCH   3   4
HETATM    4  C   UNL     1     -10.057   9.382  67.797  1.00  0.00    -0.198 C  
HETATM    5  O   UNL     1     -10.669   8.541  67.153  1.00  0.00    -0.280 OA 
BRANCH   4   6
HETATM    6  C   UNL     1      -8.941  10.159  67.326  1.00  0.00    -0.135 A  
HETATM    7  C   UNL     1      -7.606   9.805  67.262  1.00  0.00    -0.088 A  
HETATM    8  N   UNL     1      -6.831  10.833  66.806  1.00  0.00    -0.106 NA 
HETATM    9  C   UNL     1      -7.667  11.819  66.590  1.00  0.00    -0.023 A  
HETATM   10  N   UNL     1      -8.960  11.468  66.871  1.00  0.00    -0.173 NA 
BRANCH  10  11
HETATM   11  C   UNL     1     -10.146  12.316  66.667  1.00  0.00    -0.215 C  
HETATM   12  C   UNL     1     -10.700  12.134  65.252  1.00  0.00    -0.328 C  
BRANCH  11  13
HETATM   13  C   UNL     1      -9.898  13.770  67.061  1.00  0.00    -0.251 A  
HETATM   14  C   UNL     1      -9.847  14.754  66.056  1.00  0.00    -0.350 A  
HETATM   15  C   UNL     1      -9.570  16.085  66.372  1.00  0.00    -0.309 A  
HETATM   16  C   UNL     1      -9.348  16.457  67.695  1.00  0.00    -0.212 A  
HETATM   17  C   UNL     1      -9.417  15.502  68.704  1.00  0.00    -0.204 A  
HETATM   18  C   UNL     1      -9.694  14.170  68.393  1.00  0.00    -0.226 A  
ENDBRANCH  11  13
ENDBRANCH  10  11
ENDBRANCH   4   6
ENDBRANCH   3   4
ENDBRANCH   2   3
TORSDOF 5
ENDMDL
MODEL      238
REMARK 921   NORMALIZED FREE ENERGY PREDICTED BY IDOCK:   -2.84 KCAL/MOL
REMARK 922        TOTAL FREE ENERGY PREDICTED BY IDOCK:   -4.22 KCAL/MOL
REMARK 923 INTER-LIGAND FREE ENERGY PREDICTED BY IDOCK:   -3.64 KCAL/MOL
REMARK 924 INTRA-LIGAND FREE ENERGY PREDICTED BY IDOCK:   -0.58 KCAL/MOL
REMARK 927      BINDING AFFINITY PREDICTED BY RF-SCORE:    0.00 PKD
ROOT
HETATM    1  C   UNL     1      -9.586  10.315  68.490  1.00  0.00    -0.165 C  
HETATM    2  C   UNL     1      -8.842   9.865  69.735  1.00  0.00    -0.211 C  
ENDROOT
BRANCH   2   3
HETATM    3  O   UNL     1      -9.689  10.115  70.865  1.00  0.00     0.284 OA 
BRANCH   3   4
HETATM    4  C   UNL     1      -9.874   9.060  71.705  1.00  0.00    -0.260 C  
HETATM    5  O   UNL     1      -9.142   8.785  72.646  1.00  0.00    -0.354 OA 
BRANCH   4   6
HETATM    6  C   UNL     1     -11.109   8.398  71.376  1.00  0.00    -0.255 A  
HETATM    7  C   UNL     1     -12.381   8.652  71.855  1.00  0.00    -0.354 A  
HETATM    8  N   UNL     1     -13.297   7.775  71.349  1.00  0.00    -0.299 NA 
HETATM    9  C   UNL     1     -12.610   6.979  70.566  1.00  0.00     0.061 A  
HETATM   10  N   UNL     1     -11.283   7.316  70.528  1.00  0.00    -0.274 NA 
BRANCH  10  11
HETATM   11  C   UNL     1     -10.256   6.673  69.692  1.00  0.00    -0.186 C  
HETATM   12  C   UNL     1     -10.675   6.688  68.220  1.00  0.00    -0.317 C  
BRANCH  11  13
HETATM   13  C   UNL     1      -9.854   5.297  70.216  1.00  0.00    -0.284 A  
HETATM   14  C   UNL     1     -10.019   5.009  71.583  1.00  0.00    -0.249 A  
HETATM   15  C   UNL     1      -9.614   3.781  72.110  1.00  0.00    -0.212 A  
HETATM   16  C   UNL     1      -9.045   2.819  71.280  1.00  0.00    -0.179 A  
HETATM   17  C   UNL     1      -8.894   3.078  69.922  1.00  0.00    -0.152 A  
HETATM   18  C   UNL     1      -9.297   4.304  69.391  1.00  0.00    -0.236 A  
ENDBRANCH  11  13
ENDBRANCH  10  11
ENDBRANCH   4   6
ENDBRANCH   3   4
ENDBRANCH   2   3
TORSDOF 5
ENDMDL
MODEL      239
REMARK 921   NORMALIZED FREE ENERGY PREDICTED BY IDOCK:   -2.83 KCAL/MOL
REMARK 922        TOTAL FREE ENERGY PREDICTED BY IDOCK:   -4.21 KCAL/MOL
REMARK 923 INTER-LIGAND FREE ENERGY PREDICTED BY IDOCK:   -3.70 KCAL/MOL
REMARK 924 INTRA-LIGAND FREE ENERGY PREDICTED BY IDOCK:   -0.51 KCAL/MOL
REMARK 927      BINDING AFFINITY PREDICTED BY RF-SCORE:    0.00 PKD
ROOT
HETATM    1  C   UNL     1     -10.046   7.382  66.833  1.00  0.00    -0.327 C  
HETATM    2  C   UNL     1     -10.331   7.573  68.312  1.00  0.00    -0.195 C  
ENDROOT
BRANCH   2   3
HETATM    3  O   UNL     1     -11.235   6.537  68.719  1.00  0.00    -0.293 OA 
BRANCH   3   4
HETATM    4  C   UNL     1     -10.918   5.905  69.883  1.00  0.00    -0.374 C  
HETATM    5  O   UNL     1     -10.356   4.820  69.953  1.00  0.00    -0.238 OA 
BRANCH   4   6
HETATM    6  C   UNL     1     -11.247   6.758  70.995  1.00  0.00    -0.290 A  
HETATM    7  C   UNL     1     -12.387   7.515  71.197  1.00  0.00    -0.291 A  
HETATM    8  N   UNL     1     -12.313   8.242  72.350  1.00  0.00    -0.350 NA 
HETATM    9  C   UNL     1     -11.143   7.950  72.863  1.00  0.00    -0.379 A  
HETATM   10  N   UNL     1     -10.458   7.046  72.097  1.00  0.00    -0.206 NA 
BRANCH  10  11
HETATM   11  C   UNL     1      -9.150   6.454  72.427  1.00  0.00    -0.137 C  
HETATM   12  C   UNL     1      -9.170   5.860  73.838  1.00  0.00    -0.127 C  
BRANCH  11  13
HETATM   13  C   UNL     1      -7.992   7.415  72.167  1.00  0.00    -0.101 A  
HETATM   14  C   UNL     1      -7.035   7.624  73.177  1.00  0.00    -0.083 A  
HETATM   15  C   UNL     1      -5.993   8.534  72.997  1.00  0.00    -0.085 A  
HETATM   16  C   UNL     1      -5.884   9.244  71.805  1.00  0.00    -0.060 A  
HETATM   17  C   UNL     1      -6.808   9.034  70.786  1.00  0.00    -0.075 A  
HETATM   18  C   UNL     1      -7.853   8.124  70.962  1.00  0.00    -0.090 A  
ENDBRANCH  11  13
ENDBRANCH  10  11
ENDBRANCH   4   6
ENDBRANCH   3   4
ENDBRANCH   2   3
TORSDOF 5
ENDMDL
MODEL      240
REMARK 921   NORMALIZED FREE ENERGY PREDICTED BY IDOCK:   -2.83 KCAL/MOL
REMARK 922        TOTAL FREE ENERGY PREDICTED BY IDOCK:   -4.21 KCAL/MOL
REMARK 923 INTER-LIGAND FREE ENERGY PREDICTED BY IDOCK:   -4.11 KCAL/MOL
REMARK 924 INTRA-LIGAND FREE ENERGY PREDICTED BY IDOCK:   -0.10 KCAL/MOL
REMARK 927      BINDING AFFINITY PREDICTED BY RF-SCORE:    0.00 PKD
ROOT
HETATM    1  C   UNL     1      -9.021  16.347  68.056  1.00  0.00    -0.185 C  
HETATM    2  C   UNL     1      -8.027  15.244  68.371  1.00  0.00    -0.131 C  
ENDROOT
BRANCH   2   3
HETATM    3  O   UNL     1      -8.742  14.183  69.020  1.00  0.00    -0.040 OA 
BRANCH   3   4
HETATM    4  C   UNL     1      -8.455  12.927  68.579  1.00  0.00    -0.045 C  
HETATM    5  O   UNL     1      -7.514  12.251  68.970  1.00  0.00    -0.058 OA 
BRANCH   4   6
HETATM    6  C   UNL     1      -9.488  12.491  67.676  1.00  0.00    -0.188 A  
HETATM    7  C   UNL     1     -10.173  13.227  66.726  1.00  0.00    -0.254 A  
HETATM    8  N   UNL     1     -11.125  12.478  66.096  1.00  0.00    -0.286 NA 
HETATM    9  C   UNL     1     -11.042  11.290  66.644  1.00  0.00    -0.235 A  
HETATM   10  N   UNL     1     -10.060  11.231  67.596  1.00  0.00    -0.177 NA 
BRANCH  10  11
HETATM   11  C   UNL     1      -9.659  10.029  68.346  1.00  0.00    -0.145 C  
HETATM   12  C   UNL     1      -9.658   8.801  67.432  1.00  0.00    -0.206 C  
BRANCH  11  13
HETATM   13  C   UNL     1     -10.457   9.852  69.635  1.00  0.00    -0.273 A  
HETATM   14  C   UNL     1     -10.043   8.886  70.571  1.00  0.00    -0.248 A  
HETATM   15  C   UNL     1     -10.776   8.657  71.736  1.00  0.00    -0.392 A  
HETATM   16  C   UNL     1     -11.930   9.394  71.990  1.00  0.00    -0.345 A  
HETATM   17  C   UNL     1     -12.343  10.369  71.087  1.00  0.00    -0.505 A  
HETATM   18  C   UNL     1     -11.611  10.601  69.920  1.00  0.00    -0.396 A  
ENDBRANCH  11  13
ENDBRANCH  10  11
ENDBRANCH   4   6
ENDBRANCH   3   4
ENDBRANCH   2   3
TORSDOF 5
ENDMDL
MODEL      241
REMARK 921   NORMALIZED FREE ENERGY PREDICTED BY IDOCK:   -2.83 KCAL/MOL
REMARK 922        TOTAL FREE ENERGY PREDICTED BY IDOCK:   -4.20 KCAL/MOL
REMARK 923 INTER-LIGAND FREE ENERGY PREDICTED BY IDOCK:   -4.49 KCAL/MOL
REMARK 924 INTRA-LIGAND FREE ENERGY PREDICTED BY IDOCK:    0.29 KCAL/MOL
REMARK 927      BINDING AFFINITY PREDICTED BY RF-SCORE:    0.00 PKD
ROOT
HETATM    1  C   UNL     1     -14.362   7.440  71.767  1.00  0.00    -0.586 C  
HETATM    2  C   UNL     1     -12.921   7.040  71.502  1.00  0.00    -0.359 C  
ENDROOT
BRANCH   2   3
HETATM    3  O   UNL     1     -12.093   7.750  72.434  1.00  0.00    -0.304 OA 
BRANCH   3   4
HETATM    4  C   UNL     1     -11.165   8.580  71.881  1.00  0.00    -0.327 C  
HETATM    5  O   UNL     1     -11.427   9.618  71.290  1.00  0.00    -0.339 OA 
BRANCH   4   6
HETATM    6  C   UNL     1      -9.846   8.099  72.198  1.00  0.00    -0.246 A  
HETATM    7  C   UNL     1      -8.662   8.809  72.277  1.00  0.00    -0.011 A  
HETATM    8  N   UNL     1      -7.601   7.995  72.549  1.00  0.00    -0.106 NA 
HETATM    9  C   UNL     1      -8.109   6.790  72.636  1.00  0.00    -0.103 A  
HETATM   10  N   UNL     1      -9.465   6.790  72.448  1.00  0.00    -0.145 NA 
BRANCH  10  11
HETATM   11  C   UNL     1     -10.349   5.617  72.553  1.00  0.00    -0.201 C  
HETATM   12  C   UNL     1     -10.456   5.155  74.008  1.00  0.00    -0.323 C  
BRANCH  11  13
HETATM   13  C   UNL     1      -9.972   4.512  71.570  1.00  0.00    -0.259 A  
HETATM   14  C   UNL     1      -9.736   3.213  72.056  1.00  0.00    -0.233 A  
HETATM   15  C   UNL     1      -9.337   2.189  71.195  1.00  0.00    -0.202 A  
HETATM   16  C   UNL     1      -9.176   2.442  69.836  1.00  0.00    -0.192 A  
HETATM   17  C   UNL     1      -9.427   3.715  69.334  1.00  0.00    -0.249 A  
HETATM   18  C   UNL     1      -9.825   4.743  70.191  1.00  0.00    -0.308 A  
ENDBRANCH  11  13
ENDBRANCH  10  11
ENDBRANCH   4   6
ENDBRANCH   3   4
ENDBRANCH   2   3
TORSDOF 5
ENDMDL
MODEL      242
REMARK 921   NORMALIZED FREE ENERGY PREDICTED BY IDOCK:   -2.82 KCAL/MOL
REMARK 922        TOTAL FREE ENERGY PREDICTED BY IDOCK:   -4.20 KCAL/MOL
REMARK 923 INTER-LIGAND FREE ENERGY PREDICTED BY IDOCK:   -3.77 KCAL/MOL
REMARK 924 INTRA-LIGAND FREE ENERGY PREDICTED BY IDOCK:   -0.43 KCAL/MOL
REMARK 927      BINDING AFFINITY PREDICTED BY RF-SCORE:    0.00 PKD
ROOT
HETATM    1  C   UNL     1      -6.467   4.915  66.375  1.00  0.00    -0.041 C  
HETATM    2  C   UNL     1      -7.814   5.613  66.403  1.00  0.00    -0.101 C  
ENDROOT
BRANCH   2   3
HETATM    3  O   UNL     1      -7.794   6.558  67.482  1.00  0.00    -0.109 OA 
BRANCH   3   4
HETATM    4  C   UNL     1      -7.729   7.868  67.114  1.00  0.00    -0.101 C  
HETATM    5  O   UNL     1      -7.792   8.269  65.960  1.00  0.00    -0.090 OA 
BRANCH   4   6
HETATM    6  C   UNL     1      -7.684   8.693  68.292  1.00  0.00    -0.101 A  
HETATM    7  C   UNL     1      -6.593   9.025  69.075  1.00  0.00    -0.048 A  
HETATM    8  N   UNL     1      -6.954   9.787  70.149  1.00  0.00    -0.101 NA 
HETATM    9  C   UNL     1      -8.253   9.929  70.045  1.00  0.00    -0.168 A  
HETATM   10  N   UNL     1      -8.751   9.302  68.934  1.00  0.00    -0.130 NA 
BRANCH  10  11
HETATM   11  C   UNL     1     -10.153   9.329  68.486  1.00  0.00    -0.190 C  
HETATM   12  C   UNL     1     -10.323  10.295  67.311  1.00  0.00    -0.284 C  
BRANCH  11  13
HETATM   13  C   UNL     1     -11.129   9.563  69.637  1.00  0.00    -0.196 A  
HETATM   14  C   UNL     1     -11.795  10.799  69.730  1.00  0.00    -0.409 A  
HETATM   15  C   UNL     1     -12.654  11.069  70.797  1.00  0.00    -0.463 A  
HETATM   16  C   UNL     1     -12.868  10.109  71.782  1.00  0.00    -0.554 A  
HETATM   17  C   UNL     1     -12.235   8.874  71.694  1.00  0.00    -0.409 A  
HETATM   18  C   UNL     1     -11.375   8.599  70.629  1.00  0.00    -0.277 A  
ENDBRANCH  11  13
ENDBRANCH  10  11
ENDBRANCH   4   6
ENDBRANCH   3   4
ENDBRANCH   2   3
TORSDOF 5
ENDMDL
MODEL      243
REMARK 921   NORMALIZED FREE ENERGY PREDICTED BY IDOCK:   -2.82 KCAL/MOL
REMARK 922        TOTAL FREE ENERGY PREDICTED BY IDOCK:   -4.19 KCAL/MOL
REMARK 923 INTER-LIGAND FREE ENERGY PREDICTED BY IDOCK:   -4.44 KCAL/MOL
REMARK 924 INTRA-LIGAND FREE ENERGY PREDICTED BY IDOCK:    0.24 KCAL/MOL
REMARK 927      BINDING AFFINITY PREDICTED BY RF-SCORE:    0.00 PKD
ROOT
HETATM    1  C   UNL     1     -10.221  12.411  63.489  1.00  0.00    -0.339 C  
HETATM    2  C   UNL     1     -10.135  10.896  63.532  1.00  0.00    -0.347 C  
ENDROOT
BRANCH   2   3
HETATM    3  O   UNL     1     -10.578  10.469  64.827  1.00  0.00    -0.253 OA 
BRANCH   3   4
HETATM    4  C   UNL     1     -10.905  11.468  65.694  1.00  0.00    -0.252 C  
HETATM    5  O   UNL     1     -11.934  12.126  65.639  1.00  0.00    -0.503 OA 
BRANCH   4   6
HETATM    6  C   UNL     1      -9.908  11.544  66.730  1.00  0.00    -0.203 A  
HETATM    7  C   UNL     1      -8.907  12.482  66.900  1.00  0.00    -0.203 A  
HETATM    8  N   UNL     1      -8.117  12.191  67.974  1.00  0.00    -0.145 NA 
HETATM    9  C   UNL     1      -8.612  11.083  68.470  1.00  0.00    -0.158 A  
HETATM   10  N   UNL     1      -9.706  10.651  67.770  1.00  0.00    -0.160 NA 
BRANCH  10  11
HETATM   11  C   UNL     1     -10.538   9.483  68.108  1.00  0.00    -0.217 C  
HETATM   12  C   UNL     1     -10.641   9.318  69.626  1.00  0.00    -0.241 C  
BRANCH  11  13
HETATM   13  C   UNL     1     -10.102   8.222  67.367  1.00  0.00    -0.298 A  
HETATM   14  C   UNL     1     -10.993   7.138  67.276  1.00  0.00    -0.333 A  
HETATM   15  C   UNL     1     -10.612   5.948  66.653  1.00  0.00    -0.330 A  
HETATM   16  C   UNL     1      -9.338   5.824  66.106  1.00  0.00    -0.160 A  
HETATM   17  C   UNL     1      -8.450   6.894  66.167  1.00  0.00    -0.136 A  
HETATM   18  C   UNL     1      -8.828   8.085  66.789  1.00  0.00    -0.157 A  
ENDBRANCH  11  13
ENDBRANCH  10  11
ENDBRANCH   4   6
ENDBRANCH   3   4
ENDBRANCH   2   3
TORSDOF 5
ENDMDL
MODEL      244
REMARK 921   NORMALIZED FREE ENERGY PREDICTED BY IDOCK:   -2.81 KCAL/MOL
REMARK 922        TOTAL FREE ENERGY PREDICTED BY IDOCK:   -4.18 KCAL/MOL
REMARK 923 INTER-LIGAND FREE ENERGY PREDICTED BY IDOCK:   -4.27 KCAL/MOL
REMARK 924 INTRA-LIGAND FREE ENERGY PREDICTED BY IDOCK:    0.09 KCAL/MOL
REMARK 927      BINDING AFFINITY PREDICTED BY RF-SCORE:    0.00 PKD
ROOT
HETATM    1  C   UNL     1     -10.822   5.763  66.708  1.00  0.00    -0.327 C  
HETATM    2  C   UNL     1     -10.653   5.711  68.217  1.00  0.00    -0.181 C  
ENDROOT
BRANCH   2   3
HETATM    3  O   UNL     1     -11.034   6.989  68.743  1.00  0.00    -0.183 OA 
BRANCH   3   4
HETATM    4  C   UNL     1     -11.115   7.065  70.101  1.00  0.00    -0.285 C  
HETATM    5  O   UNL     1     -12.013   6.575  70.771  1.00  0.00    -0.378 OA 
BRANCH   4   6
HETATM    6  C   UNL     1      -9.934   7.709  70.614  1.00  0.00    -0.183 A  
HETATM    7  C   UNL     1      -9.374   7.612  71.875  1.00  0.00    -0.145 A  
HETATM    8  N   UNL     1      -8.281   8.418  72.006  1.00  0.00    -0.152 NA 
HETATM    9  C   UNL     1      -8.157   9.017  70.847  1.00  0.00    -0.169 A  
HETATM   10  N   UNL     1      -9.119   8.617  69.958  1.00  0.00    -0.152 NA 
BRANCH  10  11
HETATM   11  C   UNL     1      -9.219   9.040  68.551  1.00  0.00    -0.136 C  
HETATM   12  C   UNL     1      -7.827   9.270  67.958  1.00  0.00    -0.092 C  
BRANCH  11  13
HETATM   13  C   UNL     1     -10.183  10.208  68.360  1.00  0.00    -0.192 A  
HETATM   14  C   UNL     1     -10.544  10.593  67.055  1.00  0.00    -0.317 A  
HETATM   15  C   UNL     1     -11.381  11.689  66.838  1.00  0.00    -0.364 A  
HETATM   16  C   UNL     1     -11.876  12.413  67.918  1.00  0.00    -0.370 A  
HETATM   17  C   UNL     1     -11.548  12.034  69.216  1.00  0.00    -0.380 A  
HETATM   18  C   UNL     1     -10.712  10.938  69.438  1.00  0.00    -0.265 A  
ENDBRANCH  11  13
ENDBRANCH  10  11
ENDBRANCH   4   6
ENDBRANCH   3   4
ENDBRANCH   2   3
TORSDOF 5
ENDMDL
MODEL      245
REMARK 921   NORMALIZED FREE ENERGY PREDICTED BY IDOCK:   -2.80 KCAL/MOL
REMARK 922        TOTAL FREE ENERGY PREDICTED BY IDOCK:   -4.17 KCAL/MOL
REMARK 923 INTER-LIGAND FREE ENERGY PREDICTED BY IDOCK:   -4.15 KCAL/MOL
REMARK 924 INTRA-LIGAND FREE ENERGY PREDICTED BY IDOCK:   -0.02 KCAL/MOL
REMARK 927      BINDING AFFINITY PREDICTED BY RF-SCORE:    0.00 PKD
ROOT
HETATM    1  C   UNL     1     -11.897  11.942  70.151  1.00  0.00    -0.390 C  
HETATM    2  C   UNL     1     -10.919  11.614  69.036  1.00  0.00    -0.233 C  
ENDROOT
BRANCH   2   3
HETATM    3  O   UNL     1     -11.112  10.239  68.677  1.00  0.00    -0.243 OA 
BRANCH   3   4
HETATM    4  C   UNL     1     -10.092   9.398  69.004  1.00  0.00    -0.194 C  
HETATM    5  O   UNL     1     -10.237   8.240  69.369  1.00  0.00    -0.195 OA 
BRANCH   4   6
HETATM    6  C   UNL     1      -8.835  10.051  68.749  1.00  0.00    -0.137 A  
HETATM    7  C   UNL     1      -7.914  10.541  69.657  1.00  0.00    -0.063 A  
HETATM    8  N   UNL     1      -6.862  11.147  69.034  1.00  0.00    -0.082 NA 
HETATM    9  C   UNL     1      -7.119  11.044  67.753  1.00  0.00    -0.086 A  
HETATM   10  N   UNL     1      -8.291  10.377  67.517  1.00  0.00    -0.115 NA 
BRANCH  10  11
HETATM   11  C   UNL     1      -8.831  10.028  66.192  1.00  0.00    -0.148 C  
HETATM   12  C   UNL     1      -7.723   9.479  65.288  1.00  0.00    -0.111 C  
BRANCH  11  13
HETATM   13  C   UNL     1      -9.640  11.164  65.573  1.00  0.00    -0.263 A  
HETATM   14  C   UNL     1     -10.408  10.911  64.421  1.00  0.00    -0.430 A  
HETATM   15  C   UNL     1     -11.119  11.937  63.796  1.00  0.00    -0.510 A  
HETATM   16  C   UNL     1     -11.082  13.228  64.314  1.00  0.00    -0.414 A  
HETATM   17  C   UNL     1     -10.346  13.493  65.464  1.00  0.00    -0.309 A  
HETATM   18  C   UNL     1      -9.633  12.470  66.093  1.00  0.00    -0.230 A  
ENDBRANCH  11  13
ENDBRANCH  10  11
ENDBRANCH   4   6
ENDBRANCH   3   4
ENDBRANCH   2   3
TORSDOF 5
ENDMDL
MODEL      246
REMARK 921   NORMALIZED FREE ENERGY PREDICTED BY IDOCK:   -2.80 KCAL/MOL
REMARK 922        TOTAL FREE ENERGY PREDICTED BY IDOCK:   -4.16 KCAL/MOL
REMARK 923 INTER-LIGAND FREE ENERGY PREDICTED BY IDOCK:   -3.69 KCAL/MOL
REMARK 924 INTRA-LIGAND FREE ENERGY PREDICTED BY IDOCK:   -0.47 KCAL/MOL
REMARK 927      BINDING AFFINITY PREDICTED BY RF-SCORE:    0.00 PKD
ROOT
HETATM    1  C   UNL     1     -11.362   9.852  68.632  1.00  0.00    -0.048 C  
HETATM    2  C   UNL     1     -11.445  10.420  70.038  1.00  0.00    -0.308 C  
ENDROOT
BRANCH   2   3
HETATM    3  O   UNL     1     -10.730  11.663  70.050  1.00  0.00     0.259 OA 
BRANCH   3   4
HETATM    4  C   UNL     1     -11.301  12.675  69.339  1.00  0.00    -0.208 C  
HETATM    5  O   UNL     1     -12.491  12.956  69.364  1.00  0.00    -0.027 OA 
BRANCH   4   6
HETATM    6  C   UNL     1     -10.274  13.413  68.652  1.00  0.00    -0.182 A  
HETATM    7  C   UNL     1      -9.709  14.629  68.989  1.00  0.00    -0.160 A  
HETATM    8  N   UNL     1      -8.799  15.041  68.059  1.00  0.00    -0.162 NA 
HETATM    9  C   UNL     1      -8.795  14.099  67.147  1.00  0.00    -0.229 A  
HETATM   10  N   UNL     1      -9.655  13.080  67.457  1.00  0.00    -0.198 NA 
BRANCH  10  11
HETATM   11  C   UNL     1      -9.834  11.840  66.684  1.00  0.00    -0.202 C  
HETATM   12  C   UNL     1      -8.483  11.307  66.201  1.00  0.00    -0.135 C  
BRANCH  11  13
HETATM   13  C   UNL     1     -10.881  11.985  65.582  1.00  0.00    -0.325 A  
HETATM   14  C   UNL     1     -10.681  11.325  64.356  1.00  0.00    -0.407 A  
HETATM   15  C   UNL     1     -11.589  11.476  63.306  1.00  0.00    -0.142 A  
HETATM   16  C   UNL     1     -12.714  12.281  63.466  1.00  0.00    -0.512 A  
HETATM   17  C   UNL     1     -12.939  12.923  64.680  1.00  0.00    -0.204 A  
HETATM   18  C   UNL     1     -12.034  12.775  65.732  1.00  0.00    -0.502 A  
ENDBRANCH  11  13
ENDBRANCH  10  11
ENDBRANCH   4   6
ENDBRANCH   3   4
ENDBRANCH   2   3
TORSDOF 5
ENDMDL
MODEL      247
REMARK 921   NORMALIZED FREE ENERGY PREDICTED BY IDOCK:   -2.76 KCAL/MOL
REMARK 922        TOTAL FREE ENERGY PREDICTED BY IDOCK:   -4.12 KCAL/MOL
REMARK 923 INTER-LIGAND FREE ENERGY PREDICTED BY IDOCK:   -3.81 KCAL/MOL
REMARK 924 INTRA-LIGAND FREE ENERGY PREDICTED BY IDOCK:   -0.31 KCAL/MOL
REMARK 927      BINDING AFFINITY PREDICTED BY RF-SCORE:    0.00 PKD
ROOT
HETATM    1  C   UNL     1      -5.872   7.307  69.400  1.00  0.00    -0.026 C  
HETATM    2  C   UNL     1      -6.648   8.283  68.532  1.00  0.00    -0.059 C  
ENDROOT
BRANCH   2   3
HETATM    3  O   UNL     1      -7.463   9.084  69.398  1.00  0.00    -0.073 OA 
BRANCH   3   4
HETATM    4  C   UNL     1      -8.541   8.451  69.940  1.00  0.00    -0.131 C  
HETATM    5  O   UNL     1      -8.760   8.356  71.139  1.00  0.00    -0.133 OA 
BRANCH   4   6
HETATM    6  C   UNL     1      -9.419   8.017  68.885  1.00  0.00    -0.151 A  
HETATM    7  C   UNL     1      -9.756   6.727  68.515  1.00  0.00    -0.133 A  
HETATM    8  N   UNL     1     -10.578   6.711  67.425  1.00  0.00    -0.257 NA 
HETATM    9  C   UNL     1     -10.752   7.972  67.112  1.00  0.00    -0.215 A  
HETATM   10  N   UNL     1     -10.089   8.810  67.967  1.00  0.00    -0.187 NA 
BRANCH  10  11
HETATM   11  C   UNL     1     -10.136  10.282  67.939  1.00  0.00    -0.170 C  
HETATM   12  C   UNL     1     -11.184  10.805  68.924  1.00  0.00    -0.328 C  
BRANCH  11  13
HETATM   13  C   UNL     1     -10.274  10.835  66.523  1.00  0.00    -0.287 A  
HETATM   14  C   UNL     1     -11.374  11.654  66.211  1.00  0.00    -0.293 A  
HETATM   15  C   UNL     1     -11.564  12.135  64.914  1.00  0.00    -0.371 A  
HETATM   16  C   UNL     1     -10.655  11.812  63.911  1.00  0.00    -0.445 A  
HETATM   17  C   UNL     1      -9.548  11.022  64.205  1.00  0.00    -0.303 A  
HETATM   18  C   UNL     1      -9.355  10.539  65.501  1.00  0.00    -0.245 A  
ENDBRANCH  11  13
ENDBRANCH  10  11
ENDBRANCH   4   6
ENDBRANCH   3   4
ENDBRANCH   2   3
TORSDOF 5
ENDMDL
MODEL      248
REMARK 921   NORMALIZED FREE ENERGY PREDICTED BY IDOCK:   -2.76 KCAL/MOL
REMARK 922        TOTAL FREE ENERGY PREDICTED BY IDOCK:   -4.11 KCAL/MOL
REMARK 923 INTER-LIGAND FREE ENERGY PREDICTED BY IDOCK:   -3.62 KCAL/MOL
REMARK 924 INTRA-LIGAND FREE ENERGY PREDICTED BY IDOCK:   -0.49 KCAL/MOL
REMARK 927      BINDING AFFINITY PREDICTED BY RF-SCORE:    0.00 PKD
ROOT
HETATM    1  C   UNL     1      -5.932   9.878  68.775  1.00  0.00    -0.038 C  
HETATM    2  C   UNL     1      -6.423  11.309  68.896  1.00  0.00    -0.063 C  
ENDROOT
BRANCH   2   3
HETATM    3  O   UNL     1      -7.841  11.268  69.107  1.00  0.00    -0.108 OA 
BRANCH   3   4
HETATM    4  C   UNL     1      -8.581  12.055  68.276  1.00  0.00    -0.174 C  
HETATM    5  O   UNL     1      -8.757  13.255  68.431  1.00  0.00    -0.175 OA 
BRANCH   4   6
HETATM    6  C   UNL     1      -9.022  11.275  67.149  1.00  0.00    -0.155 A  
HETATM    7  C   UNL     1      -8.437  11.149  65.903  1.00  0.00    -0.105 A  
HETATM    8  N   UNL     1      -9.180  10.361  65.072  1.00  0.00    -0.196 NA 
HETATM    9  C   UNL     1     -10.220  10.001  65.784  1.00  0.00    -0.200 A  
HETATM   10  N   UNL     1     -10.173  10.510  67.055  1.00  0.00    -0.216 NA 
BRANCH  10  11
HETATM   11  C   UNL     1     -11.145  10.237  68.127  1.00  0.00    -0.264 C  
HETATM   12  C   UNL     1     -11.804  11.536  68.598  1.00  0.00    -0.382 C  
BRANCH  11  13
HETATM   13  C   UNL     1     -10.551   9.392  69.251  1.00  0.00    -0.239 A  
HETATM   14  C   UNL     1     -10.865   9.708  70.586  1.00  0.00    -0.386 A  
HETATM   15  C   UNL     1     -10.300   8.992  71.643  1.00  0.00    -0.420 A  
HETATM   16  C   UNL     1      -9.419   7.946  71.384  1.00  0.00    -0.182 A  
HETATM   17  C   UNL     1      -9.114   7.605  70.071  1.00  0.00    -0.151 A  
HETATM   18  C   UNL     1      -9.677   8.318  69.011  1.00  0.00    -0.167 A  
ENDBRANCH  11  13
ENDBRANCH  10  11
ENDBRANCH   4   6
ENDBRANCH   3   4
ENDBRANCH   2   3
TORSDOF 5
ENDMDL
MODEL      249
REMARK 921   NORMALIZED FREE ENERGY PREDICTED BY IDOCK:   -2.75 KCAL/MOL
REMARK 922        TOTAL FREE ENERGY PREDICTED BY IDOCK:   -4.11 KCAL/MOL
REMARK 923 INTER-LIGAND FREE ENERGY PREDICTED BY IDOCK:   -3.74 KCAL/MOL
REMARK 924 INTRA-LIGAND FREE ENERGY PREDICTED BY IDOCK:   -0.37 KCAL/MOL
REMARK 927      BINDING AFFINITY PREDICTED BY RF-SCORE:    0.00 PKD
ROOT
HETATM    1  C   UNL     1     -10.098  19.806  68.199  1.00  0.00    -0.574 C  
HETATM    2  C   UNL     1      -9.583  19.140  66.935  1.00  0.00    -0.325 C  
ENDROOT
BRANCH   2   3
HETATM    3  O   UNL     1      -8.553  18.218  67.316  1.00  0.00    -0.248 OA 
BRANCH   3   4
HETATM    4  C   UNL     1      -8.407  17.134  66.505  1.00  0.00    -0.274 C  
HETATM    5  O   UNL     1      -7.677  17.093  65.525  1.00  0.00    -0.137 OA 
BRANCH   4   6
HETATM    6  C   UNL     1      -9.155  16.030  67.047  1.00  0.00    -0.214 A  
HETATM    7  C   UNL     1     -10.524  15.901  67.193  1.00  0.00    -0.313 A  
HETATM    8  N   UNL     1     -10.860  14.726  67.802  1.00  0.00    -0.272 NA 
HETATM    9  C   UNL     1      -9.719  14.126  68.038  1.00  0.00    -0.226 A  
HETATM   10  N   UNL     1      -8.652  14.858  67.590  1.00  0.00    -0.165 NA 
BRANCH  10  11
HETATM   11  C   UNL     1      -7.241  14.438  67.633  1.00  0.00    -0.184 C  
HETATM   12  C   UNL     1      -7.112  12.954  67.279  1.00  0.00    -0.071 C  
BRANCH  11  13
HETATM   13  C   UNL     1      -6.553  14.834  68.937  1.00  0.00    -0.091 A  
HETATM   14  C   UNL     1      -6.430  16.198  69.260  1.00  0.00    -0.182 A  
HETATM   15  C   UNL     1      -5.762  16.602  70.417  1.00  0.00    -0.111 A  
HETATM   16  C   UNL     1      -5.211  15.652  71.272  1.00  0.00    -0.073 A  
HETATM   17  C   UNL     1      -5.342  14.298  70.981  1.00  0.00    -0.153 A  
HETATM   18  C   UNL     1      -6.011  13.890  69.825  1.00  0.00    -0.124 A  
ENDBRANCH  11  13
ENDBRANCH  10  11
ENDBRANCH   4   6
ENDBRANCH   3   4
ENDBRANCH   2   3
TORSDOF 5
ENDMDL
MODEL      250
REMARK 921   NORMALIZED FREE ENERGY PREDICTED BY IDOCK:   -2.75 KCAL/MOL
REMARK 922        TOTAL FREE ENERGY PREDICTED BY IDOCK:   -4.10 KCAL/MOL
REMARK 923 INTER-LIGAND FREE ENERGY PREDICTED BY IDOCK:   -5.18 KCAL/MOL
REMARK 924 INTRA-LIGAND FREE ENERGY PREDICTED BY IDOCK:    1.08 KCAL/MOL
REMARK 927      BINDING AFFINITY PREDICTED BY RF-SCORE:    0.00 PKD
ROOT
HETATM    1  C   UNL     1     -12.293  15.715  71.760  1.00  0.00    -0.498 C  
HETATM    2  C   UNL     1     -12.762  15.059  70.473  1.00  0.00    -0.357 C  
ENDROOT
BRANCH   2   3
HETATM    3  O   UNL     1     -12.275  15.847  69.379  1.00  0.00    -0.284 OA 
BRANCH   3   4
HETATM    4  C   UNL     1     -10.929  16.057  69.359  1.00  0.00    -0.321 C  
HETATM    5  O   UNL     1     -10.346  16.891  70.037  1.00  0.00    -0.017 OA 
BRANCH   4   6
HETATM    6  C   UNL     1     -10.307  15.079  68.505  1.00  0.00    -0.230 A  
HETATM    7  C   UNL     1     -10.716  13.787  68.228  1.00  0.00    -0.253 A  
HETATM    8  N   UNL     1      -9.833  13.141  67.412  1.00  0.00    -0.222 NA 
HETATM    9  C   UNL     1      -8.880  14.012  67.183  1.00  0.00    -0.228 A  
HETATM   10  N   UNL     1      -9.118  15.208  67.804  1.00  0.00    -0.178 NA 
BRANCH  10  11
HETATM   11  C   UNL     1      -8.285  16.418  67.692  1.00  0.00    -0.153 C  
HETATM   12  C   UNL     1      -7.554  16.690  69.009  1.00  0.00    -0.226 C  
BRANCH  11  13
HETATM   13  C   UNL     1      -9.063  17.613  67.147  1.00  0.00    -0.247 A  
HETATM   14  C   UNL     1      -8.810  18.893  67.674  1.00  0.00    -0.312 A  
HETATM   15  C   UNL     1      -9.537  20.002  67.239  1.00  0.00    -0.527 A  
HETATM   16  C   UNL     1     -10.522  19.853  66.267  1.00  0.00    -0.590 A  
HETATM   17  C   UNL     1     -10.771  18.599  65.719  1.00  0.00    -0.224 A  
HETATM   18  C   UNL     1     -10.046  17.487  66.151  1.00  0.00    -0.317 A  
ENDBRANCH  11  13
ENDBRANCH  10  11
ENDBRANCH   4   6
ENDBRANCH   3   4
ENDBRANCH   2   3
TORSDOF 5
ENDMDL
MODEL      251
REMARK 921   NORMALIZED FREE ENERGY PREDICTED BY IDOCK:   -2.71 KCAL/MOL
REMARK 922        TOTAL FREE ENERGY PREDICTED BY IDOCK:   -4.05 KCAL/MOL
REMARK 923 INTER-LIGAND FREE ENERGY PREDICTED BY IDOCK:   -3.71 KCAL/MOL
REMARK 924 INTRA-LIGAND FREE ENERGY PREDICTED BY IDOCK:   -0.34 KCAL/MOL
REMARK 927      BINDING AFFINITY PREDICTED BY RF-SCORE:    0.00 PKD
ROOT
HETATM    1  C   UNL     1      -7.625  10.435  67.395  1.00  0.00    -0.094 C  
HETATM    2  C   UNL     1      -8.131   9.011  67.541  1.00  0.00    -0.108 C  
ENDROOT
BRANCH   2   3
HETATM    3  O   UNL     1      -9.317   8.885  66.746  1.00  0.00    -0.155 OA 
BRANCH   3   4
HETATM    4  C   UNL     1     -10.415   8.413  67.400  1.00  0.00    -0.283 C  
HETATM    5  O   UNL     1     -10.865   7.283  67.275  1.00  0.00    -0.306 OA 
BRANCH   4   6
HETATM    6  C   UNL     1     -10.883   9.410  68.326  1.00  0.00    -0.112 A  
HETATM    7  C   UNL     1     -11.063  10.766  68.121  1.00  0.00    -0.280 A  
HETATM    8  N   UNL     1     -11.471  11.401  69.258  1.00  0.00    -0.273 NA 
HETATM    9  C   UNL     1     -11.544  10.459  70.167  1.00  0.00    -0.312 A  
HETATM   10  N   UNL     1     -11.215   9.230  69.660  1.00  0.00    -0.113 NA 
BRANCH  10  11
HETATM   11  C   UNL     1     -11.266   7.954  70.394  1.00  0.00    -0.234 C  
HETATM   12  C   UNL     1     -12.523   7.886  71.264  1.00  0.00    -0.283 C  
BRANCH  11  13
HETATM   13  C   UNL     1      -9.968   7.658  71.141  1.00  0.00    -0.188 A  
HETATM   14  C   UNL     1      -9.145   6.608  70.694  1.00  0.00    -0.155 A  
HETATM   15  C   UNL     1      -7.978   6.273  71.382  1.00  0.00    -0.109 A  
HETATM   16  C   UNL     1      -7.610   6.984  72.521  1.00  0.00    -0.089 A  
HETATM   17  C   UNL     1      -8.400   8.040  72.964  1.00  0.00    -0.243 A  
HETATM   18  C   UNL     1      -9.568   8.379  72.279  1.00  0.00    -0.374 A  
ENDBRANCH  11  13
ENDBRANCH  10  11
ENDBRANCH   4   6
ENDBRANCH   3   4
ENDBRANCH   2   3
TORSDOF 5
ENDMDL
MODEL      252
REMARK 921   NORMALIZED FREE ENERGY PREDICTED BY IDOCK:   -2.68 KCAL/MOL
REMARK 922        TOTAL FREE ENERGY PREDICTED BY IDOCK:   -4.01 KCAL/MOL
REMARK 923 INTER-LIGAND FREE ENERGY PREDICTED BY IDOCK:   -3.54 KCAL/MOL
REMARK 924 INTRA-LIGAND FREE ENERGY PREDICTED BY IDOCK:   -0.47 KCAL/MOL
REMARK 927      BINDING AFFINITY PREDICTED BY RF-SCORE:    0.00 PKD
ROOT
HETATM    1  C   UNL     1     -14.380   8.543  72.022  1.00  0.00    -0.537 C  
HETATM    2  C   UNL     1     -13.000   9.028  71.615  1.00  0.00    -0.361 C  
ENDROOT
BRANCH   2   3
HETATM    3  O   UNL     1     -12.045   8.062  72.072  1.00  0.00    -0.301 OA 
BRANCH   3   4
HETATM    4  C   UNL     1     -11.909   6.955  71.291  1.00  0.00    -0.341 C  
HETATM    5  O   UNL     1     -12.376   6.836  70.167  1.00  0.00    -0.158 OA 
BRANCH   4   6
HETATM    6  C   UNL     1     -11.047   6.008  71.950  1.00  0.00    -0.277 A  
HETATM    7  C   UNL     1     -11.211   5.401  73.182  1.00  0.00    -0.297 A  
HETATM    8  N   UNL     1     -10.151   4.601  73.497  1.00  0.00    -0.148 NA 
HETATM    9  C   UNL     1      -9.331   4.706  72.480  1.00  0.00    -0.131 A  
HETATM   10  N   UNL     1      -9.824   5.532  71.505  1.00  0.00    -0.166 NA 
BRANCH  10  11
HETATM   11  C   UNL     1      -9.188   5.806  70.206  1.00  0.00    -0.152 C  
HETATM   12  C   UNL     1      -8.576   4.527  69.627  1.00  0.00    -0.102 C  
BRANCH  11  13
HETATM   13  C   UNL     1      -8.228   6.991  70.265  1.00  0.00    -0.128 A  
HETATM   14  C   UNL     1      -6.842   6.748  70.315  1.00  0.00    -0.061 A  
HETATM   15  C   UNL     1      -5.935   7.803  70.423  1.00  0.00    -0.030 A  
HETATM   16  C   UNL     1      -6.395   9.116  70.475  1.00  0.00    -0.053 A  
HETATM   17  C   UNL     1      -7.760   9.377  70.404  1.00  0.00    -0.163 A  
HETATM   18  C   UNL     1      -8.670   8.324  70.296  1.00  0.00    -0.139 A  
ENDBRANCH  11  13
ENDBRANCH  10  11
ENDBRANCH   4   6
ENDBRANCH   3   4
ENDBRANCH   2   3
TORSDOF 5
ENDMDL
MODEL      253
REMARK 921   NORMALIZED FREE ENERGY PREDICTED BY IDOCK:   -2.65 KCAL/MOL
REMARK 922        TOTAL FREE ENERGY PREDICTED BY IDOCK:   -3.98 KCAL/MOL
REMARK 923 INTER-LIGAND FREE ENERGY PREDICTED BY IDOCK:   -3.45 KCAL/MOL
REMARK 924 INTRA-LIGAND FREE ENERGY PREDICTED BY IDOCK:   -0.52 KCAL/MOL
REMARK 927      BINDING AFFINITY PREDICTED BY RF-SCORE:    0.00 PKD
ROOT
HETATM    1  C   UNL     1      -9.619   3.887  70.817  1.00  0.00    -0.259 C  
HETATM    2  C   UNL     1     -10.406   5.024  70.191  1.00  0.00    -0.236 C  
ENDROOT
BRANCH   2   3
HETATM    3  O   UNL     1      -9.863   5.265  68.886  1.00  0.00    -0.140 OA 
BRANCH   3   4
HETATM    4  C   UNL     1      -8.954   6.276  68.806  1.00  0.00    -0.125 C  
HETATM    5  O   UNL     1      -7.753   6.147  68.997  1.00  0.00    -0.093 OA 
BRANCH   4   6
HETATM    6  C   UNL     1      -9.613   7.475  68.360  1.00  0.00    -0.150 A  
HETATM    7  C   UNL     1      -9.887   7.882  67.067  1.00  0.00    -0.225 A  
HETATM    8  N   UNL     1     -10.479   9.112  67.038  1.00  0.00    -0.258 NA 
HETATM    9  C   UNL     1     -10.572   9.475  68.294  1.00  0.00    -0.216 A  
HETATM   10  N   UNL     1     -10.079   8.520  69.142  1.00  0.00    -0.197 NA 
BRANCH  10  11
HETATM   11  C   UNL     1     -10.100   8.581  70.614  1.00  0.00    -0.192 C  
HETATM   12  C   UNL     1     -11.085   9.651  71.092  1.00  0.00    -0.444 C  
BRANCH  11  13
HETATM   13  C   UNL     1      -8.702   8.702  71.213  1.00  0.00    -0.246 A  
HETATM   14  C   UNL     1      -7.709   9.400  70.501  1.00  0.00    -0.177 A  
HETATM   15  C   UNL     1      -6.405   9.487  70.991  1.00  0.00    -0.077 A  
HETATM   16  C   UNL     1      -6.073   8.885  72.202  1.00  0.00    -0.061 A  
HETATM   17  C   UNL     1      -7.047   8.210  72.931  1.00  0.00    -0.130 A  
HETATM   18  C   UNL     1      -8.352   8.121  72.444  1.00  0.00    -0.227 A  
ENDBRANCH  11  13
ENDBRANCH  10  11
ENDBRANCH   4   6
ENDBRANCH   3   4
ENDBRANCH   2   3
TORSDOF 5
ENDMDL
MODEL      254
REMARK 921   NORMALIZED FREE ENERGY PREDICTED BY IDOCK:   -2.64 KCAL/MOL
REMARK 922        TOTAL FREE ENERGY PREDICTED BY IDOCK:   -3.96 KCAL/MOL
REMARK 923 INTER-LIGAND FREE ENERGY PREDICTED BY IDOCK:   -5.06 KCAL/MOL
REMARK 924 INTRA-LIGAND FREE ENERGY PREDICTED BY IDOCK:    1.10 KCAL/MOL
REMARK 927      BINDING AFFINITY PREDICTED BY RF-SCORE:    0.00 PKD
ROOT
HETATM    1  C   UNL     1     -10.393  19.408  67.449  1.00  0.00    -0.559 C  
HETATM    2  C   UNL     1     -10.534  18.226  66.505  1.00  0.00    -0.356 C  
ENDROOT
BRANCH   2   3
HETATM    3  O   UNL     1      -9.611  17.215  66.931  1.00  0.00    -0.246 OA 
BRANCH   3   4
HETATM    4  C   UNL     1     -10.123  16.266  67.763  1.00  0.00    -0.252 C  
HETATM    5  O   UNL     1     -11.254  16.287  68.229  1.00  0.00    -0.352 OA 
BRANCH   4   6
HETATM    6  C   UNL     1      -9.170  15.197  67.912  1.00  0.00    -0.184 A  
HETATM    7  C   UNL     1      -7.824  15.275  68.219  1.00  0.00    -0.116 A  
HETATM    8  N   UNL     1      -7.233  14.045  68.218  1.00  0.00    -0.101 NA 
HETATM    9  C   UNL     1      -8.192  13.206  67.910  1.00  0.00    -0.162 A  
HETATM   10  N   UNL     1      -9.391  13.841  67.728  1.00  0.00    -0.205 NA 
BRANCH  10  11
HETATM   11  C   UNL     1     -10.679  13.185  67.447  1.00  0.00    -0.253 C  
HETATM   12  C   UNL     1     -11.605  14.128  66.675  1.00  0.00    -0.399 C  
BRANCH  11  13
HETATM   13  C   UNL     1     -11.306  12.572  68.696  1.00  0.00    -0.329 A  
HETATM   14  C   UNL     1     -12.228  13.330  69.442  1.00  0.00    -0.210 A  
HETATM   15  C   UNL     1     -12.783  12.825  70.619  1.00  0.00    -0.155 A  
HETATM   16  C   UNL     1     -12.433  11.554  71.066  1.00  0.00    -0.458 A  
HETATM   17  C   UNL     1     -11.541  10.781  70.329  1.00  0.00    -0.427 A  
HETATM   18  C   UNL     1     -10.983  11.283  69.152  1.00  0.00    -0.292 A  
ENDBRANCH  11  13
ENDBRANCH  10  11
ENDBRANCH   4   6
ENDBRANCH   3   4
ENDBRANCH   2   3
TORSDOF 5
ENDMDL
MODEL      255
REMARK 921   NORMALIZED FREE ENERGY PREDICTED BY IDOCK:   -2.63 KCAL/MOL
REMARK 922        TOTAL FREE ENERGY PREDICTED BY IDOCK:   -3.94 KCAL/MOL
REMARK 923 INTER-LIGAND FREE ENERGY PREDICTED BY IDOCK:   -3.36 KCAL/MOL
REMARK 924 INTRA-LIGAND FREE ENERGY PREDICTED BY IDOCK:   -0.58 KCAL/MOL
REMARK 927      BINDING AFFINITY PREDICTED BY RF-SCORE:    0.00 PKD
ROOT
HETATM    1  C   UNL     1      -7.795  10.062  64.464  1.00  0.00    -0.145 C  
HETATM    2  C   UNL     1      -6.794  10.168  65.601  1.00  0.00    -0.124 C  
ENDROOT
BRANCH   2   3
HETATM    3  O   UNL     1      -7.126   9.164  66.569  1.00  0.00    -0.080 OA 
BRANCH   3   4
HETATM    4  C   UNL     1      -8.077   9.516  67.478  1.00  0.00    -0.110 C  
HETATM    5  O   UNL     1      -8.112  10.587  68.068  1.00  0.00    -0.108 OA 
BRANCH   4   6
HETATM    6  C   UNL     1      -9.078   8.484  67.545  1.00  0.00    -0.134 A  
HETATM    7  C   UNL     1     -10.096   8.206  66.650  1.00  0.00    -0.273 A  
HETATM    8  N   UNL     1     -10.884   7.179  67.084  1.00  0.00    -0.347 NA 
HETATM    9  C   UNL     1     -10.372   6.819  68.236  1.00  0.00    -0.187 A  
HETATM   10  N   UNL     1      -9.269   7.562  68.562  1.00  0.00    -0.143 NA 
BRANCH  10  11
HETATM   11  C   UNL     1      -8.419   7.365  69.748  1.00  0.00    -0.136 C  
HETATM   12  C   UNL     1      -7.292   6.375  69.443  1.00  0.00    -0.092 C  
BRANCH  11  13
HETATM   13  C   UNL     1      -9.228   7.029  70.997  1.00  0.00    -0.155 A  
HETATM   14  C   UNL     1      -9.291   5.693  71.434  1.00  0.00    -0.169 A  
HETATM   15  C   UNL     1     -10.064   5.338  72.541  1.00  0.00    -0.224 A  
HETATM   16  C   UNL     1     -10.780   6.311  73.233  1.00  0.00    -0.284 A  
HETATM   17  C   UNL     1     -10.712   7.640  72.829  1.00  0.00    -0.401 A  
HETATM   18  C   UNL     1      -9.940   7.999  71.723  1.00  0.00    -0.245 A  
ENDBRANCH  11  13
ENDBRANCH  10  11
ENDBRANCH   4   6
ENDBRANCH   3   4
ENDBRANCH   2   3
TORSDOF 5
ENDMDL
MODEL      256
REMARK 921   NORMALIZED FREE ENERGY PREDICTED BY IDOCK:   -2.62 KCAL/MOL
REMARK 922        TOTAL FREE ENERGY PREDICTED BY IDOCK:   -3.93 KCAL/MOL
REMARK 923 INTER-LIGAND FREE ENERGY PREDICTED BY IDOCK:   -3.26 KCAL/MOL
REMARK 924 INTRA-LIGAND FREE ENERGY PREDICTED BY IDOCK:   -0.67 KCAL/MOL
REMARK 927      BINDING AFFINITY PREDICTED BY RF-SCORE:    0.00 PKD
ROOT
HETATM    1  C   UNL     1      -8.076  13.230  67.993  1.00  0.00    -0.157 C  
HETATM    2  C   UNL     1      -8.623  11.931  67.428  1.00  0.00    -0.164 C  
ENDROOT
BRANCH   2   3
HETATM    3  O   UNL     1      -9.312  11.250  68.485  1.00  0.00    -0.176 OA 
BRANCH   3   4
HETATM    4  C   UNL     1     -10.467  10.624  68.125  1.00  0.00    -0.185 C  
HETATM    5  O   UNL     1     -11.068  10.823  67.079  1.00  0.00    -0.265 OA 
BRANCH   4   6
HETATM    6  C   UNL     1     -10.797   9.629  69.111  1.00  0.00    -0.190 A  
HETATM    7  C   UNL     1     -11.278   9.809  70.395  1.00  0.00    -0.300 A  
HETATM    8  N   UNL     1     -11.419   8.622  71.054  1.00  0.00    -0.273 NA 
HETATM    9  C   UNL     1     -11.029   7.709  70.198  1.00  0.00    -0.246 A  
HETATM   10  N   UNL     1     -10.656   8.255  69.000  1.00  0.00    -0.191 NA 
BRANCH  10  11
HETATM   11  C   UNL     1     -10.239   7.503  67.804  1.00  0.00    -0.201 C  
HETATM   12  C   UNL     1     -10.857   6.102  67.808  1.00  0.00    -0.413 C  
BRANCH  11  13
HETATM   13  C   UNL     1      -8.726   7.521  67.601  1.00  0.00    -0.122 A  
HETATM   14  C   UNL     1      -8.193   8.190  66.483  1.00  0.00    -0.107 A  
HETATM   15  C   UNL     1      -6.820   8.184  66.234  1.00  0.00    -0.058 A  
HETATM   16  C   UNL     1      -5.957   7.518  67.100  1.00  0.00    -0.046 A  
HETATM   17  C   UNL     1      -6.463   6.870  68.221  1.00  0.00    -0.050 A  
HETATM   18  C   UNL     1      -7.836   6.874  68.474  1.00  0.00    -0.118 A  
ENDBRANCH  11  13
ENDBRANCH  10  11
ENDBRANCH   4   6
ENDBRANCH   3   4
ENDBRANCH   2   3
TORSDOF 5
ENDMDL
MODEL      257
REMARK 921   NORMALIZED FREE ENERGY PREDICTED BY IDOCK:   -2.59 KCAL/MOL
REMARK 922        TOTAL FREE ENERGY PREDICTED BY IDOCK:   -3.90 KCAL/MOL
REMARK 923 INTER-LIGAND FREE ENERGY PREDICTED BY IDOCK:   -4.24 KCAL/MOL
REMARK 924 INTRA-LIGAND FREE ENERGY PREDICTED BY IDOCK:    0.34 KCAL/MOL
REMARK 927      BINDING AFFINITY PREDICTED BY RF-SCORE:    0.00 PKD
ROOT
HETATM    1  C   UNL     1      -9.380  13.663  68.121  1.00  0.00    -0.212 C  
HETATM    2  C   UNL     1     -10.449  12.712  67.612  1.00  0.00    -0.219 C  
ENDROOT
BRANCH   2   3
HETATM    3  O   UNL     1     -10.290  11.467  68.305  1.00  0.00    -0.180 OA 
BRANCH   3   4
HETATM    4  C   UNL     1      -9.347  10.627  67.795  1.00  0.00    -0.146 C  
HETATM    5  O   UNL     1      -9.123  10.478  66.602  1.00  0.00    -0.152 OA 
BRANCH   4   6
HETATM    6  C   UNL     1      -8.599  10.037  68.874  1.00  0.00    -0.138 A  
HETATM    7  C   UNL     1      -7.470  10.520  69.510  1.00  0.00    -0.146 A  
HETATM    8  N   UNL     1      -7.010   9.650  70.455  1.00  0.00    -0.113 NA 
HETATM    9  C   UNL     1      -7.835   8.632  70.412  1.00  0.00    -0.091 A  
HETATM   10  N   UNL     1      -8.827   8.814  69.486  1.00  0.00    -0.141 NA 
BRANCH  10  11
HETATM   11  C   UNL     1      -9.952   7.898  69.238  1.00  0.00    -0.190 C  
HETATM   12  C   UNL     1     -10.365   7.939  67.765  1.00  0.00    -0.289 C  
BRANCH  11  13
HETATM   13  C   UNL     1     -11.103   8.109  70.218  1.00  0.00    -0.221 A  
HETATM   14  C   UNL     1     -11.811   6.991  70.696  1.00  0.00    -0.377 A  
HETATM   15  C   UNL     1     -12.903   7.147  71.552  1.00  0.00    -0.434 A  
HETATM   16  C   UNL     1     -13.301   8.421  71.949  1.00  0.00    -0.380 A  
HETATM   17  C   UNL     1     -12.600   9.537  71.505  1.00  0.00    -0.462 A  
HETATM   18  C   UNL     1     -11.507   9.385  70.649  1.00  0.00    -0.344 A  
ENDBRANCH  11  13
ENDBRANCH  10  11
ENDBRANCH   4   6
ENDBRANCH   3   4
ENDBRANCH   2   3
TORSDOF 5
ENDMDL
MODEL      258
REMARK 921   NORMALIZED FREE ENERGY PREDICTED BY IDOCK:   -2.59 KCAL/MOL
REMARK 922        TOTAL FREE ENERGY PREDICTED BY IDOCK:   -3.89 KCAL/MOL
REMARK 923 INTER-LIGAND FREE ENERGY PREDICTED BY IDOCK:   -3.20 KCAL/MOL
REMARK 924 INTRA-LIGAND FREE ENERGY PREDICTED BY IDOCK:   -0.69 KCAL/MOL
REMARK 927      BINDING AFFINITY PREDICTED BY RF-SCORE:    0.00 PKD
ROOT
HETATM    1  C   UNL     1      -6.896  10.180  64.740  1.00  0.00    -0.121 C  
HETATM    2  C   UNL     1      -6.346  10.231  66.154  1.00  0.00    -0.094 C  
ENDROOT
BRANCH   2   3
HETATM    3  O   UNL     1      -6.463  11.582  66.620  1.00  0.00    -0.136 OA 
BRANCH   3   4
HETATM    4  C   UNL     1      -7.615  11.876  67.285  1.00  0.00    -0.154 C  
HETATM    5  O   UNL     1      -8.459  12.670  66.895  1.00  0.00    -0.184 OA 
BRANCH   4   6
HETATM    6  C   UNL     1      -7.724  11.032  68.446  1.00  0.00    -0.119 A  
HETATM    7  C   UNL     1      -6.917  10.994  69.568  1.00  0.00    -0.126 A  
HETATM    8  N   UNL     1      -7.305  10.017  70.438  1.00  0.00    -0.259 NA 
HETATM    9  C   UNL     1      -8.339   9.445  69.871  1.00  0.00    -0.167 A  
HETATM   10  N   UNL     1      -8.650  10.025  68.670  1.00  0.00    -0.118 NA 
BRANCH  10  11
HETATM   11  C   UNL     1      -9.796   9.672  67.815  1.00  0.00    -0.159 C  
HETATM   12  C   UNL     1     -11.084  10.297  68.358  1.00  0.00    -0.302 C  
BRANCH  11  13
HETATM   13  C   UNL     1      -9.889   8.171  67.554  1.00  0.00    -0.230 A  
HETATM   14  C   UNL     1     -10.789   7.398  68.311  1.00  0.00    -0.081 A  
HETATM   15  C   UNL     1     -10.864   6.015  68.139  1.00  0.00    -0.365 A  
HETATM   16  C   UNL     1     -10.049   5.382  67.205  1.00  0.00    -0.231 A  
HETATM   17  C   UNL     1      -9.168   6.133  66.432  1.00  0.00    -0.166 A  
HETATM   18  C   UNL     1      -9.090   7.517  66.601  1.00  0.00    -0.189 A  
ENDBRANCH  11  13
ENDBRANCH  10  11
ENDBRANCH   4   6
ENDBRANCH   3   4
ENDBRANCH   2   3
TORSDOF 5
ENDMDL
MODEL      259
REMARK 921   NORMALIZED FREE ENERGY PREDICTED BY IDOCK:   -2.58 KCAL/MOL
REMARK 922        TOTAL FREE ENERGY PREDICTED BY IDOCK:   -3.88 KCAL/MOL
REMARK 923 INTER-LIGAND FREE ENERGY PREDICTED BY IDOCK:   -4.82 KCAL/MOL
REMARK 924 INTRA-LIGAND FREE ENERGY PREDICTED BY IDOCK:    0.94 KCAL/MOL
REMARK 927      BINDING AFFINITY PREDICTED BY RF-SCORE:    0.00 PKD
ROOT
HETATM    1  C   UNL     1      -9.119   3.833  71.153  1.00  0.00    -0.181 C  
HETATM    2  C   UNL     1      -9.998   4.957  70.633  1.00  0.00    -0.235 C  
ENDROOT
BRANCH   2   3
HETATM    3  O   UNL     1      -9.332   5.546  69.508  1.00  0.00    -0.124 OA 
BRANCH   3   4
HETATM    4  C   UNL     1      -8.722   6.740  69.746  1.00  0.00    -0.141 C  
HETATM    5  O   UNL     1      -7.723   6.884  70.436  1.00  0.00    -0.095 OA 
BRANCH   4   6
HETATM    6  C   UNL     1      -9.372   7.770  68.978  1.00  0.00    -0.150 A  
HETATM    7  C   UNL     1      -9.440   7.912  67.604  1.00  0.00    -0.144 A  
HETATM    8  N   UNL     1     -10.100   9.052  67.245  1.00  0.00    -0.214 NA 
HETATM    9  C   UNL     1     -10.439   9.620  68.377  1.00  0.00    -0.223 A  
HETATM   10  N   UNL     1     -10.040   8.885  69.460  1.00  0.00    -0.192 NA 
BRANCH  10  11
HETATM   11  C   UNL     1     -10.326   9.203  70.870  1.00  0.00    -0.280 C  
HETATM   12  C   UNL     1      -9.249   8.612  71.783  1.00  0.00    -0.338 C  
BRANCH  11  13
HETATM   13  C   UNL     1     -11.755   8.845  71.270  1.00  0.00    -0.370 A  
HETATM   14  C   UNL     1     -12.148   7.494  71.273  1.00  0.00    -0.351 A  
HETATM   15  C   UNL     1     -13.460   7.131  71.581  1.00  0.00    -0.397 A  
HETATM   16  C   UNL     1     -14.398   8.109  71.900  1.00  0.00    -0.566 A  
HETATM   17  C   UNL     1     -14.022   9.448  71.924  1.00  0.00    -0.302 A  
HETATM   18  C   UNL     1     -12.711   9.815  71.615  1.00  0.00    -0.517 A  
ENDBRANCH  11  13
ENDBRANCH  10  11
ENDBRANCH   4   6
ENDBRANCH   3   4
ENDBRANCH   2   3
TORSDOF 5
ENDMDL
MODEL      260
REMARK 921   NORMALIZED FREE ENERGY PREDICTED BY IDOCK:   -2.56 KCAL/MOL
REMARK 922        TOTAL FREE ENERGY PREDICTED BY IDOCK:   -3.85 KCAL/MOL
REMARK 923 INTER-LIGAND FREE ENERGY PREDICTED BY IDOCK:   -4.08 KCAL/MOL
REMARK 924 INTRA-LIGAND FREE ENERGY PREDICTED BY IDOCK:    0.23 KCAL/MOL
REMARK 927      BINDING AFFINITY PREDICTED BY RF-SCORE:    0.00 PKD
ROOT
HETATM    1  C   UNL     1      -6.036  10.264  69.780  1.00  0.00    -0.050 C  
HETATM    2  C   UNL     1      -7.245  11.144  69.515  1.00  0.00    -0.057 C  
ENDROOT
BRANCH   2   3
HETATM    3  O   UNL     1      -8.407  10.304  69.527  1.00  0.00    -0.164 OA 
BRANCH   3   4
HETATM    4  C   UNL     1      -9.395  10.657  68.657  1.00  0.00    -0.177 C  
HETATM    5  O   UNL     1      -9.864  11.782  68.558  1.00  0.00    -0.203 OA 
BRANCH   4   6
HETATM    6  C   UNL     1      -9.712   9.533  67.815  1.00  0.00    -0.147 A  
HETATM    7  C   UNL     1     -10.305   8.332  68.161  1.00  0.00    -0.202 A  
HETATM    8  N   UNL     1     -10.392   7.485  67.094  1.00  0.00    -0.283 NA 
HETATM    9  C   UNL     1      -9.858   8.142  66.093  1.00  0.00    -0.023 A  
HETATM   10  N   UNL     1      -9.442   9.392  66.463  1.00  0.00    -0.175 NA 
BRANCH  10  11
HETATM   11  C   UNL     1      -8.869  10.409  65.565  1.00  0.00    -0.176 C  
HETATM   12  C   UNL     1      -7.615  11.029  66.187  1.00  0.00    -0.084 C  
BRANCH  11  13
HETATM   13  C   UNL     1      -9.906  11.427  65.098  1.00  0.00    -0.302 A  
HETATM   14  C   UNL     1     -10.764  11.092  64.035  1.00  0.00    -0.409 A  
HETATM   15  C   UNL     1     -11.689  12.015  63.544  1.00  0.00    -0.566 A  
HETATM   16  C   UNL     1     -11.779  13.283  64.113  1.00  0.00    -0.470 A  
HETATM   17  C   UNL     1     -10.954  13.624  65.180  1.00  0.00    -0.334 A  
HETATM   18  C   UNL     1     -10.027  12.704  65.673  1.00  0.00    -0.253 A  
ENDBRANCH  11  13
ENDBRANCH  10  11
ENDBRANCH   4   6
ENDBRANCH   3   4
ENDBRANCH   2   3
TORSDOF 5
ENDMDL
MODEL      261
REMARK 921   NORMALIZED FREE ENERGY PREDICTED BY IDOCK:   -2.55 KCAL/MOL
REMARK 922        TOTAL FREE ENERGY PREDICTED BY IDOCK:   -3.85 KCAL/MOL
REMARK 923 INTER-LIGAND FREE ENERGY PREDICTED BY IDOCK:   -3.69 KCAL/MOL
REMARK 924 INTRA-LIGAND FREE ENERGY PREDICTED BY IDOCK:   -0.16 KCAL/MOL
REMARK 927      BINDING AFFINITY PREDICTED BY RF-SCORE:    0.00 PKD
ROOT
HETATM    1  C   UNL     1      -6.407   9.569  70.878  1.00  0.00    -0.089 C  
HETATM    2  C   UNL     1      -7.561   9.309  69.925  1.00  0.00    -0.093 C  
ENDROOT
BRANCH   2   3
HETATM    3  O   UNL     1      -8.763   9.236  70.705  1.00  0.00    -0.211 OA 
BRANCH   3   4
HETATM    4  C   UNL     1      -9.423   8.046  70.654  1.00  0.00    -0.162 C  
HETATM    5  O   UNL     1      -8.967   7.018  70.174  1.00  0.00    -0.145 OA 
BRANCH   4   6
HETATM    6  C   UNL     1     -10.680   8.169  71.345  1.00  0.00    -0.232 A  
HETATM    7  C   UNL     1     -11.871   8.702  70.887  1.00  0.00    -0.225 A  
HETATM    8  N   UNL     1     -12.834   8.695  71.855  1.00  0.00    -0.348 NA 
HETATM    9  C   UNL     1     -12.255   8.170  72.908  1.00  0.00     0.088 A  
HETATM   10  N   UNL     1     -10.957   7.818  72.657  1.00  0.00    -0.334 NA 
BRANCH  10  11
HETATM   11  C   UNL     1     -10.052   7.138  73.600  1.00  0.00    -0.346 C  
HETATM   12  C   UNL     1      -8.700   7.853  73.657  1.00  0.00    -0.329 C  
BRANCH  11  13
HETATM   13  C   UNL     1      -9.958   5.637  73.340  1.00  0.00    -0.186 A  
HETATM   14  C   UNL     1      -8.782   5.112  72.773  1.00  0.00    -0.119 A  
HETATM   15  C   UNL     1      -8.678   3.753  72.471  1.00  0.00    -0.104 A  
HETATM   16  C   UNL     1      -9.742   2.896  72.736  1.00  0.00    -0.182 A  
HETATM   17  C   UNL     1     -10.905   3.393  73.316  1.00  0.00    -0.287 A  
HETATM   18  C   UNL     1     -11.013   4.752  73.620  1.00  0.00    -0.391 A  
ENDBRANCH  11  13
ENDBRANCH  10  11
ENDBRANCH   4   6
ENDBRANCH   3   4
ENDBRANCH   2   3
TORSDOF 5
ENDMDL
MODEL      262
REMARK 921   NORMALIZED FREE ENERGY PREDICTED BY IDOCK:   -2.53 KCAL/MOL
REMARK 922        TOTAL FREE ENERGY PREDICTED BY IDOCK:   -3.81 KCAL/MOL
REMARK 923 INTER-LIGAND FREE ENERGY PREDICTED BY IDOCK:   -3.61 KCAL/MOL
REMARK 924 INTRA-LIGAND FREE ENERGY PREDICTED BY IDOCK:   -0.21 KCAL/MOL
REMARK 927      BINDING AFFINITY PREDICTED BY RF-SCORE:    0.00 PKD
ROOT
HETATM    1  C   UNL     1     -11.646  15.759  64.096  1.00  0.00    -0.079 C  
HETATM    2  C   UNL     1     -10.530  15.305  65.020  1.00  0.00    -0.382 C  
ENDROOT
BRANCH   2   3
HETATM    3  O   UNL     1     -10.611  16.086  66.220  1.00  0.00    -0.306 OA 
BRANCH   3   4
HETATM    4  C   UNL     1      -9.468  16.735  66.577  1.00  0.00    -0.266 C  
HETATM    5  O   UNL     1      -9.102  17.804  66.110  1.00  0.00    -0.457 OA 
BRANCH   4   6
HETATM    6  C   UNL     1      -8.832  16.021  67.653  1.00  0.00    -0.185 A  
HETATM    7  C   UNL     1      -9.382  15.101  68.526  1.00  0.00    -0.192 A  
HETATM    8  N   UNL     1      -8.475  14.678  69.454  1.00  0.00     0.022 NA 
HETATM    9  C   UNL     1      -7.371  15.326  69.172  1.00  0.00    -0.172 A  
HETATM   10  N   UNL     1      -7.520  16.143  68.083  1.00  0.00    -0.130 NA 
BRANCH  10  11
HETATM   11  C   UNL     1      -6.457  16.950  67.461  1.00  0.00    -0.146 C  
HETATM   12  C   UNL     1      -5.169  16.132  67.330  1.00  0.00    -0.100 C  
BRANCH  11  13
HETATM   13  C   UNL     1      -6.275  18.302  68.144  1.00  0.00    -0.183 A  
HETATM   14  C   UNL     1      -5.297  18.438  69.147  1.00  0.00    -0.198 A  
HETATM   15  C   UNL     1      -5.136  19.643  69.832  1.00  0.00    -0.199 A  
HETATM   16  C   UNL     1      -5.944  20.734  69.522  1.00  0.00    -0.234 A  
HETATM   17  C   UNL     1      -6.901  20.626  68.519  1.00  0.00    -0.112 A  
HETATM   18  C   UNL     1      -7.065  19.421  67.832  1.00  0.00    -0.290 A  
ENDBRANCH  11  13
ENDBRANCH  10  11
ENDBRANCH   4   6
ENDBRANCH   3   4
ENDBRANCH   2   3
TORSDOF 5
ENDMDL
MODEL      263
REMARK 921   NORMALIZED FREE ENERGY PREDICTED BY IDOCK:   -2.52 KCAL/MOL
REMARK 922        TOTAL FREE ENERGY PREDICTED BY IDOCK:   -3.81 KCAL/MOL
REMARK 923 INTER-LIGAND FREE ENERGY PREDICTED BY IDOCK:   -3.21 KCAL/MOL
REMARK 924 INTRA-LIGAND FREE ENERGY PREDICTED BY IDOCK:   -0.60 KCAL/MOL
REMARK 927      BINDING AFFINITY PREDICTED BY RF-SCORE:    0.00 PKD
ROOT
HETATM    1  C   UNL     1      -9.411  13.585  68.089  1.00  0.00    -0.214 C  
HETATM    2  C   UNL     1     -10.454  12.560  67.681  1.00  0.00    -0.217 C  
ENDROOT
BRANCH   2   3
HETATM    3  O   UNL     1     -10.278  11.403  68.510  1.00  0.00    -0.195 OA 
BRANCH   3   4
HETATM    4  C   UNL     1      -9.345  10.509  68.080  1.00  0.00    -0.145 C  
HETATM    5  O   UNL     1      -9.203  10.159  66.917  1.00  0.00    -0.144 OA 
BRANCH   4   6
HETATM    6  C   UNL     1      -8.500  10.135  69.183  1.00  0.00    -0.156 A  
HETATM    7  C   UNL     1      -7.360  10.762  69.652  1.00  0.00    -0.103 A  
HETATM    8  N   UNL     1      -6.795  10.076  70.688  1.00  0.00    -0.292 NA 
HETATM    9  C   UNL     1      -7.565   9.031  70.866  1.00  0.00    -0.124 A  
HETATM   10  N   UNL     1      -8.622   9.019  69.996  1.00  0.00    -0.137 NA 
BRANCH  10  11
HETATM   11  C   UNL     1      -9.711   8.027  69.979  1.00  0.00    -0.173 C  
HETATM   12  C   UNL     1      -9.698   7.192  71.262  1.00  0.00    -0.170 C  
BRANCH  11  13
HETATM   13  C   UNL     1      -9.731   7.204  68.694  1.00  0.00    -0.141 A  
HETATM   14  C   UNL     1     -10.968   6.857  68.120  1.00  0.00    -0.220 A  
HETATM   15  C   UNL     1     -11.028   6.061  66.976  1.00  0.00    -0.364 A  
HETATM   16  C   UNL     1      -9.855   5.604  66.381  1.00  0.00    -0.184 A  
HETATM   17  C   UNL     1      -8.622   5.955  66.921  1.00  0.00    -0.111 A  
HETATM   18  C   UNL     1      -8.558   6.752  68.066  1.00  0.00    -0.122 A  
ENDBRANCH  11  13
ENDBRANCH  10  11
ENDBRANCH   4   6
ENDBRANCH   3   4
ENDBRANCH   2   3
TORSDOF 5
ENDMDL
MODEL      264
REMARK 921   NORMALIZED FREE ENERGY PREDICTED BY IDOCK:   -2.52 KCAL/MOL
REMARK 922        TOTAL FREE ENERGY PREDICTED BY IDOCK:   -3.80 KCAL/MOL
REMARK 923 INTER-LIGAND FREE ENERGY PREDICTED BY IDOCK:   -3.41 KCAL/MOL
REMARK 924 INTRA-LIGAND FREE ENERGY PREDICTED BY IDOCK:   -0.39 KCAL/MOL
REMARK 927      BINDING AFFINITY PREDICTED BY RF-SCORE:    0.00 PKD
ROOT
HETATM    1  C   UNL     1      -5.617   8.635  71.437  1.00  0.00    -0.039 C  
HETATM    2  C   UNL     1      -6.507   9.007  70.265  1.00  0.00    -0.043 C  
ENDROOT
BRANCH   2   3
HETATM    3  O   UNL     1      -7.600   8.079  70.234  1.00  0.00    -0.078 OA 
BRANCH   3   4
HETATM    4  C   UNL     1      -8.836   8.622  70.413  1.00  0.00    -0.157 C  
HETATM    5  O   UNL     1      -9.045   9.752  70.832  1.00  0.00    -0.120 OA 
BRANCH   4   6
HETATM    6  C   UNL     1      -9.834   7.703  69.932  1.00  0.00    -0.184 A  
HETATM    7  C   UNL     1     -10.539   6.744  70.636  1.00  0.00    -0.224 A  
HETATM    8  N   UNL     1     -11.364   6.022  69.822  1.00  0.00    -0.380 NA 
HETATM    9  C   UNL     1     -11.178   6.518  68.623  1.00  0.00    -0.216 A  
HETATM   10  N   UNL     1     -10.276   7.548  68.627  1.00  0.00    -0.193 NA 
BRANCH  10  11
HETATM   11  C   UNL     1      -9.899   8.367  67.463  1.00  0.00    -0.181 C  
HETATM   12  C   UNL     1      -8.474   8.036  67.012  1.00  0.00    -0.120 C  
BRANCH  11  13
HETATM   13  C   UNL     1     -10.157   9.854  67.687  1.00  0.00    -0.241 A  
HETATM   14  C   UNL     1      -9.128  10.776  67.421  1.00  0.00    -0.148 A  
HETATM   15  C   UNL     1      -9.307  12.139  67.664  1.00  0.00    -0.187 A  
HETATM   16  C   UNL     1     -10.518  12.604  68.170  1.00  0.00    -0.239 A  
HETATM   17  C   UNL     1     -11.555  11.710  68.419  1.00  0.00    -0.376 A  
HETATM   18  C   UNL     1     -11.379  10.346  68.177  1.00  0.00    -0.284 A  
ENDBRANCH  11  13
ENDBRANCH  10  11
ENDBRANCH   4   6
ENDBRANCH   3   4
ENDBRANCH   2   3
TORSDOF 5
ENDMDL
MODEL      265
REMARK 921   NORMALIZED FREE ENERGY PREDICTED BY IDOCK:   -2.51 KCAL/MOL
REMARK 922        TOTAL FREE ENERGY PREDICTED BY IDOCK:   -3.80 KCAL/MOL
REMARK 923 INTER-LIGAND FREE ENERGY PREDICTED BY IDOCK:   -3.71 KCAL/MOL
REMARK 924 INTRA-LIGAND FREE ENERGY PREDICTED BY IDOCK:   -0.08 KCAL/MOL
REMARK 927      BINDING AFFINITY PREDICTED BY RF-SCORE:    0.00 PKD
ROOT
HETATM    1  C   UNL     1      -7.138   5.306  67.612  1.00  0.00    -0.067 C  
HETATM    2  C   UNL     1      -8.257   6.300  67.874  1.00  0.00    -0.114 C  
ENDROOT
BRANCH   2   3
HETATM    3  O   UNL     1      -8.209   6.656  69.262  1.00  0.00    -0.120 OA 
BRANCH   3   4
HETATM    4  C   UNL     1      -8.219   7.992  69.526  1.00  0.00    -0.122 C  
HETATM    5  O   UNL     1      -7.996   8.865  68.699  1.00  0.00    -0.100 OA 
BRANCH   4   6
HETATM    6  C   UNL     1      -8.637   8.206  70.887  1.00  0.00    -0.135 A  
HETATM    7  C   UNL     1      -7.859   8.295  72.027  1.00  0.00    -0.130 A  
HETATM    8  N   UNL     1      -8.621   8.447  73.149  1.00  0.00    -0.353 NA 
HETATM    9  C   UNL     1      -9.860   8.449  72.722  1.00  0.00    -0.218 A  
HETATM   10  N   UNL     1      -9.934   8.321  71.361  1.00  0.00    -0.183 NA 
BRANCH  10  11
HETATM   11  C   UNL     1     -11.168   8.361  70.558  1.00  0.00    -0.238 C  
HETATM   12  C   UNL     1     -11.361   7.043  69.804  1.00  0.00    -0.226 C  
BRANCH  11  13
HETATM   13  C   UNL     1     -11.253   9.606  69.678  1.00  0.00    -0.176 A  
HETATM   14  C   UNL     1     -11.073   9.476  68.289  1.00  0.00    -0.047 A  
HETATM   15  C   UNL     1     -11.090  10.598  67.458  1.00  0.00    -0.367 A  
HETATM   16  C   UNL     1     -11.294  11.864  67.999  1.00  0.00    -0.352 A  
HETATM   17  C   UNL     1     -11.496  12.009  69.368  1.00  0.00    -0.361 A  
HETATM   18  C   UNL     1     -11.480  10.890  70.202  1.00  0.00    -0.405 A  
ENDBRANCH  11  13
ENDBRANCH  10  11
ENDBRANCH   4   6
ENDBRANCH   3   4
ENDBRANCH   2   3
TORSDOF 5
ENDMDL
MODEL      266
REMARK 921   NORMALIZED FREE ENERGY PREDICTED BY IDOCK:   -2.51 KCAL/MOL
REMARK 922        TOTAL FREE ENERGY PREDICTED BY IDOCK:   -3.79 KCAL/MOL
REMARK 923 INTER-LIGAND FREE ENERGY PREDICTED BY IDOCK:   -3.42 KCAL/MOL
REMARK 924 INTRA-LIGAND FREE ENERGY PREDICTED BY IDOCK:   -0.37 KCAL/MOL
REMARK 927      BINDING AFFINITY PREDICTED BY RF-SCORE:    0.00 PKD
ROOT
HETATM    1  C   UNL     1     -12.037  13.823  67.014  1.00  0.00    -0.436 C  
HETATM    2  C   UNL     1     -11.949  13.108  68.350  1.00  0.00    -0.289 C  
ENDROOT
BRANCH   2   3
HETATM    3  O   UNL     1     -10.695  12.415  68.394  1.00  0.00    -0.220 OA 
BRANCH   3   4
HETATM    4  C   UNL     1     -10.770  11.058  68.300  1.00  0.00    -0.196 C  
HETATM    5  O   UNL     1     -11.536  10.454  67.562  1.00  0.00    -0.386 OA 
BRANCH   4   6
HETATM    6  C   UNL     1      -9.743  10.466  69.116  1.00  0.00    -0.220 A  
HETATM    7  C   UNL     1      -9.868   9.826  70.335  1.00  0.00    -0.209 A  
HETATM    8  N   UNL     1      -8.656   9.444  70.833  1.00  0.00    -0.277 NA 
HETATM    9  C   UNL     1      -7.781   9.841  69.942  1.00  0.00    -0.157 A  
HETATM   10  N   UNL     1      -8.378  10.453  68.873  1.00  0.00    -0.129 NA 
BRANCH  10  11
HETATM   11  C   UNL     1      -7.690  10.947  67.668  1.00  0.00    -0.108 C  
HETATM   12  C   UNL     1      -6.710   9.896  67.140  1.00  0.00    -0.074 C  
BRANCH  11  13
HETATM   13  C   UNL     1      -7.077  12.330  67.872  1.00  0.00    -0.105 A  
HETATM   14  C   UNL     1      -7.927  13.438  68.042  1.00  0.00    -0.148 A  
HETATM   15  C   UNL     1      -7.406  14.726  68.177  1.00  0.00    -0.122 A  
HETATM   16  C   UNL     1      -6.029  14.927  68.154  1.00  0.00    -0.145 A  
HETATM   17  C   UNL     1      -5.172  13.840  68.009  1.00  0.00    -0.105 A  
HETATM   18  C   UNL     1      -5.689  12.551  67.873  1.00  0.00    -0.093 A  
ENDBRANCH  11  13
ENDBRANCH  10  11
ENDBRANCH   4   6
ENDBRANCH   3   4
ENDBRANCH   2   3
TORSDOF 5
ENDMDL
MODEL      267
REMARK 921   NORMALIZED FREE ENERGY PREDICTED BY IDOCK:   -2.50 KCAL/MOL
REMARK 922        TOTAL FREE ENERGY PREDICTED BY IDOCK:   -3.78 KCAL/MOL
REMARK 923 INTER-LIGAND FREE ENERGY PREDICTED BY IDOCK:   -3.22 KCAL/MOL
REMARK 924 INTRA-LIGAND FREE ENERGY PREDICTED BY IDOCK:   -0.56 KCAL/MOL
REMARK 927      BINDING AFFINITY PREDICTED BY RF-SCORE:    0.00 PKD
ROOT
HETATM    1  C   UNL     1     -10.808   5.990  66.936  1.00  0.00    -0.396 C  
HETATM    2  C   UNL     1     -10.634   5.866  68.439  1.00  0.00    -0.250 C  
ENDROOT
BRANCH   2   3
HETATM    3  O   UNL     1     -10.984   7.128  69.024  1.00  0.00    -0.182 OA 
BRANCH   3   4
HETATM    4  C   UNL     1     -11.262   7.100  70.358  1.00  0.00    -0.287 C  
HETATM    5  O   UNL     1     -12.247   6.570  70.850  1.00  0.00    -0.329 OA 
BRANCH   4   6
HETATM    6  C   UNL     1     -10.169   7.691  71.085  1.00  0.00    -0.195 A  
HETATM    7  C   UNL     1      -9.765   9.013  71.116  1.00  0.00    -0.299 A  
HETATM    8  N   UNL     1      -8.646   9.182  71.881  1.00  0.00    -0.276 NA 
HETATM    9  C   UNL     1      -8.350   7.984  72.321  1.00  0.00    -0.144 A  
HETATM   10  N   UNL     1      -9.243   7.042  71.886  1.00  0.00    -0.141 NA 
BRANCH  10  11
HETATM   11  C   UNL     1      -9.240   5.616  72.258  1.00  0.00    -0.145 C  
HETATM   12  C   UNL     1      -8.852   5.446  73.728  1.00  0.00    -0.124 C  
BRANCH  11  13
HETATM   13  C   UNL     1      -8.425   4.763  71.290  1.00  0.00    -0.113 A  
HETATM   14  C   UNL     1      -8.847   3.450  71.011  1.00  0.00    -0.140 A  
HETATM   15  C   UNL     1      -8.099   2.620  70.174  1.00  0.00    -0.056 A  
HETATM   16  C   UNL     1      -6.923   3.090  69.596  1.00  0.00    -0.041 A  
HETATM   17  C   UNL     1      -6.502   4.393  69.842  1.00  0.00    -0.032 A  
HETATM   18  C   UNL     1      -7.247   5.226  70.679  1.00  0.00    -0.068 A  
ENDBRANCH  11  13
ENDBRANCH  10  11
ENDBRANCH   4   6
ENDBRANCH   3   4
ENDBRANCH   2   3
TORSDOF 5
ENDMDL
MODEL      268
REMARK 921   NORMALIZED FREE ENERGY PREDICTED BY IDOCK:   -2.49 KCAL/MOL
REMARK 922        TOTAL FREE ENERGY PREDICTED BY IDOCK:   -3.77 KCAL/MOL
REMARK 923 INTER-LIGAND FREE ENERGY PREDICTED BY IDOCK:   -3.31 KCAL/MOL
REMARK 924 INTRA-LIGAND FREE ENERGY PREDICTED BY IDOCK:   -0.46 KCAL/MOL
REMARK 927      BINDING AFFINITY PREDICTED BY RF-SCORE:    0.00 PKD
ROOT
HETATM    1  C   UNL     1     -14.331   7.664  71.732  1.00  0.00    -0.586 C  
HETATM    2  C   UNL     1     -13.169   6.844  71.200  1.00  0.00    -0.072 C  
ENDROOT
BRANCH   2   3
HETATM    3  O   UNL     1     -11.991   7.241  71.915  1.00  0.00    -0.287 OA 
BRANCH   3   4
HETATM    4  C   UNL     1     -11.000   7.788  71.158  1.00  0.00    -0.239 C  
HETATM    5  O   UNL     1     -11.151   8.731  70.394  1.00  0.00    -0.241 OA 
BRANCH   4   6
HETATM    6  C   UNL     1      -9.748   7.156  71.481  1.00  0.00    -0.164 A  
HETATM    7  C   UNL     1      -8.854   7.472  72.488  1.00  0.00    -0.132 A  
HETATM    8  N   UNL     1      -7.744   6.678  72.446  1.00  0.00    -0.095 NA 
HETATM    9  C   UNL     1      -7.936   5.877  71.426  1.00  0.00    -0.113 A  
HETATM   10  N   UNL     1      -9.137   6.108  70.811  1.00  0.00    -0.150 NA 
BRANCH  10  11
HETATM   11  C   UNL     1      -9.689   5.337  69.685  1.00  0.00    -0.182 C  
HETATM   12  C   UNL     1      -9.518   3.835  69.927  1.00  0.00    -0.267 C  
BRANCH  11  13
HETATM   13  C   UNL     1      -9.165   5.819  68.335  1.00  0.00    -0.121 A  
HETATM   14  C   UNL     1      -8.455   7.032  68.269  1.00  0.00    -0.123 A  
HETATM   15  C   UNL     1      -8.006   7.533  67.046  1.00  0.00    -0.116 A  
HETATM   16  C   UNL     1      -8.251   6.827  65.871  1.00  0.00    -0.132 A  
HETATM   17  C   UNL     1      -8.931   5.615  65.919  1.00  0.00    -0.160 A  
HETATM   18  C   UNL     1      -9.383   5.111  67.141  1.00  0.00    -0.129 A  
ENDBRANCH  11  13
ENDBRANCH  10  11
ENDBRANCH   4   6
ENDBRANCH   3   4
ENDBRANCH   2   3
TORSDOF 5
ENDMDL
MODEL      269
REMARK 921   NORMALIZED FREE ENERGY PREDICTED BY IDOCK:   -2.45 KCAL/MOL
REMARK 922        TOTAL FREE ENERGY PREDICTED BY IDOCK:   -3.72 KCAL/MOL
REMARK 923 INTER-LIGAND FREE ENERGY PREDICTED BY IDOCK:   -3.59 KCAL/MOL
REMARK 924 INTRA-LIGAND FREE ENERGY PREDICTED BY IDOCK:   -0.12 KCAL/MOL
REMARK 927      BINDING AFFINITY PREDICTED BY RF-SCORE:    0.00 PKD
ROOT
HETATM    1  C   UNL     1     -11.937  15.713  64.351  1.00  0.00    -0.139 C  
HETATM    2  C   UNL     1     -12.063  14.203  64.248  1.00  0.00    -0.444 C  
ENDROOT
BRANCH   2   3
HETATM    3  O   UNL     1     -12.101  13.676  65.581  1.00  0.00    -0.374 OA 
BRANCH   3   4
HETATM    4  C   UNL     1     -10.923  13.178  66.049  1.00  0.00    -0.279 C  
HETATM    5  O   UNL     1      -9.818  13.601  65.738  1.00  0.00    -0.274 OA 
BRANCH   4   6
HETATM    6  C   UNL     1     -11.192  12.165  67.035  1.00  0.00    -0.314 A  
HETATM    7  C   UNL     1     -12.184  12.136  67.998  1.00  0.00     0.288 A  
HETATM    8  N   UNL     1     -12.087  11.030  68.793  1.00  0.00    -0.535 NA 
HETATM    9  C   UNL     1     -11.046  10.375  68.338  1.00  0.00    -0.268 A  
HETATM   10  N   UNL     1     -10.472  11.004  67.266  1.00  0.00    -0.218 NA 
BRANCH  10  11
HETATM   11  C   UNL     1      -9.335  10.497  66.479  1.00  0.00    -0.163 C  
HETATM   12  C   UNL     1      -9.832   9.741  65.244  1.00  0.00    -0.335 C  
BRANCH  11  13
HETATM   13  C   UNL     1      -8.335   9.719  67.330  1.00  0.00    -0.114 A  
HETATM   14  C   UNL     1      -7.179  10.371  67.798  1.00  0.00    -0.086 A  
HETATM   15  C   UNL     1      -6.216   9.680  68.534  1.00  0.00    -0.047 A  
HETATM   16  C   UNL     1      -6.394   8.330  68.823  1.00  0.00    -0.049 A  
HETATM   17  C   UNL     1      -7.542   7.674  68.388  1.00  0.00    -0.113 A  
HETATM   18  C   UNL     1      -8.507   8.362  67.651  1.00  0.00    -0.130 A  
ENDBRANCH  11  13
ENDBRANCH  10  11
ENDBRANCH   4   6
ENDBRANCH   3   4
ENDBRANCH   2   3
TORSDOF 5
ENDMDL
MODEL      270
REMARK 921   NORMALIZED FREE ENERGY PREDICTED BY IDOCK:   -2.45 KCAL/MOL
REMARK 922        TOTAL FREE ENERGY PREDICTED BY IDOCK:   -3.71 KCAL/MOL
REMARK 923 INTER-LIGAND FREE ENERGY PREDICTED BY IDOCK:   -3.32 KCAL/MOL
REMARK 924 INTRA-LIGAND FREE ENERGY PREDICTED BY IDOCK:   -0.39 KCAL/MOL
REMARK 927      BINDING AFFINITY PREDICTED BY RF-SCORE:    0.00 PKD
ROOT
HETATM    1  C   UNL     1      -7.048  10.352  64.709  1.00  0.00    -0.033 C  
HETATM    2  C   UNL     1      -7.281   9.718  66.069  1.00  0.00    -0.101 C  
ENDROOT
BRANCH   2   3
HETATM    3  O   UNL     1      -8.353  10.428  66.703  1.00  0.00    -0.123 OA 
BRANCH   3   4
HETATM    4  C   UNL     1      -9.590   9.875  66.560  1.00  0.00    -0.190 C  
HETATM    5  O   UNL     1     -10.105   9.594  65.488  1.00  0.00    -0.290 OA 
BRANCH   4   6
HETATM    6  C   UNL     1     -10.133   9.580  67.860  1.00  0.00    -0.191 A  
HETATM    7  C   UNL     1     -10.707  10.445  68.775  1.00  0.00    -0.225 A  
HETATM    8  N   UNL     1     -11.057   9.803  69.928  1.00  0.00    -0.249 NA 
HETATM    9  C   UNL     1     -10.705   8.554  69.743  1.00  0.00    -0.213 A  
HETATM   10  N   UNL     1     -10.154   8.354  68.505  1.00  0.00    -0.192 NA 
BRANCH  10  11
HETATM   11  C   UNL     1      -9.723   7.058  67.955  1.00  0.00    -0.124 C  
HETATM   12  C   UNL     1     -10.775   6.508  66.988  1.00  0.00    -0.434 C  
BRANCH  11  13
HETATM   13  C   UNL     1      -9.294   6.075  69.041  1.00  0.00    -0.134 A  
HETATM   14  C   UNL     1     -10.123   4.977  69.338  1.00  0.00    -0.288 A  
HETATM   15  C   UNL     1      -9.792   4.087  70.361  1.00  0.00    -0.209 A  
HETATM   16  C   UNL     1      -8.626   4.274  71.098  1.00  0.00    -0.118 A  
HETATM   17  C   UNL     1      -7.784   5.341  70.805  1.00  0.00    -0.088 A  
HETATM   18  C   UNL     1      -8.111   6.234  69.783  1.00  0.00    -0.120 A  
ENDBRANCH  11  13
ENDBRANCH  10  11
ENDBRANCH   4   6
ENDBRANCH   3   4
ENDBRANCH   2   3
TORSDOF 5
ENDMDL
MODEL      271
REMARK 921   NORMALIZED FREE ENERGY PREDICTED BY IDOCK:   -2.43 KCAL/MOL
REMARK 922        TOTAL FREE ENERGY PREDICTED BY IDOCK:   -3.68 KCAL/MOL
REMARK 923 INTER-LIGAND FREE ENERGY PREDICTED BY IDOCK:   -3.45 KCAL/MOL
REMARK 924 INTRA-LIGAND FREE ENERGY PREDICTED BY IDOCK:   -0.23 KCAL/MOL
REMARK 927      BINDING AFFINITY PREDICTED BY RF-SCORE:    0.00 PKD
ROOT
HETATM    1  C   UNL     1      -6.525   7.893  70.335  1.00  0.00    -0.037 C  
HETATM    2  C   UNL     1      -6.762   8.847  71.493  1.00  0.00    -0.079 C  
ENDROOT
BRANCH   2   3
HETATM    3  O   UNL     1      -8.176   9.064  71.596  1.00  0.00    -0.330 OA 
BRANCH   3   4
HETATM    4  C   UNL     1      -8.833   9.228  70.414  1.00  0.00    -0.234 C  
HETATM    5  O   UNL     1      -8.497  10.009  69.536  1.00  0.00    -0.150 OA 
BRANCH   4   6
HETATM    6  C   UNL     1      -9.903   8.269  70.327  1.00  0.00    -0.184 A  
HETATM    7  C   UNL     1     -10.879   7.974  71.261  1.00  0.00    -0.232 A  
HETATM    8  N   UNL     1     -11.692   6.961  70.841  1.00  0.00    -0.342 NA 
HETATM    9  C   UNL     1     -11.232   6.621  69.661  1.00  0.00    -0.340 A  
HETATM   10  N   UNL     1     -10.159   7.387  69.289  1.00  0.00    -0.181 NA 
BRANCH  10  11
HETATM   11  C   UNL     1      -9.456   7.313  67.997  1.00  0.00    -0.136 C  
HETATM   12  C   UNL     1     -10.195   8.134  66.937  1.00  0.00    -0.387 C  
BRANCH  11  13
HETATM   13  C   UNL     1      -9.151   5.877  67.579  1.00  0.00    -0.106 A  
HETATM   14  C   UNL     1      -9.930   5.276  66.573  1.00  0.00    -0.228 A  
HETATM   15  C   UNL     1      -9.716   3.948  66.201  1.00  0.00    -0.173 A  
HETATM   16  C   UNL     1      -8.718   3.201  66.821  1.00  0.00    -0.135 A  
HETATM   17  C   UNL     1      -7.924   3.786  67.802  1.00  0.00    -0.085 A  
HETATM   18  C   UNL     1      -8.134   5.114  68.177  1.00  0.00    -0.094 A  
ENDBRANCH  11  13
ENDBRANCH  10  11
ENDBRANCH   4   6
ENDBRANCH   3   4
ENDBRANCH   2   3
TORSDOF 5
ENDMDL
MODEL      272
REMARK 921   NORMALIZED FREE ENERGY PREDICTED BY IDOCK:   -2.40 KCAL/MOL
REMARK 922        TOTAL FREE ENERGY PREDICTED BY IDOCK:   -3.65 KCAL/MOL
REMARK 923 INTER-LIGAND FREE ENERGY PREDICTED BY IDOCK:   -4.59 KCAL/MOL
REMARK 924 INTRA-LIGAND FREE ENERGY PREDICTED BY IDOCK:    0.94 KCAL/MOL
REMARK 927      BINDING AFFINITY PREDICTED BY RF-SCORE:    0.00 PKD
ROOT
HETATM    1  C   UNL     1     -11.271  15.799  64.582  1.00  0.00    -0.373 C  
HETATM    2  C   UNL     1     -11.991  14.500  64.269  1.00  0.00    -0.397 C  
ENDROOT
BRANCH   2   3
HETATM    3  O   UNL     1     -12.805  14.167  65.402  1.00  0.00    -0.637 OA 
BRANCH   3   4
HETATM    4  C   UNL     1     -12.245  13.301  66.292  1.00  0.00    -0.377 C  
HETATM    5  O   UNL     1     -12.493  13.279  67.489  1.00  0.00    -0.109 OA 
BRANCH   4   6
HETATM    6  C   UNL     1     -11.414  12.362  65.585  1.00  0.00    -0.367 A  
HETATM    7  C   UNL     1     -11.583  11.841  64.315  1.00  0.00    -0.277 A  
HETATM    8  N   UNL     1     -10.614  10.930  64.008  1.00  0.00    -0.333 NA 
HETATM    9  C   UNL     1      -9.849  10.876  65.071  1.00  0.00    -0.281 A  
HETATM   10  N   UNL     1     -10.273  11.730  66.053  1.00  0.00    -0.222 NA 
BRANCH  10  11
HETATM   11  C   UNL     1      -9.596  11.966  67.340  1.00  0.00    -0.174 C  
HETATM   12  C   UNL     1      -8.522  13.046  67.192  1.00  0.00    -0.176 C  
BRANCH  11  13
HETATM   13  C   UNL     1      -9.103  10.673  67.986  1.00  0.00    -0.147 A  
HETATM   14  C   UNL     1      -9.711  10.225  69.173  1.00  0.00    -0.229 A  
HETATM   15  C   UNL     1      -9.253   9.077  69.821  1.00  0.00    -0.172 A  
HETATM   16  C   UNL     1      -8.187   8.355  69.292  1.00  0.00    -0.116 A  
HETATM   17  C   UNL     1      -7.588   8.771  68.108  1.00  0.00    -0.097 A  
HETATM   18  C   UNL     1      -8.043   9.919  67.456  1.00  0.00    -0.110 A  
ENDBRANCH  11  13
ENDBRANCH  10  11
ENDBRANCH   4   6
ENDBRANCH   3   4
ENDBRANCH   2   3
TORSDOF 5
ENDMDL
MODEL      273
REMARK 921   NORMALIZED FREE ENERGY PREDICTED BY IDOCK:   -2.39 KCAL/MOL
REMARK 922        TOTAL FREE ENERGY PREDICTED BY IDOCK:   -3.64 KCAL/MOL
REMARK 923 INTER-LIGAND FREE ENERGY PREDICTED BY IDOCK:   -3.27 KCAL/MOL
REMARK 924 INTRA-LIGAND FREE ENERGY PREDICTED BY IDOCK:   -0.37 KCAL/MOL
REMARK 927      BINDING AFFINITY PREDICTED BY RF-SCORE:    0.00 PKD
ROOT
HETATM    1  C   UNL     1     -10.083  16.190  67.975  1.00  0.00    -0.242 C  
HETATM    2  C   UNL     1      -8.975  15.305  68.520  1.00  0.00    -0.187 C  
ENDROOT
BRANCH   2   3
HETATM    3  O   UNL     1      -8.836  14.185  67.635  1.00  0.00    -0.175 OA 
BRANCH   3   4
HETATM    4  C   UNL     1      -8.686  12.974  68.241  1.00  0.00    -0.173 C  
HETATM    5  O   UNL     1      -7.687  12.624  68.853  1.00  0.00    -0.040 OA 
BRANCH   4   6
HETATM    6  C   UNL     1      -9.915  12.233  68.135  1.00  0.00    -0.210 A  
HETATM    7  C   UNL     1     -11.197  12.631  68.466  1.00  0.00    -0.279 A  
HETATM    8  N   UNL     1     -12.103  11.628  68.279  1.00  0.00    -0.539 NA 
HETATM    9  C   UNL     1     -11.401  10.612  67.840  1.00  0.00    -0.268 A  
HETATM   10  N   UNL     1     -10.073  10.921  67.718  1.00  0.00    -0.174 NA 
BRANCH  10  11
HETATM   11  C   UNL     1      -9.027  10.031  67.184  1.00  0.00    -0.135 C  
HETATM   12  C   UNL     1      -9.623   9.050  66.171  1.00  0.00    -0.341 C  
BRANCH  11  13
HETATM   13  C   UNL     1      -8.203   9.372  68.286  1.00  0.00    -0.118 A  
HETATM   14  C   UNL     1      -8.867   8.749  69.360  1.00  0.00    -0.143 A  
HETATM   15  C   UNL     1      -8.148   8.183  70.413  1.00  0.00    -0.108 A  
HETATM   16  C   UNL     1      -6.756   8.222  70.409  1.00  0.00    -0.036 A  
HETATM   17  C   UNL     1      -6.082   8.813  69.346  1.00  0.00    -0.041 A  
HETATM   18  C   UNL     1      -6.798   9.381  68.290  1.00  0.00    -0.063 A  
ENDBRANCH  11  13
ENDBRANCH  10  11
ENDBRANCH   4   6
ENDBRANCH   3   4
ENDBRANCH   2   3
TORSDOF 5
ENDMDL
MODEL      274
REMARK 921   NORMALIZED FREE ENERGY PREDICTED BY IDOCK:   -2.38 KCAL/MOL
REMARK 922        TOTAL FREE ENERGY PREDICTED BY IDOCK:   -3.63 KCAL/MOL
REMARK 923 INTER-LIGAND FREE ENERGY PREDICTED BY IDOCK:   -3.40 KCAL/MOL
REMARK 924 INTRA-LIGAND FREE ENERGY PREDICTED BY IDOCK:   -0.23 KCAL/MOL
REMARK 927      BINDING AFFINITY PREDICTED BY RF-SCORE:    0.00 PKD
ROOT
HETATM    1  C   UNL     1     -10.838   6.692  67.190  1.00  0.00    -0.471 C  
HETATM    2  C   UNL     1     -11.271   6.021  68.482  1.00  0.00    -0.055 C  
ENDROOT
BRANCH   2   3
HETATM    3  O   UNL     1     -11.104   6.970  69.544  1.00  0.00    -0.238 OA 
BRANCH   3   4
HETATM    4  C   UNL     1     -11.359   6.501  70.797  1.00  0.00    -0.342 C  
HETATM    5  O   UNL     1     -12.436   6.595  71.368  1.00  0.00    -0.342 OA 
BRANCH   4   6
HETATM    6  C   UNL     1     -10.205   5.792  71.284  1.00  0.00    -0.215 A  
HETATM    7  C   UNL     1     -10.011   4.427  71.395  1.00  0.00    -0.178 A  
HETATM    8  N   UNL     1      -8.802   4.132  71.957  1.00  0.00    -0.109 NA 
HETATM    9  C   UNL     1      -8.245   5.294  72.198  1.00  0.00    -0.114 A  
HETATM   10  N   UNL     1      -9.039   6.336  71.799  1.00  0.00    -0.144 NA 
BRANCH  10  11
HETATM   11  C   UNL     1      -8.680   7.763  71.860  1.00  0.00    -0.118 C  
HETATM   12  C   UNL     1      -9.810   8.574  72.500  1.00  0.00    -0.324 C  
BRANCH  11  13
HETATM   13  C   UNL     1      -8.205   8.303  70.514  1.00  0.00    -0.114 A  
HETATM   14  C   UNL     1      -8.201   9.693  70.295  1.00  0.00    -0.217 A  
HETATM   15  C   UNL     1      -7.824  10.222  69.060  1.00  0.00    -0.114 A  
HETATM   16  C   UNL     1      -7.438   9.374  68.026  1.00  0.00    -0.080 A  
HETATM   17  C   UNL     1      -7.414   7.998  68.231  1.00  0.00    -0.100 A  
HETATM   18  C   UNL     1      -7.791   7.465  69.465  1.00  0.00    -0.121 A  
ENDBRANCH  11  13
ENDBRANCH  10  11
ENDBRANCH   4   6
ENDBRANCH   3   4
ENDBRANCH   2   3
TORSDOF 5
ENDMDL
MODEL      275
REMARK 921   NORMALIZED FREE ENERGY PREDICTED BY IDOCK:   -2.38 KCAL/MOL
REMARK 922        TOTAL FREE ENERGY PREDICTED BY IDOCK:   -3.62 KCAL/MOL
REMARK 923 INTER-LIGAND FREE ENERGY PREDICTED BY IDOCK:   -3.32 KCAL/MOL
REMARK 924 INTRA-LIGAND FREE ENERGY PREDICTED BY IDOCK:   -0.30 KCAL/MOL
REMARK 927      BINDING AFFINITY PREDICTED BY RF-SCORE:    0.00 PKD
ROOT
HETATM    1  C   UNL     1      -9.055  15.977  68.394  1.00  0.00    -0.192 C  
HETATM    2  C   UNL     1      -7.939  14.963  68.579  1.00  0.00    -0.140 C  
ENDROOT
BRANCH   2   3
HETATM    3  O   UNL     1      -8.544  13.687  68.823  1.00  0.00    -0.077 OA 
BRANCH   3   4
HETATM    4  C   UNL     1      -8.540  12.824  67.768  1.00  0.00    -0.184 C  
HETATM    5  O   UNL     1      -7.570  12.600  67.058  1.00  0.00    -0.105 OA 
BRANCH   4   6
HETATM    6  C   UNL     1      -9.810  12.151  67.698  1.00  0.00    -0.194 A  
HETATM    7  C   UNL     1     -10.648  11.774  68.732  1.00  0.00    -0.206 A  
HETATM    8  N   UNL     1     -11.745  11.102  68.275  1.00  0.00    -0.515 NA 
HETATM    9  C   UNL     1     -11.598  11.054  66.973  1.00  0.00     0.225 A  
HETATM   10  N   UNL     1     -10.454  11.684  66.563  1.00  0.00    -0.230 NA 
BRANCH  10  11
HETATM   11  C   UNL     1     -10.029  11.874  65.165  1.00  0.00    -0.247 C  
HETATM   12  C   UNL     1     -11.219  12.287  64.295  1.00  0.00    -0.409 C  
BRANCH  11  13
HETATM   13  C   UNL     1      -9.242  10.682  64.628  1.00  0.00    -0.262 A  
HETATM   14  C   UNL     1      -8.550  10.811  63.409  1.00  0.00    -0.085 A  
HETATM   15  C   UNL     1      -7.862   9.729  62.858  1.00  0.00    -0.131 A  
HETATM   16  C   UNL     1      -7.848   8.503  63.518  1.00  0.00    -0.151 A  
HETATM   17  C   UNL     1      -8.508   8.362  64.735  1.00  0.00    -0.120 A  
HETATM   18  C   UNL     1      -9.197   9.443  65.289  1.00  0.00    -0.299 A  
ENDBRANCH  11  13
ENDBRANCH  10  11
ENDBRANCH   4   6
ENDBRANCH   3   4
ENDBRANCH   2   3
TORSDOF 5
ENDMDL
MODEL      276
REMARK 921   NORMALIZED FREE ENERGY PREDICTED BY IDOCK:   -2.36 KCAL/MOL
REMARK 922        TOTAL FREE ENERGY PREDICTED BY IDOCK:   -3.60 KCAL/MOL
REMARK 923 INTER-LIGAND FREE ENERGY PREDICTED BY IDOCK:   -4.43 KCAL/MOL
REMARK 924 INTRA-LIGAND FREE ENERGY PREDICTED BY IDOCK:    0.83 KCAL/MOL
REMARK 927      BINDING AFFINITY PREDICTED BY RF-SCORE:    0.00 PKD
ROOT
HETATM    1  C   UNL     1      -8.565   7.575  70.462  1.00  0.00    -0.138 C  
HETATM    2  C   UNL     1      -8.669   9.038  70.855  1.00  0.00    -0.229 C  
ENDROOT
BRANCH   2   3
HETATM    3  O   UNL     1      -9.800   9.595  70.173  1.00  0.00    -0.233 OA 
BRANCH   3   4
HETATM    4  C   UNL     1      -9.676   9.704  68.821  1.00  0.00    -0.163 C  
HETATM    5  O   UNL     1     -10.350   9.085  68.009  1.00  0.00    -0.206 OA 
BRANCH   4   6
HETATM    6  C   UNL     1      -8.713  10.728  68.512  1.00  0.00    -0.149 A  
HETATM    7  C   UNL     1      -7.349  10.604  68.317  1.00  0.00    -0.089 A  
HETATM    8  N   UNL     1      -6.758  11.814  68.096  1.00  0.00    -0.061 NA 
HETATM    9  C   UNL     1      -7.734  12.687  68.154  1.00  0.00    -0.142 A  
HETATM   10  N   UNL     1      -8.943  12.089  68.388  1.00  0.00    -0.178 NA 
BRANCH  10  11
HETATM   11  C   UNL     1     -10.246  12.774  68.438  1.00  0.00    -0.236 C  
HETATM   12  C   UNL     1     -11.231  11.991  69.311  1.00  0.00    -0.291 C  
BRANCH  11  13
HETATM   13  C   UNL     1     -10.777  13.120  67.050  1.00  0.00    -0.270 A  
HETATM   14  C   UNL     1     -10.530  14.401  66.522  1.00  0.00    -0.289 A  
HETATM   15  C   UNL     1     -11.044  14.774  65.279  1.00  0.00    -0.374 A  
HETATM   16  C   UNL     1     -11.806  13.872  64.540  1.00  0.00    -0.449 A  
HETATM   17  C   UNL     1     -12.041  12.594  65.036  1.00  0.00    -0.497 A  
HETATM   18  C   UNL     1     -11.529  12.218  66.279  1.00  0.00    -0.435 A  
ENDBRANCH  11  13
ENDBRANCH  10  11
ENDBRANCH   4   6
ENDBRANCH   3   4
ENDBRANCH   2   3
TORSDOF 5
ENDMDL
MODEL      277
REMARK 921   NORMALIZED FREE ENERGY PREDICTED BY IDOCK:   -2.35 KCAL/MOL
REMARK 922        TOTAL FREE ENERGY PREDICTED BY IDOCK:   -3.59 KCAL/MOL
REMARK 923 INTER-LIGAND FREE ENERGY PREDICTED BY IDOCK:   -3.05 KCAL/MOL
REMARK 924 INTRA-LIGAND FREE ENERGY PREDICTED BY IDOCK:   -0.54 KCAL/MOL
REMARK 927      BINDING AFFINITY PREDICTED BY RF-SCORE:    0.00 PKD
ROOT
HETATM    1  C   UNL     1     -10.714   2.358  63.353  1.00  0.00    -0.208 C  
HETATM    2  C   UNL     1     -10.455   3.798  63.759  1.00  0.00    -0.249 C  
ENDROOT
BRANCH   2   3
HETATM    3  O   UNL     1      -9.629   3.780  64.931  1.00  0.00    -0.157 OA 
BRANCH   3   4
HETATM    4  C   UNL     1      -9.839   4.796  65.813  1.00  0.00    -0.199 C  
HETATM    5  O   UNL     1     -10.931   5.105  66.269  1.00  0.00    -0.236 OA 
BRANCH   4   6
HETATM    6  C   UNL     1      -8.574   5.365  66.196  1.00  0.00    -0.126 A  
HETATM    7  C   UNL     1      -7.501   4.750  66.816  1.00  0.00    -0.086 A  
HETATM    8  N   UNL     1      -6.490   5.632  67.070  1.00  0.00    -0.042 NA 
HETATM    9  C   UNL     1      -6.923   6.785  66.621  1.00  0.00    -0.066 A  
HETATM   10  N   UNL     1      -8.170   6.685  66.067  1.00  0.00    -0.122 NA 
BRANCH  10  11
HETATM   11  C   UNL     1      -8.910   7.774  65.407  1.00  0.00     0.049 C  
HETATM   12  C   UNL     1      -8.035   8.454  64.350  1.00  0.00    -0.148 C  
BRANCH  11  13
HETATM   13  C   UNL     1      -9.548   8.735  66.407  1.00  0.00    -0.316 A  
HETATM   14  C   UNL     1     -10.213   8.213  67.531  1.00  0.00    -0.309 A  
HETATM   15  C   UNL     1     -10.854   9.057  68.439  1.00  0.00    -0.062 A  
HETATM   16  C   UNL     1     -10.835  10.435  68.244  1.00  0.00    -0.299 A  
HETATM   17  C   UNL     1     -10.163  10.971  67.150  1.00  0.00    -0.243 A  
HETATM   18  C   UNL     1      -9.521  10.130  66.239  1.00  0.00    -0.229 A  
ENDBRANCH  11  13
ENDBRANCH  10  11
ENDBRANCH   4   6
ENDBRANCH   3   4
ENDBRANCH   2   3
TORSDOF 5
ENDMDL
MODEL      278
REMARK 921   NORMALIZED FREE ENERGY PREDICTED BY IDOCK:   -2.34 KCAL/MOL
REMARK 922        TOTAL FREE ENERGY PREDICTED BY IDOCK:   -3.57 KCAL/MOL
REMARK 923 INTER-LIGAND FREE ENERGY PREDICTED BY IDOCK:   -3.20 KCAL/MOL
REMARK 924 INTRA-LIGAND FREE ENERGY PREDICTED BY IDOCK:   -0.37 KCAL/MOL
REMARK 927      BINDING AFFINITY PREDICTED BY RF-SCORE:    0.00 PKD
ROOT
HETATM    1  C   UNL     1      -7.026  10.212  64.828  1.00  0.00    -0.126 C  
HETATM    2  C   UNL     1      -7.300  10.052  66.313  1.00  0.00    -0.106 C  
ENDROOT
BRANCH   2   3
HETATM    3  O   UNL     1      -7.559  11.355  66.852  1.00  0.00    -0.139 OA 
BRANCH   3   4
HETATM    4  C   UNL     1      -8.840  11.581  67.256  1.00  0.00    -0.160 C  
HETATM    5  O   UNL     1      -9.424  10.928  68.109  1.00  0.00    -0.155 OA 
BRANCH   4   6
HETATM    6  C   UNL     1      -9.345  12.759  66.602  1.00  0.00    -0.242 A  
HETATM    7  C   UNL     1     -10.241  12.850  65.553  1.00  0.00    -0.287 A  
HETATM    8  N   UNL     1     -10.437  14.145  65.166  1.00  0.00    -0.378 NA 
HETATM    9  C   UNL     1      -9.674  14.857  65.958  1.00  0.00    -0.328 A  
HETATM   10  N   UNL     1      -9.000  14.077  66.859  1.00  0.00    -0.239 NA 
BRANCH  10  11
HETATM   11  C   UNL     1      -8.119  14.567  67.933  1.00  0.00    -0.148 C  
HETATM   12  C   UNL     1      -8.798  14.413  69.296  1.00  0.00     0.193 C  
BRANCH  11  13
HETATM   13  C   UNL     1      -7.583  15.969  67.654  1.00  0.00    -0.166 A  
HETATM   14  C   UNL     1      -8.028  17.043  68.447  1.00  0.00    -0.239 A  
HETATM   15  C   UNL     1      -7.602  18.347  68.189  1.00  0.00    -0.287 A  
HETATM   16  C   UNL     1      -6.720  18.599  67.141  1.00  0.00    -0.206 A  
HETATM   17  C   UNL     1      -6.253  17.546  66.360  1.00  0.00    -0.262 A  
HETATM   18  C   UNL     1      -6.677  16.241  66.615  1.00  0.00     0.075 A  
ENDBRANCH  11  13
ENDBRANCH  10  11
ENDBRANCH   4   6
ENDBRANCH   3   4
ENDBRANCH   2   3
TORSDOF 5
ENDMDL
MODEL      279
REMARK 921   NORMALIZED FREE ENERGY PREDICTED BY IDOCK:   -2.30 KCAL/MOL
REMARK 922        TOTAL FREE ENERGY PREDICTED BY IDOCK:   -3.52 KCAL/MOL
REMARK 923 INTER-LIGAND FREE ENERGY PREDICTED BY IDOCK:   -3.41 KCAL/MOL
REMARK 924 INTRA-LIGAND FREE ENERGY PREDICTED BY IDOCK:   -0.11 KCAL/MOL
REMARK 927      BINDING AFFINITY PREDICTED BY RF-SCORE:    0.00 PKD
ROOT
HETATM    1  C   UNL     1     -10.113   3.806  64.972  1.00  0.00    -0.119 C  
HETATM    2  C   UNL     1     -10.456   4.933  65.930  1.00  0.00    -0.239 C  
ENDROOT
BRANCH   2   3
HETATM    3  O   UNL     1      -9.225   5.463  66.439  1.00  0.00    -0.137 OA 
BRANCH   3   4
HETATM    4  C   UNL     1      -9.348   6.346  67.469  1.00  0.00    -0.118 C  
HETATM    5  O   UNL     1     -10.365   6.972  67.730  1.00  0.00    -0.172 OA 
BRANCH   4   6
HETATM    6  C   UNL     1      -8.139   6.337  68.251  1.00  0.00    -0.112 A  
HETATM    7  C   UNL     1      -6.876   6.777  67.897  1.00  0.00    -0.077 A  
HETATM    8  N   UNL     1      -5.966   6.553  68.889  1.00  0.00    -0.021 NA 
HETATM    9  C   UNL     1      -6.645   5.978  69.851  1.00  0.00    -0.047 A  
HETATM   10  N   UNL     1      -7.968   5.834  69.531  1.00  0.00    -0.095 NA 
BRANCH  10  11
HETATM   11  C   UNL     1      -9.015   5.295  70.416  1.00  0.00    -0.128 C  
HETATM   12  C   UNL     1      -9.732   4.121  69.746  1.00  0.00    -0.278 C  
BRANCH  11  13
HETATM   13  C   UNL     1      -9.947   6.381  70.946  1.00  0.00    -0.211 A  
HETATM   14  C   UNL     1      -9.465   7.698  71.069  1.00  0.00    -0.164 A  
HETATM   15  C   UNL     1     -10.271   8.707  71.599  1.00  0.00    -0.366 A  
HETATM   16  C   UNL     1     -11.571   8.421  72.006  1.00  0.00    -0.418 A  
HETATM   17  C   UNL     1     -12.072   7.130  71.871  1.00  0.00    -0.357 A  
HETATM   18  C   UNL     1     -11.269   6.118  71.342  1.00  0.00    -0.346 A  
ENDBRANCH  11  13
ENDBRANCH  10  11
ENDBRANCH   4   6
ENDBRANCH   3   4
ENDBRANCH   2   3
TORSDOF 5
ENDMDL
MODEL      280
REMARK 921   NORMALIZED FREE ENERGY PREDICTED BY IDOCK:   -2.28 KCAL/MOL
REMARK 922        TOTAL FREE ENERGY PREDICTED BY IDOCK:   -3.50 KCAL/MOL
REMARK 923 INTER-LIGAND FREE ENERGY PREDICTED BY IDOCK:   -2.97 KCAL/MOL
REMARK 924 INTRA-LIGAND FREE ENERGY PREDICTED BY IDOCK:   -0.53 KCAL/MOL
REMARK 927      BINDING AFFINITY PREDICTED BY RF-SCORE:    0.00 PKD
ROOT
HETATM    1  C   UNL     1     -11.088   1.488  62.896  1.00  0.00    -0.223 C  
HETATM    2  C   UNL     1     -11.099   2.999  62.745  1.00  0.00    -0.052 C  
ENDROOT
BRANCH   2   3
HETATM    3  O   UNL     1     -10.764   3.567  64.018  1.00  0.00    -0.259 OA 
BRANCH   3   4
HETATM    4  C   UNL     1      -9.528   4.132  64.102  1.00  0.00    -0.156 C  
HETATM    5  O   UNL     1      -9.083   4.951  63.310  1.00  0.00    -0.091 OA 
BRANCH   4   6
HETATM    6  C   UNL     1      -8.886   3.696  65.314  1.00  0.00    -0.122 A  
HETATM    7  C   UNL     1      -8.422   2.436  65.643  1.00  0.00    -0.102 A  
HETATM    8  N   UNL     1      -7.920   2.396  66.912  1.00  0.00    -0.071 NA 
HETATM    9  C   UNL     1      -8.069   3.613  67.375  1.00  0.00    -0.090 A  
HETATM   10  N   UNL     1      -8.633   4.449  66.450  1.00  0.00    -0.112 NA 
BRANCH  10  11
HETATM   11  C   UNL     1      -8.869   5.893  66.625  1.00  0.00    -0.123 C  
HETATM   12  C   UNL     1      -7.613   6.689  66.261  1.00  0.00    -0.090 C  
BRANCH  11  13
HETATM   13  C   UNL     1      -9.450   6.228  67.995  1.00  0.00    -0.116 A  
HETATM   14  C   UNL     1      -8.578   6.582  69.042  1.00  0.00    -0.125 A  
HETATM   15  C   UNL     1      -9.067   6.843  70.323  1.00  0.00    -0.153 A  
HETATM   16  C   UNL     1     -10.434   6.763  70.578  1.00  0.00    -0.238 A  
HETATM   17  C   UNL     1     -11.313   6.436  69.551  1.00  0.00    -0.460 A  
HETATM   18  C   UNL     1     -10.828   6.174  68.268  1.00  0.00    -0.387 A  
ENDBRANCH  11  13
ENDBRANCH  10  11
ENDBRANCH   4   6
ENDBRANCH   3   4
ENDBRANCH   2   3
TORSDOF 5
ENDMDL
MODEL      281
REMARK 921   NORMALIZED FREE ENERGY PREDICTED BY IDOCK:   -2.27 KCAL/MOL
REMARK 922        TOTAL FREE ENERGY PREDICTED BY IDOCK:   -3.49 KCAL/MOL
REMARK 923 INTER-LIGAND FREE ENERGY PREDICTED BY IDOCK:   -3.10 KCAL/MOL
REMARK 924 INTRA-LIGAND FREE ENERGY PREDICTED BY IDOCK:   -0.39 KCAL/MOL
REMARK 927      BINDING AFFINITY PREDICTED BY RF-SCORE:    0.00 PKD
ROOT
HETATM    1  C   UNL     1      -5.823   9.784  70.625  1.00  0.00    -0.072 C  
HETATM    2  C   UNL     1      -7.147  10.371  70.169  1.00  0.00    -0.117 C  
ENDROOT
BRANCH   2   3
HETATM    3  O   UNL     1      -8.018   9.280  69.841  1.00  0.00    -0.087 OA 
BRANCH   3   4
HETATM    4  C   UNL     1      -9.346   9.580  69.802  1.00  0.00    -0.211 C  
HETATM    5  O   UNL     1      -9.802  10.673  69.499  1.00  0.00    -0.187 OA 
BRANCH   4   6
HETATM    6  C   UNL     1     -10.112   8.390  70.064  1.00  0.00    -0.192 A  
HETATM    7  C   UNL     1     -10.614   7.932  71.269  1.00  0.00    -0.211 A  
HETATM    8  N   UNL     1     -11.244   6.728  71.130  1.00  0.00    -0.269 NA 
HETATM    9  C   UNL     1     -11.136   6.432  69.857  1.00  0.00    -0.381 A  
HETATM   10  N   UNL     1     -10.474   7.405  69.158  1.00  0.00    -0.211 NA 
BRANCH  10  11
HETATM   11  C   UNL     1     -10.249   7.418  67.703  1.00  0.00    -0.201 C  
HETATM   12  C   UNL     1     -10.952   6.229  67.041  1.00  0.00    -0.442 C  
BRANCH  11  13
HETATM   13  C   UNL     1      -8.773   7.554  67.342  1.00  0.00    -0.124 A  
HETATM   14  C   UNL     1      -7.852   6.622  67.855  1.00  0.00    -0.112 A  
HETATM   15  C   UNL     1      -6.487   6.744  67.591  1.00  0.00    -0.049 A  
HETATM   16  C   UNL     1      -6.020   7.794  66.805  1.00  0.00    -0.047 A  
HETATM   17  C   UNL     1      -6.917   8.713  66.271  1.00  0.00    -0.077 A  
HETATM   18  C   UNL     1      -8.284   8.594  66.532  1.00  0.00    -0.107 A  
ENDBRANCH  11  13
ENDBRANCH  10  11
ENDBRANCH   4   6
ENDBRANCH   3   4
ENDBRANCH   2   3
TORSDOF 5
ENDMDL
MODEL      282
REMARK 921   NORMALIZED FREE ENERGY PREDICTED BY IDOCK:   -2.23 KCAL/MOL
REMARK 922        TOTAL FREE ENERGY PREDICTED BY IDOCK:   -3.43 KCAL/MOL
REMARK 923 INTER-LIGAND FREE ENERGY PREDICTED BY IDOCK:   -2.94 KCAL/MOL
REMARK 924 INTRA-LIGAND FREE ENERGY PREDICTED BY IDOCK:   -0.49 KCAL/MOL
REMARK 927      BINDING AFFINITY PREDICTED BY RF-SCORE:    0.00 PKD
ROOT
HETATM    1  C   UNL     1      -9.248  10.607  68.011  1.00  0.00    -0.148 C  
HETATM    2  C   UNL     1      -9.630  10.337  69.456  1.00  0.00    -0.202 C  
ENDROOT
BRANCH   2   3
HETATM    3  O   UNL     1      -8.841   9.231  69.916  1.00  0.00    -0.154 OA 
BRANCH   3   4
HETATM    4  C   UNL     1      -7.658   9.559  70.506  1.00  0.00    -0.149 C  
HETATM    5  O   UNL     1      -7.266  10.704  70.688  1.00  0.00    -0.078 OA 
BRANCH   4   6
HETATM    6  C   UNL     1      -7.007   8.362  70.968  1.00  0.00    -0.056 A  
HETATM    7  C   UNL     1      -5.950   7.676  70.399  1.00  0.00    -0.030 A  
HETATM    8  N   UNL     1      -5.643   6.546  71.100  1.00  0.00    -0.026 NA 
HETATM    9  C   UNL     1      -6.497   6.519  72.094  1.00  0.00    -0.054 A  
HETATM   10  N   UNL     1      -7.339   7.598  72.077  1.00  0.00    -0.068 NA 
BRANCH  10  11
HETATM   11  C   UNL     1      -8.363   7.908  73.089  1.00  0.00    -0.179 C  
HETATM   12  C   UNL     1      -7.706   8.335  74.404  1.00  0.00    -0.291 C  
BRANCH  11  13
HETATM   13  C   UNL     1      -9.394   6.793  73.236  1.00  0.00    -0.157 A  
HETATM   14  C   UNL     1     -10.544   6.812  72.426  1.00  0.00    -0.242 A  
HETATM   15  C   UNL     1     -11.535   5.839  72.568  1.00  0.00    -0.349 A  
HETATM   16  C   UNL     1     -11.391   4.829  73.514  1.00  0.00    -0.340 A  
HETATM   17  C   UNL     1     -10.251   4.781  74.309  1.00  0.00    -0.289 A  
HETATM   18  C   UNL     1      -9.257   5.752  74.170  1.00  0.00    -0.128 A  
ENDBRANCH  11  13
ENDBRANCH  10  11
ENDBRANCH   4   6
ENDBRANCH   3   4
ENDBRANCH   2   3
TORSDOF 5
ENDMDL
MODEL      283
REMARK 921   NORMALIZED FREE ENERGY PREDICTED BY IDOCK:   -2.19 KCAL/MOL
REMARK 922        TOTAL FREE ENERGY PREDICTED BY IDOCK:   -3.38 KCAL/MOL
REMARK 923 INTER-LIGAND FREE ENERGY PREDICTED BY IDOCK:   -2.95 KCAL/MOL
REMARK 924 INTRA-LIGAND FREE ENERGY PREDICTED BY IDOCK:   -0.43 KCAL/MOL
REMARK 927      BINDING AFFINITY PREDICTED BY RF-SCORE:    0.00 PKD
ROOT
HETATM    1  C   UNL     1      -5.194   8.668  70.604  1.00  0.00    -0.021 C  
HETATM    2  C   UNL     1      -6.493   8.723  71.388  1.00  0.00    -0.071 C  
ENDROOT
BRANCH   2   3
HETATM    3  O   UNL     1      -7.560   8.385  70.492  1.00  0.00    -0.067 OA 
BRANCH   3   4
HETATM    4  C   UNL     1      -7.975   9.388  69.669  1.00  0.00    -0.109 C  
HETATM    5  O   UNL     1      -7.991  10.573  69.971  1.00  0.00    -0.031 OA 
BRANCH   4   6
HETATM    6  C   UNL     1      -8.283   8.844  68.372  1.00  0.00    -0.117 A  
HETATM    7  C   UNL     1      -7.415   8.394  67.394  1.00  0.00    -0.093 A  
HETATM    8  N   UNL     1      -8.080   7.999  66.269  1.00  0.00    -0.108 NA 
HETATM    9  C   UNL     1      -9.347   8.202  66.534  1.00  0.00    -0.206 A  
HETATM   10  N   UNL     1      -9.535   8.698  67.797  1.00  0.00    -0.140 NA 
BRANCH  10  11
HETATM   11  C   UNL     1     -10.837   8.966  68.431  1.00  0.00     0.010 C  
HETATM   12  C   UNL     1     -11.044  10.471  68.617  1.00  0.00    -0.319 C  
BRANCH  11  13
HETATM   13  C   UNL     1     -11.048   8.142  69.699  1.00  0.00    -0.015 A  
HETATM   14  C   UNL     1     -10.902   6.744  69.640  1.00  0.00    -0.314 A  
HETATM   15  C   UNL     1     -11.139   5.952  70.765  1.00  0.00    -0.324 A  
HETATM   16  C   UNL     1     -11.518   6.543  71.967  1.00  0.00    -0.342 A  
HETATM   17  C   UNL     1     -11.646   7.926  72.050  1.00  0.00    -0.357 A  
HETATM   18  C   UNL     1     -11.410   8.721  70.927  1.00  0.00    -0.322 A  
ENDBRANCH  11  13
ENDBRANCH  10  11
ENDBRANCH   4   6
ENDBRANCH   3   4
ENDBRANCH   2   3
TORSDOF 5
ENDMDL
MODEL      284
REMARK 921   NORMALIZED FREE ENERGY PREDICTED BY IDOCK:   -2.15 KCAL/MOL
REMARK 922        TOTAL FREE ENERGY PREDICTED BY IDOCK:   -3.33 KCAL/MOL
REMARK 923 INTER-LIGAND FREE ENERGY PREDICTED BY IDOCK:   -2.52 KCAL/MOL
REMARK 924 INTRA-LIGAND FREE ENERGY PREDICTED BY IDOCK:   -0.81 KCAL/MOL
REMARK 927      BINDING AFFINITY PREDICTED BY RF-SCORE:    0.00 PKD
ROOT
HETATM    1  C   UNL     1      -6.080   5.998  69.684  1.00  0.00    -0.026 C  
HETATM    2  C   UNL     1      -7.009   7.147  70.034  1.00  0.00    -0.061 C  
ENDROOT
BRANCH   2   3
HETATM    3  O   UNL     1      -8.243   6.585  70.500  1.00  0.00    -0.115 OA 
BRANCH   3   4
HETATM    4  C   UNL     1      -9.035   6.030  69.541  1.00  0.00    -0.131 C  
HETATM    5  O   UNL     1      -9.384   4.858  69.520  1.00  0.00    -0.110 OA 
BRANCH   4   6
HETATM    6  C   UNL     1      -9.475   7.057  68.634  1.00  0.00    -0.135 A  
HETATM    7  C   UNL     1     -10.409   8.056  68.844  1.00  0.00    -0.209 A  
HETATM    8  N   UNL     1     -10.602   8.812  67.723  1.00  0.00    -0.224 NA 
HETATM    9  C   UNL     1      -9.804   8.294  66.821  1.00  0.00    -0.263 A  
HETATM   10  N   UNL     1      -9.085   7.240  67.316  1.00  0.00    -0.122 NA 
BRANCH  10  11
HETATM   11  C   UNL     1      -8.050   6.486  66.588  1.00  0.00    -0.110 C  
HETATM   12  C   UNL     1      -6.939   7.424  66.110  1.00  0.00    -0.065 C  
BRANCH  11  13
HETATM   13  C   UNL     1      -8.637   5.598  65.493  1.00  0.00    -0.151 A  
HETATM   14  C   UNL     1      -8.048   5.607  64.215  1.00  0.00    -0.127 A  
HETATM   15  C   UNL     1      -8.587   4.850  63.174  1.00  0.00    -0.116 A  
HETATM   16  C   UNL     1      -9.717   4.066  63.394  1.00  0.00    -0.143 A  
HETATM   17  C   UNL     1     -10.299   4.027  64.657  1.00  0.00    -0.220 A  
HETATM   18  C   UNL     1      -9.763   4.783  65.701  1.00  0.00    -0.188 A  
ENDBRANCH  11  13
ENDBRANCH  10  11
ENDBRANCH   4   6
ENDBRANCH   3   4
ENDBRANCH   2   3
TORSDOF 5
ENDMDL
MODEL      285
REMARK 921   NORMALIZED FREE ENERGY PREDICTED BY IDOCK:   -2.04 KCAL/MOL
REMARK 922        TOTAL FREE ENERGY PREDICTED BY IDOCK:   -3.19 KCAL/MOL
REMARK 923 INTER-LIGAND FREE ENERGY PREDICTED BY IDOCK:   -3.55 KCAL/MOL
REMARK 924 INTRA-LIGAND FREE ENERGY PREDICTED BY IDOCK:    0.36 KCAL/MOL
REMARK 927      BINDING AFFINITY PREDICTED BY RF-SCORE:    0.00 PKD
ROOT
HETATM    1  C   UNL     1      -6.206  10.026  69.844  1.00  0.00    -0.060 C  
HETATM    2  C   UNL     1      -7.691   9.728  69.729  1.00  0.00    -0.143 C  
ENDROOT
BRANCH   2   3
HETATM    3  O   UNL     1      -8.321  10.873  69.139  1.00  0.00    -0.141 OA 
BRANCH   3   4
HETATM    4  C   UNL     1      -9.683  10.854  69.131  1.00  0.00    -0.122 C  
HETATM    5  O   UNL     1     -10.374  10.237  69.929  1.00  0.00    -0.255 OA 
BRANCH   4   6
HETATM    6  C   UNL     1     -10.167  11.750  68.114  1.00  0.00    -0.203 A  
HETATM    7  C   UNL     1     -10.438  13.103  68.211  1.00  0.00    -0.250 A  
HETATM    8  N   UNL     1     -10.937  13.604  67.043  1.00  0.00    -0.286 NA 
HETATM    9  C   UNL     1     -10.983  12.581  66.225  1.00  0.00    -0.277 A  
HETATM   10  N   UNL     1     -10.516  11.435  66.810  1.00  0.00    -0.234 NA 
BRANCH  10  11
HETATM   11  C   UNL     1     -10.364  10.129  66.146  1.00  0.00    -0.167 C  
HETATM   12  C   UNL     1     -10.452   8.993  67.168  1.00  0.00    -0.333 C  
BRANCH  11  13
HETATM   13  C   UNL     1      -9.131  10.071  65.248  1.00  0.00    -0.243 A  
HETATM   14  C   UNL     1      -7.854  10.177  65.829  1.00  0.00    -0.139 A  
HETATM   15  C   UNL     1      -6.705  10.182  65.036  1.00  0.00    -0.127 A  
HETATM   16  C   UNL     1      -6.812  10.074  63.652  1.00  0.00    -0.130 A  
HETATM   17  C   UNL     1      -8.065   9.946  63.062  1.00  0.00    -0.147 A  
HETATM   18  C   UNL     1      -9.216   9.941  63.851  1.00  0.00    -0.295 A  
ENDBRANCH  11  13
ENDBRANCH  10  11
ENDBRANCH   4   6
ENDBRANCH   3   4
ENDBRANCH   2   3
TORSDOF 5
ENDMDL
MODEL      286
REMARK 921   NORMALIZED FREE ENERGY PREDICTED BY IDOCK:   -2.03 KCAL/MOL
REMARK 922        TOTAL FREE ENERGY PREDICTED BY IDOCK:   -3.17 KCAL/MOL
REMARK 923 INTER-LIGAND FREE ENERGY PREDICTED BY IDOCK:   -3.09 KCAL/MOL
REMARK 924 INTRA-LIGAND FREE ENERGY PREDICTED BY IDOCK:   -0.08 KCAL/MOL
REMARK 927      BINDING AFFINITY PREDICTED BY RF-SCORE:    0.00 PKD
ROOT
HETATM    1  C   UNL     1      -5.673   8.515  70.850  1.00  0.00    -0.032 C  
HETATM    2  C   UNL     1      -6.712   8.505  71.957  1.00  0.00    -0.082 C  
ENDROOT
BRANCH   2   3
HETATM    3  O   UNL     1      -7.968   8.132  71.374  1.00  0.00    -0.090 OA 
BRANCH   3   4
HETATM    4  C   UNL     1      -8.366   6.851  71.606  1.00  0.00    -0.109 C  
HETATM    5  O   UNL     1      -7.676   5.995  72.141  1.00  0.00    -0.099 OA 
BRANCH   4   6
HETATM    6  C   UNL     1      -9.747   6.704  71.225  1.00  0.00    -0.173 A  
HETATM    7  C   UNL     1     -10.876   6.776  72.019  1.00  0.00    -0.227 A  
HETATM    8  N   UNL     1     -12.013   6.528  71.305  1.00  0.00    -0.338 NA 
HETATM    9  C   UNL     1     -11.604   6.299  70.081  1.00  0.00    -0.315 A  
HETATM   10  N   UNL     1     -10.245   6.406  69.966  1.00  0.00    -0.174 NA 
BRANCH  10  11
HETATM   11  C   UNL     1      -9.474   6.282  68.717  1.00  0.00    -0.122 C  
HETATM   12  C   UNL     1      -8.169   5.522  68.964  1.00  0.00    -0.099 C  
BRANCH  11  13
HETATM   13  C   UNL     1      -9.296   7.621  68.006  1.00  0.00    -0.144 A  
HETATM   14  C   UNL     1     -10.321   8.092  67.165  1.00  0.00    -0.391 A  
HETATM   15  C   UNL     1     -10.173   9.286  66.456  1.00  0.00    -0.316 A  
HETATM   16  C   UNL     1      -9.004  10.031  66.581  1.00  0.00    -0.156 A  
HETATM   17  C   UNL     1      -7.989   9.592  67.425  1.00  0.00    -0.106 A  
HETATM   18  C   UNL     1      -8.133   8.399  68.136  1.00  0.00    -0.120 A  
ENDBRANCH  11  13
ENDBRANCH  10  11
ENDBRANCH   4   6
ENDBRANCH   3   4
ENDBRANCH   2   3
TORSDOF 5
ENDMDL
MODEL      287
REMARK 921   NORMALIZED FREE ENERGY PREDICTED BY IDOCK:   -2.02 KCAL/MOL
REMARK 922        TOTAL FREE ENERGY PREDICTED BY IDOCK:   -3.16 KCAL/MOL
REMARK 923 INTER-LIGAND FREE ENERGY PREDICTED BY IDOCK:   -2.55 KCAL/MOL
REMARK 924 INTRA-LIGAND FREE ENERGY PREDICTED BY IDOCK:   -0.61 KCAL/MOL
REMARK 927      BINDING AFFINITY PREDICTED BY RF-SCORE:    0.00 PKD
ROOT
HETATM    1  C   UNL     1     -10.830   6.657  67.279  1.00  0.00    -0.456 C  
HETATM    2  C   UNL     1     -10.714   5.368  66.484  1.00  0.00    -0.240 C  
ENDROOT
BRANCH   2   3
HETATM    3  O   UNL     1      -9.461   5.397  65.786  1.00  0.00    -0.154 OA 
BRANCH   3   4
HETATM    4  C   UNL     1      -9.090   4.227  65.197  1.00  0.00    -0.145 C  
HETATM    5  O   UNL     1      -9.819   3.541  64.494  1.00  0.00    -0.165 OA 
BRANCH   4   6
HETATM    6  C   UNL     1      -7.692   3.990  65.445  1.00  0.00    -0.086 A  
HETATM    7  C   UNL     1      -6.601   4.385  64.693  1.00  0.00    -0.043 A  
HETATM    8  N   UNL     1      -5.429   3.924  65.221  1.00  0.00    -0.009 NA 
HETATM    9  C   UNL     1      -5.779   3.247  66.287  1.00  0.00    -0.022 A  
HETATM   10  N   UNL     1      -7.133   3.263  66.485  1.00  0.00    -0.057 NA 
BRANCH  10  11
HETATM   11  C   UNL     1      -7.844   2.664  67.627  1.00  0.00    -0.064 C  
HETATM   12  C   UNL     1      -8.902   1.670  67.139  1.00  0.00    -0.134 C  
BRANCH  11  13
HETATM   13  C   UNL     1      -8.371   3.713  68.602  1.00  0.00    -0.093 A  
HETATM   14  C   UNL     1      -7.680   4.931  68.737  1.00  0.00    -0.077 A  
HETATM   15  C   UNL     1      -8.099   5.893  69.657  1.00  0.00    -0.106 A  
HETATM   16  C   UNL     1      -9.218   5.658  70.451  1.00  0.00    -0.179 A  
HETATM   17  C   UNL     1      -9.927   4.469  70.316  1.00  0.00    -0.288 A  
HETATM   18  C   UNL     1      -9.510   3.504  69.397  1.00  0.00    -0.234 A  
ENDBRANCH  11  13
ENDBRANCH  10  11
ENDBRANCH   4   6
ENDBRANCH   3   4
ENDBRANCH   2   3
TORSDOF 5
ENDMDL
MODEL      288
REMARK 921   NORMALIZED FREE ENERGY PREDICTED BY IDOCK:   -2.01 KCAL/MOL
REMARK 922        TOTAL FREE ENERGY PREDICTED BY IDOCK:   -3.15 KCAL/MOL
REMARK 923 INTER-LIGAND FREE ENERGY PREDICTED BY IDOCK:   -2.58 KCAL/MOL
REMARK 924 INTRA-LIGAND FREE ENERGY PREDICTED BY IDOCK:   -0.56 KCAL/MOL
REMARK 927      BINDING AFFINITY PREDICTED BY RF-SCORE:    0.00 PKD
ROOT
HETATM    1  C   UNL     1     -10.901   1.488  62.725  1.00  0.00    -0.156 C  
HETATM    2  C   UNL     1     -10.873   2.978  62.435  1.00  0.00    -0.157 C  
ENDROOT
BRANCH   2   3
HETATM    3  O   UNL     1     -10.121   3.612  63.478  1.00  0.00    -0.162 OA 
BRANCH   3   4
HETATM    4  C   UNL     1      -8.794   3.310  63.513  1.00  0.00    -0.092 C  
HETATM    5  O   UNL     1      -8.051   3.330  62.541  1.00  0.00    -0.070 OA 
BRANCH   4   6
HETATM    6  C   UNL     1      -8.394   3.075  64.875  1.00  0.00    -0.095 A  
HETATM    7  C   UNL     1      -8.401   1.889  65.587  1.00  0.00    -0.093 A  
HETATM    8  N   UNL     1      -8.000   2.072  66.879  1.00  0.00    -0.067 NA 
HETATM    9  C   UNL     1      -7.748   3.354  66.980  1.00  0.00    -0.079 A  
HETATM   10  N   UNL     1      -7.953   4.012  65.797  1.00  0.00    -0.097 NA 
BRANCH  10  11
HETATM   11  C   UNL     1      -7.692   5.440  65.549  1.00  0.00    -0.091 C  
HETATM   12  C   UNL     1      -6.230   5.779  65.851  1.00  0.00    -0.034 C  
BRANCH  11  13
HETATM   13  C   UNL     1      -8.703   6.347  66.246  1.00  0.00    -0.146 A  
HETATM   14  C   UNL     1     -10.035   5.912  66.382  1.00  0.00    -0.162 A  
HETATM   15  C   UNL     1     -11.000   6.735  66.966  1.00  0.00    -0.439 A  
HETATM   16  C   UNL     1     -10.650   8.000  67.429  1.00  0.00    -0.337 A  
HETATM   17  C   UNL     1      -9.334   8.438  67.323  1.00  0.00    -0.181 A  
HETATM   18  C   UNL     1      -8.366   7.619  66.740  1.00  0.00    -0.125 A  
ENDBRANCH  11  13
ENDBRANCH  10  11
ENDBRANCH   4   6
ENDBRANCH   3   4
ENDBRANCH   2   3
TORSDOF 5
ENDMDL
MODEL      289
REMARK 921   NORMALIZED FREE ENERGY PREDICTED BY IDOCK:   -1.99 KCAL/MOL
REMARK 922        TOTAL FREE ENERGY PREDICTED BY IDOCK:   -3.12 KCAL/MOL
REMARK 923 INTER-LIGAND FREE ENERGY PREDICTED BY IDOCK:   -2.82 KCAL/MOL
REMARK 924 INTRA-LIGAND FREE ENERGY PREDICTED BY IDOCK:   -0.30 KCAL/MOL
REMARK 927      BINDING AFFINITY PREDICTED BY RF-SCORE:    0.00 PKD
ROOT
HETATM    1  C   UNL     1      -9.466   3.729  64.413  1.00  0.00    -0.161 C  
HETATM    2  C   UNL     1     -10.052   4.411  65.637  1.00  0.00    -0.241 C  
ENDROOT
BRANCH   2   3
HETATM    3  O   UNL     1      -8.975   4.675  66.546  1.00  0.00    -0.111 OA 
BRANCH   3   4
HETATM    4  C   UNL     1      -8.959   3.912  67.674  1.00  0.00    -0.133 C  
HETATM    5  O   UNL     1      -9.651   2.919  67.851  1.00  0.00    -0.195 OA 
BRANCH   4   6
HETATM    6  C   UNL     1      -7.932   4.393  68.561  1.00  0.00    -0.078 A  
HETATM    7  C   UNL     1      -6.641   3.926  68.725  1.00  0.00    -0.041 A  
HETATM    8  N   UNL     1      -5.978   4.606  69.706  1.00  0.00    -0.017 NA 
HETATM    9  C   UNL     1      -6.841   5.484  70.155  1.00  0.00    -0.052 A  
HETATM   10  N   UNL     1      -8.036   5.415  69.492  1.00  0.00    -0.095 NA 
BRANCH  10  11
HETATM   11  C   UNL     1      -9.190   6.306  69.701  1.00  0.00    -0.141 C  
HETATM   12  C   UNL     1     -10.452   5.492  69.996  1.00  0.00    -0.373 C  
BRANCH  11  13
HETATM   13  C   UNL     1      -9.349   7.327  68.578  1.00  0.00    -0.141 A  
HETATM   14  C   UNL     1      -8.316   8.252  68.340  1.00  0.00    -0.132 A  
HETATM   15  C   UNL     1      -8.447   9.235  67.358  1.00  0.00    -0.122 A  
HETATM   16  C   UNL     1      -9.607   9.305  66.592  1.00  0.00    -0.263 A  
HETATM   17  C   UNL     1     -10.630   8.385  66.797  1.00  0.00    -0.227 A  
HETATM   18  C   UNL     1     -10.503   7.401  67.779  1.00  0.00    -0.298 A  
ENDBRANCH  11  13
ENDBRANCH  10  11
ENDBRANCH   4   6
ENDBRANCH   3   4
ENDBRANCH   2   3
TORSDOF 5
ENDMDL
MODEL      290
REMARK 921   NORMALIZED FREE ENERGY PREDICTED BY IDOCK:   -1.92 KCAL/MOL
REMARK 922        TOTAL FREE ENERGY PREDICTED BY IDOCK:   -3.03 KCAL/MOL
REMARK 923 INTER-LIGAND FREE ENERGY PREDICTED BY IDOCK:   -3.27 KCAL/MOL
REMARK 924 INTRA-LIGAND FREE ENERGY PREDICTED BY IDOCK:    0.24 KCAL/MOL
REMARK 927      BINDING AFFINITY PREDICTED BY RF-SCORE:    0.00 PKD
ROOT
HETATM    1  C   UNL     1      -7.283   6.238  68.298  1.00  0.00    -0.085 C  
HETATM    2  C   UNL     1      -7.531   7.506  69.097  1.00  0.00    -0.098 C  
ENDROOT
BRANCH   2   3
HETATM    3  O   UNL     1      -8.494   7.199  70.115  1.00  0.00    -0.135 OA 
BRANCH   3   4
HETATM    4  C   UNL     1      -9.788   7.128  69.697  1.00  0.00    -0.162 C  
HETATM    5  O   UNL     1     -10.429   6.091  69.595  1.00  0.00    -0.208 OA 
BRANCH   4   6
HETATM    6  C   UNL     1     -10.300   8.459  69.504  1.00  0.00    -0.219 A  
HETATM    7  C   UNL     1     -10.570   9.428  70.452  1.00  0.00    -0.261 A  
HETATM    8  N   UNL     1     -11.102  10.553  69.890  1.00  0.00    -0.288 NA 
HETATM    9  C   UNL     1     -11.169  10.293  68.607  1.00  0.00    -0.208 A  
HETATM   10  N   UNL     1     -10.685   9.047  68.309  1.00  0.00    -0.154 NA 
BRANCH  10  11
HETATM   11  C   UNL     1     -10.550   8.476  66.959  1.00  0.00    -0.235 C  
HETATM   12  C   UNL     1     -10.878   6.981  66.973  1.00  0.00    -0.413 C  
BRANCH  11  13
HETATM   13  C   UNL     1      -9.212   8.819  66.311  1.00  0.00    -0.261 A  
HETATM   14  C   UNL     1      -8.636   7.910  65.404  1.00  0.00    -0.118 A  
HETATM   15  C   UNL     1      -7.388   8.164  64.832  1.00  0.00    -0.087 A  
HETATM   16  C   UNL     1      -6.699   9.331  65.149  1.00  0.00    -0.077 A  
HETATM   17  C   UNL     1      -7.263  10.252  66.027  1.00  0.00    -0.128 A  
HETATM   18  C   UNL     1      -8.510  10.002  66.601  1.00  0.00    -0.126 A  
ENDBRANCH  11  13
ENDBRANCH  10  11
ENDBRANCH   4   6
ENDBRANCH   3   4
ENDBRANCH   2   3
TORSDOF 5
ENDMDL
MODEL      291
REMARK 921   NORMALIZED FREE ENERGY PREDICTED BY IDOCK:   -1.92 KCAL/MOL
REMARK 922        TOTAL FREE ENERGY PREDICTED BY IDOCK:   -3.02 KCAL/MOL
REMARK 923 INTER-LIGAND FREE ENERGY PREDICTED BY IDOCK:   -2.60 KCAL/MOL
REMARK 924 INTRA-LIGAND FREE ENERGY PREDICTED BY IDOCK:   -0.43 KCAL/MOL
REMARK 927      BINDING AFFINITY PREDICTED BY RF-SCORE:    0.00 PKD
ROOT
HETATM    1  C   UNL     1     -10.504   2.068  63.044  1.00  0.00    -0.139 C  
HETATM    2  C   UNL     1     -10.124   3.476  63.469  1.00  0.00    -0.191 C  
ENDROOT
BRANCH   2   3
HETATM    3  O   UNL     1      -9.676   3.416  64.830  1.00  0.00    -0.163 OA 
BRANCH   3   4
HETATM    4  C   UNL     1      -9.996   4.492  65.601  1.00  0.00    -0.231 C  
HETATM    5  O   UNL     1     -11.113   4.984  65.678  1.00  0.00    -0.091 OA 
BRANCH   4   6
HETATM    6  C   UNL     1      -8.848   4.879  66.378  1.00  0.00    -0.113 A  
HETATM    7  C   UNL     1      -7.594   5.264  65.938  1.00  0.00    -0.083 A  
HETATM    8  N   UNL     1      -6.744   5.504  66.979  1.00  0.00    -0.060 NA 
HETATM    9  C   UNL     1      -7.451   5.270  68.058  1.00  0.00    -0.076 A  
HETATM   10  N   UNL     1      -8.736   4.903  67.759  1.00  0.00    -0.103 NA 
BRANCH  10  11
HETATM   11  C   UNL     1      -9.806   4.642  68.737  1.00  0.00    -0.131 C  
HETATM   12  C   UNL     1     -10.483   5.950  69.155  1.00  0.00    -0.338 C  
BRANCH  11  13
HETATM   13  C   UNL     1      -9.332   3.780  69.905  1.00  0.00    -0.248 A  
HETATM   14  C   UNL     1      -9.546   4.231  71.221  1.00  0.00    -0.242 A  
HETATM   15  C   UNL     1      -9.080   3.497  72.313  1.00  0.00    -0.143 A  
HETATM   16  C   UNL     1      -8.401   2.299  72.110  1.00  0.00    -0.055 A  
HETATM   17  C   UNL     1      -8.199   1.827  70.817  1.00  0.00    -0.063 A  
HETATM   18  C   UNL     1      -8.664   2.558  69.722  1.00  0.00    -0.126 A  
ENDBRANCH  11  13
ENDBRANCH  10  11
ENDBRANCH   4   6
ENDBRANCH   3   4
ENDBRANCH   2   3
TORSDOF 5
ENDMDL
MODEL      292
REMARK 921   NORMALIZED FREE ENERGY PREDICTED BY IDOCK:   -1.90 KCAL/MOL
REMARK 922        TOTAL FREE ENERGY PREDICTED BY IDOCK:   -3.00 KCAL/MOL
REMARK 923 INTER-LIGAND FREE ENERGY PREDICTED BY IDOCK:   -3.95 KCAL/MOL
REMARK 924 INTRA-LIGAND FREE ENERGY PREDICTED BY IDOCK:    0.96 KCAL/MOL
REMARK 927      BINDING AFFINITY PREDICTED BY RF-SCORE:    0.00 PKD
ROOT
HETATM    1  C   UNL     1      -7.428   9.194  63.959  1.00  0.00    -0.110 C  
HETATM    2  C   UNL     1      -6.950   9.264  65.398  1.00  0.00    -0.085 C  
ENDROOT
BRANCH   2   3
HETATM    3  O   UNL     1      -7.255  10.574  65.896  1.00  0.00    -0.130 OA 
BRANCH   3   4
HETATM    4  C   UNL     1      -8.370  10.661  66.674  1.00  0.00    -0.136 C  
HETATM    5  O   UNL     1      -8.393  10.458  67.880  1.00  0.00    -0.113 OA 
BRANCH   4   6
HETATM    6  C   UNL     1      -9.473  11.128  65.876  1.00  0.00    -0.215 A  
HETATM    7  C   UNL     1     -10.039  10.546  64.757  1.00  0.00    -0.336 A  
HETATM    8  N   UNL     1     -11.038  11.317  64.236  1.00  0.00    -0.295 NA 
HETATM    9  C   UNL     1     -11.096  12.370  65.013  1.00  0.00    -0.304 A  
HETATM   10  N   UNL     1     -10.184  12.307  66.033  1.00  0.00    -0.237 NA 
BRANCH  10  11
HETATM   11  C   UNL     1     -10.039  13.290  67.120  1.00  0.00    -0.239 C  
HETATM   12  C   UNL     1     -11.086  13.045  68.209  1.00  0.00    -0.293 C  
BRANCH  11  13
HETATM   13  C   UNL     1      -9.992  14.726  66.605  1.00  0.00    -0.272 A  
HETATM   14  C   UNL     1      -9.192  15.669  67.277  1.00  0.00    -0.214 A  
HETATM   15  C   UNL     1      -9.165  17.004  66.869  1.00  0.00    -0.254 A  
HETATM   16  C   UNL     1      -9.929  17.417  65.781  1.00  0.00    -0.082 A  
HETATM   17  C   UNL     1     -10.709  16.495  65.092  1.00  0.00    -0.261 A  
HETATM   18  C   UNL     1     -10.739  15.159  65.496  1.00  0.00    -0.379 A  
ENDBRANCH  11  13
ENDBRANCH  10  11
ENDBRANCH   4   6
ENDBRANCH   3   4
ENDBRANCH   2   3
TORSDOF 5
ENDMDL
MODEL      293
REMARK 921   NORMALIZED FREE ENERGY PREDICTED BY IDOCK:   -1.89 KCAL/MOL
REMARK 922        TOTAL FREE ENERGY PREDICTED BY IDOCK:   -2.99 KCAL/MOL
REMARK 923 INTER-LIGAND FREE ENERGY PREDICTED BY IDOCK:   -2.57 KCAL/MOL
REMARK 924 INTRA-LIGAND FREE ENERGY PREDICTED BY IDOCK:   -0.42 KCAL/MOL
REMARK 927      BINDING AFFINITY PREDICTED BY RF-SCORE:    0.00 PKD
ROOT
HETATM    1  C   UNL     1      -9.195   8.782  69.044  1.00  0.00    -0.141 C  
HETATM    2  C   UNL     1      -7.687   8.651  69.158  1.00  0.00    -0.097 C  
ENDROOT
BRANCH   2   3
HETATM    3  O   UNL     1      -7.366   7.254  69.111  1.00  0.00    -0.083 OA 
BRANCH   3   4
HETATM    4  C   UNL     1      -7.093   6.755  67.874  1.00  0.00    -0.085 C  
HETATM    5  O   UNL     1      -6.064   6.972  67.249  1.00  0.00    -0.036 OA 
BRANCH   4   6
HETATM    6  C   UNL     1      -8.147   5.859  67.478  1.00  0.00    -0.102 A  
HETATM    7  C   UNL     1      -8.950   5.911  66.353  1.00  0.00    -0.140 A  
HETATM    8  N   UNL     1      -9.882   4.913  66.350  1.00  0.00    -0.185 NA 
HETATM    9  C   UNL     1      -9.670   4.245  67.458  1.00  0.00    -0.148 A  
HETATM   10  N   UNL     1      -8.624   4.760  68.176  1.00  0.00    -0.101 NA 
BRANCH  10  11
HETATM   11  C   UNL     1      -8.081   4.203  69.426  1.00  0.00    -0.059 C  
HETATM   12  C   UNL     1      -7.677   2.740  69.231  1.00  0.00    -0.048 C  
BRANCH  11  13
HETATM   13  C   UNL     1      -8.999   4.447  70.621  1.00  0.00    -0.158 A  
HETATM   14  C   UNL     1      -8.815   3.690  71.792  1.00  0.00    -0.138 A  
HETATM   15  C   UNL     1      -9.667   3.846  72.887  1.00  0.00    -0.179 A  
HETATM   16  C   UNL     1     -10.711   4.766  72.832  1.00  0.00    -0.297 A  
HETATM   17  C   UNL     1     -10.894   5.540  71.691  1.00  0.00    -0.271 A  
HETATM   18  C   UNL     1     -10.044   5.386  70.594  1.00  0.00    -0.300 A  
ENDBRANCH  11  13
ENDBRANCH  10  11
ENDBRANCH   4   6
ENDBRANCH   3   4
ENDBRANCH   2   3
TORSDOF 5
ENDMDL
MODEL      294
REMARK 921   NORMALIZED FREE ENERGY PREDICTED BY IDOCK:   -1.87 KCAL/MOL
REMARK 922        TOTAL FREE ENERGY PREDICTED BY IDOCK:   -2.96 KCAL/MOL
REMARK 923 INTER-LIGAND FREE ENERGY PREDICTED BY IDOCK:   -2.90 KCAL/MOL
REMARK 924 INTRA-LIGAND FREE ENERGY PREDICTED BY IDOCK:   -0.06 KCAL/MOL
REMARK 927      BINDING AFFINITY PREDICTED BY RF-SCORE:    0.00 PKD
ROOT
HETATM    1  C   UNL     1      -6.946   9.844  70.371  1.00  0.00    -0.145 C  
HETATM    2  C   UNL     1      -8.367   9.315  70.287  1.00  0.00    -0.186 C  
ENDROOT
BRANCH   2   3
HETATM    3  O   UNL     1      -8.503   8.621  69.040  1.00  0.00    -0.122 OA 
BRANCH   3   4
HETATM    4  C   UNL     1      -9.761   8.589  68.520  1.00  0.00    -0.163 C  
HETATM    5  O   UNL     1     -10.760   8.249  69.139  1.00  0.00    -0.196 OA 
BRANCH   4   6
HETATM    6  C   UNL     1      -9.738   9.115  67.181  1.00  0.00    -0.182 A  
HETATM    7  C   UNL     1     -10.513  10.119  66.631  1.00  0.00    -0.185 A  
HETATM    8  N   UNL     1     -10.239  10.303  65.307  1.00  0.00    -0.289 NA 
HETATM    9  C   UNL     1      -9.308   9.424  65.026  1.00  0.00    -0.191 A  
HETATM   10  N   UNL     1      -8.952   8.686  66.122  1.00  0.00    -0.168 NA 
BRANCH  10  11
HETATM   11  C   UNL     1      -7.888   7.669  66.166  1.00  0.00    -0.096 C  
HETATM   12  C   UNL     1      -6.800   7.985  65.137  1.00  0.00    -0.058 C  
BRANCH  11  13
HETATM   13  C   UNL     1      -8.436   6.247  66.083  1.00  0.00    -0.138 A  
HETATM   14  C   UNL     1      -7.570   5.198  65.724  1.00  0.00    -0.083 A  
HETATM   15  C   UNL     1      -8.045   3.893  65.585  1.00  0.00    -0.097 A  
HETATM   16  C   UNL     1      -9.390   3.612  65.811  1.00  0.00    -0.164 A  
HETATM   17  C   UNL     1     -10.257   4.633  66.189  1.00  0.00    -0.308 A  
HETATM   18  C   UNL     1      -9.786   5.939  66.328  1.00  0.00    -0.132 A  
ENDBRANCH  11  13
ENDBRANCH  10  11
ENDBRANCH   4   6
ENDBRANCH   3   4
ENDBRANCH   2   3
TORSDOF 5
ENDMDL
MODEL      295
REMARK 921   NORMALIZED FREE ENERGY PREDICTED BY IDOCK:   -1.63 KCAL/MOL
REMARK 922        TOTAL FREE ENERGY PREDICTED BY IDOCK:   -2.65 KCAL/MOL
REMARK 923 INTER-LIGAND FREE ENERGY PREDICTED BY IDOCK:   -2.28 KCAL/MOL
REMARK 924 INTRA-LIGAND FREE ENERGY PREDICTED BY IDOCK:   -0.37 KCAL/MOL
REMARK 927      BINDING AFFINITY PREDICTED BY RF-SCORE:    0.00 PKD
ROOT
HETATM    1  C   UNL     1     -12.912   6.143  72.327  1.00  0.00     0.325 C  
HETATM    2  C   UNL     1     -12.748   7.389  71.475  1.00  0.00    -0.372 C  
ENDROOT
BRANCH   2   3
HETATM    3  O   UNL     1     -11.350   7.706  71.430  1.00  0.00    -0.250 OA 
BRANCH   3   4
HETATM    4  C   UNL     1     -10.872   8.079  70.210  1.00  0.00    -0.241 C  
HETATM    5  O   UNL     1     -10.875   9.226  69.784  1.00  0.00    -0.230 OA 
BRANCH   4   6
HETATM    6  C   UNL     1     -10.275   6.941  69.564  1.00  0.00    -0.186 A  
HETATM    7  C   UNL     1     -10.895   5.903  68.891  1.00  0.00    -0.303 A  
HETATM    8  N   UNL     1      -9.996   4.972  68.458  1.00  0.00    -0.156 NA 
HETATM    9  C   UNL     1      -8.828   5.414  68.856  1.00  0.00    -0.100 A  
HETATM   10  N   UNL     1      -8.930   6.609  69.517  1.00  0.00    -0.138 NA 
BRANCH  10  11
HETATM   11  C   UNL     1      -7.804   7.410  70.027  1.00  0.00    -0.104 C  
HETATM   12  C   UNL     1      -6.649   7.412  69.022  1.00  0.00    -0.044 C  
BRANCH  11  13
HETATM   13  C   UNL     1      -7.401   7.014  71.445  1.00  0.00    -0.080 A  
HETATM   14  C   UNL     1      -7.981   5.873  72.029  1.00  0.00    -0.107 A  
HETATM   15  C   UNL     1      -7.678   5.509  73.342  1.00  0.00    -0.096 A  
HETATM   16  C   UNL     1      -6.787   6.274  74.090  1.00  0.00    -0.082 A  
HETATM   17  C   UNL     1      -6.188   7.393  73.522  1.00  0.00    -0.060 A  
HETATM   18  C   UNL     1      -6.487   7.760  72.209  1.00  0.00    -0.057 A  
ENDBRANCH  11  13
ENDBRANCH  10  11
ENDBRANCH   4   6
ENDBRANCH   3   4
ENDBRANCH   2   3
TORSDOF 5
ENDMDL
MODEL      296
REMARK 921   NORMALIZED FREE ENERGY PREDICTED BY IDOCK:   -1.60 KCAL/MOL
REMARK 922        TOTAL FREE ENERGY PREDICTED BY IDOCK:   -2.62 KCAL/MOL
REMARK 923 INTER-LIGAND FREE ENERGY PREDICTED BY IDOCK:   -2.16 KCAL/MOL
REMARK 924 INTRA-LIGAND FREE ENERGY PREDICTED BY IDOCK:   -0.46 KCAL/MOL
REMARK 927      BINDING AFFINITY PREDICTED BY RF-SCORE:    0.00 PKD
ROOT
HETATM    1  C   UNL     1     -10.579   1.971  63.028  1.00  0.00    -0.160 C  
HETATM    2  C   UNL     1     -10.142   3.334  63.533  1.00  0.00    -0.173 C  
ENDROOT
BRANCH   2   3
HETATM    3  O   UNL     1      -9.675   3.172  64.879  1.00  0.00    -0.149 OA 
BRANCH   3   4
HETATM    4  C   UNL     1      -9.872   4.240  65.702  1.00  0.00    -0.218 C  
HETATM    5  O   UNL     1     -10.940   4.820  65.842  1.00  0.00    -0.247 OA 
BRANCH   4   6
HETATM    6  C   UNL     1      -8.668   4.498  66.446  1.00  0.00    -0.112 A  
HETATM    7  C   UNL     1      -8.255   3.943  67.644  1.00  0.00    -0.093 A  
HETATM    8  N   UNL     1      -7.074   4.480  68.070  1.00  0.00    -0.063 NA 
HETATM    9  C   UNL     1      -6.752   5.362  67.156  1.00  0.00    -0.059 A  
HETATM   10  N   UNL     1      -7.668   5.408  66.140  1.00  0.00    -0.091 NA 
BRANCH  10  11
HETATM   11  C   UNL     1      -7.567   6.235  64.926  1.00  0.00    -0.092 C  
HETATM   12  C   UNL     1      -6.373   5.796  64.075  1.00  0.00    -0.029 C  
BRANCH  11  13
HETATM   13  C   UNL     1      -7.604   7.730  65.233  1.00  0.00    -0.091 A  
HETATM   14  C   UNL     1      -6.934   8.622  64.376  1.00  0.00    -0.081 A  
HETATM   15  C   UNL     1      -6.899   9.990  64.652  1.00  0.00    -0.130 A  
HETATM   16  C   UNL     1      -7.538  10.490  65.783  1.00  0.00    -0.142 A  
HETATM   17  C   UNL     1      -8.225   9.625  66.630  1.00  0.00    -0.120 A  
HETATM   18  C   UNL     1      -8.261   8.257  66.357  1.00  0.00    -0.107 A  
ENDBRANCH  11  13
ENDBRANCH  10  11
ENDBRANCH   4   6
ENDBRANCH   3   4
ENDBRANCH   2   3
TORSDOF 5
ENDMDL
MODEL      297
REMARK 921   NORMALIZED FREE ENERGY PREDICTED BY IDOCK:   -1.58 KCAL/MOL
REMARK 922        TOTAL FREE ENERGY PREDICTED BY IDOCK:   -2.59 KCAL/MOL
REMARK 923 INTER-LIGAND FREE ENERGY PREDICTED BY IDOCK:   -2.22 KCAL/MOL
REMARK 924 INTRA-LIGAND FREE ENERGY PREDICTED BY IDOCK:   -0.37 KCAL/MOL
REMARK 927      BINDING AFFINITY PREDICTED BY RF-SCORE:    0.00 PKD
ROOT
HETATM    1  C   UNL     1      -9.042   5.993  65.270  1.00  0.00     0.153 C  
HETATM    2  C   UNL     1      -8.743   6.781  66.533  1.00  0.00    -0.136 C  
ENDROOT
BRANCH   2   3
HETATM    3  O   UNL     1      -8.658   5.849  67.620  1.00  0.00    -0.105 OA 
BRANCH   3   4
HETATM    4  C   UNL     1      -7.403   5.420  67.928  1.00  0.00    -0.073 C  
HETATM    5  O   UNL     1      -6.400   5.682  67.279  1.00  0.00    -0.039 OA 
BRANCH   4   6
HETATM    6  C   UNL     1      -7.436   4.712  69.181  1.00  0.00    -0.056 A  
HETATM    7  C   UNL     1      -7.148   3.382  69.432  1.00  0.00    -0.042 A  
HETATM    8  N   UNL     1      -7.346   3.060  70.743  1.00  0.00    -0.033 NA 
HETATM    9  C   UNL     1      -7.756   4.169  71.309  1.00  0.00    -0.070 A  
HETATM   10  N   UNL     1      -7.816   5.208  70.418  1.00  0.00    -0.073 NA 
BRANCH  10  11
HETATM   11  C   UNL     1      -8.166   6.601  70.743  1.00  0.00    -0.121 C  
HETATM   12  C   UNL     1      -7.317   7.110  71.911  1.00  0.00    -0.081 C  
BRANCH  11  13
HETATM   13  C   UNL     1      -9.668   6.798  70.926  1.00  0.00    -0.186 A  
HETATM   14  C   UNL     1     -10.128   7.661  71.937  1.00  0.00    -0.218 A  
HETATM   15  C   UNL     1     -11.494   7.826  72.171  1.00  0.00    -0.361 A  
HETATM   16  C   UNL     1     -12.423   7.139  71.394  1.00  0.00    -0.427 A  
HETATM   17  C   UNL     1     -11.987   6.298  70.375  1.00  0.00    -0.034 A  
HETATM   18  C   UNL     1     -10.622   6.130  70.138  1.00  0.00    -0.321 A  
ENDBRANCH  11  13
ENDBRANCH  10  11
ENDBRANCH   4   6
ENDBRANCH   3   4
ENDBRANCH   2   3
TORSDOF 5
ENDMDL
MODEL      298
REMARK 921   NORMALIZED FREE ENERGY PREDICTED BY IDOCK:   -1.57 KCAL/MOL
REMARK 922        TOTAL FREE ENERGY PREDICTED BY IDOCK:   -2.58 KCAL/MOL
REMARK 923 INTER-LIGAND FREE ENERGY PREDICTED BY IDOCK:   -2.11 KCAL/MOL
REMARK 924 INTRA-LIGAND FREE ENERGY PREDICTED BY IDOCK:   -0.47 KCAL/MOL
REMARK 927      BINDING AFFINITY PREDICTED BY RF-SCORE:    0.00 PKD
ROOT
HETATM    1  C   UNL     1      -5.138   6.850  69.403  1.00  0.00    -0.014 C  
HETATM    2  C   UNL     1      -5.729   7.603  68.224  1.00  0.00    -0.028 C  
ENDROOT
BRANCH   2   3
HETATM    3  O   UNL     1      -6.850   8.358  68.704  1.00  0.00    -0.061 OA 
BRANCH   3   4
HETATM    4  C   UNL     1      -8.031   7.682  68.761  1.00  0.00    -0.126 C  
HETATM    5  O   UNL     1      -8.793   7.694  69.718  1.00  0.00    -0.139 OA 
BRANCH   4   6
HETATM    6  C   UNL     1      -8.281   7.051  67.492  1.00  0.00    -0.116 A  
HETATM    7  C   UNL     1      -8.341   5.703  67.192  1.00  0.00    -0.104 A  
HETATM    8  N   UNL     1      -8.546   5.489  65.859  1.00  0.00    -0.136 NA 
HETATM    9  C   UNL     1      -8.610   6.685  65.328  1.00  0.00    -0.017 A  
HETATM   10  N   UNL     1      -8.472   7.672  66.267  1.00  0.00    -0.131 NA 
BRANCH  10  11
HETATM   11  C   UNL     1      -8.570   9.120  66.016  1.00  0.00    -0.146 C  
HETATM   12  C   UNL     1     -10.032   9.537  65.839  1.00  0.00    -0.342 C  
BRANCH  11  13
HETATM   13  C   UNL     1      -7.645   9.580  64.892  1.00  0.00    -0.111 A  
HETATM   14  C   UNL     1      -8.201   9.933  63.648  1.00  0.00    -0.157 A  
HETATM   15  C   UNL     1      -7.385  10.308  62.580  1.00  0.00    -0.151 A  
HETATM   16  C   UNL     1      -6.002  10.344  62.738  1.00  0.00    -0.141 A  
HETATM   17  C   UNL     1      -5.436  10.020  63.966  1.00  0.00    -0.105 A  
HETATM   18  C   UNL     1      -6.249   9.645  65.037  1.00  0.00    -0.087 A  
ENDBRANCH  11  13
ENDBRANCH  10  11
ENDBRANCH   4   6
ENDBRANCH   3   4
ENDBRANCH   2   3
TORSDOF 5
ENDMDL
MODEL      299
REMARK 921   NORMALIZED FREE ENERGY PREDICTED BY IDOCK:   -1.56 KCAL/MOL
REMARK 922        TOTAL FREE ENERGY PREDICTED BY IDOCK:   -2.56 KCAL/MOL
REMARK 923 INTER-LIGAND FREE ENERGY PREDICTED BY IDOCK:   -2.02 KCAL/MOL
REMARK 924 INTRA-LIGAND FREE ENERGY PREDICTED BY IDOCK:   -0.54 KCAL/MOL
REMARK 927      BINDING AFFINITY PREDICTED BY RF-SCORE:    0.00 PKD
ROOT
HETATM    1  C   UNL     1      -7.237  10.059  64.834  1.00  0.00    -0.140 C  
HETATM    2  C   UNL     1      -7.093   9.046  65.956  1.00  0.00    -0.085 C  
ENDROOT
BRANCH   2   3
HETATM    3  O   UNL     1      -8.135   9.297  66.908  1.00  0.00    -0.107 OA 
BRANCH   3   4
HETATM    4  C   UNL     1      -9.192   8.439  66.862  1.00  0.00    -0.157 C  
HETATM    5  O   UNL     1     -10.210   8.625  66.210  1.00  0.00    -0.264 OA 
BRANCH   4   6
HETATM    6  C   UNL     1      -8.873   7.249  67.606  1.00  0.00    -0.123 A  
HETATM    7  C   UNL     1      -8.401   7.138  68.901  1.00  0.00    -0.126 A  
HETATM    8  N   UNL     1      -8.161   5.838  69.243  1.00  0.00    -0.104 NA 
HETATM    9  C   UNL     1      -8.475   5.142  68.177  1.00  0.00    -0.099 A  
HETATM   10  N   UNL     1      -8.926   5.938  67.159  1.00  0.00    -0.114 NA 
BRANCH  10  11
HETATM   11  C   UNL     1      -9.428   5.467  65.857  1.00  0.00    -0.122 C  
HETATM   12  C   UNL     1     -10.856   4.932  65.992  1.00  0.00    -0.137 C  
BRANCH  11  13
HETATM   13  C   UNL     1      -8.460   4.506  65.171  1.00  0.00    -0.126 A  
HETATM   14  C   UNL     1      -8.670   3.120  65.292  1.00  0.00    -0.117 A  
HETATM   15  C   UNL     1      -7.777   2.209  64.725  1.00  0.00    -0.069 A  
HETATM   16  C   UNL     1      -6.666   2.667  64.022  1.00  0.00    -0.032 A  
HETATM   17  C   UNL     1      -6.455   4.033  63.873  1.00  0.00    -0.038 A  
HETATM   18  C   UNL     1      -7.345   4.948  64.439  1.00  0.00    -0.059 A  
ENDBRANCH  11  13
ENDBRANCH  10  11
ENDBRANCH   4   6
ENDBRANCH   3   4
ENDBRANCH   2   3
TORSDOF 5
ENDMDL
MODEL      300
REMARK 921   NORMALIZED FREE ENERGY PREDICTED BY IDOCK:   -1.56 KCAL/MOL
REMARK 922        TOTAL FREE ENERGY PREDICTED BY IDOCK:   -2.56 KCAL/MOL
REMARK 923 INTER-LIGAND FREE ENERGY PREDICTED BY IDOCK:   -3.05 KCAL/MOL
REMARK 924 INTRA-LIGAND FREE ENERGY PREDICTED BY IDOCK:    0.49 KCAL/MOL
REMARK 927      BINDING AFFINITY PREDICTED BY RF-SCORE:    0.00 PKD
ROOT
HETATM    1  C   UNL     1     -10.026  19.739  68.043  1.00  0.00    -0.553 C  
HETATM    2  C   UNL     1      -9.216  19.007  66.988  1.00  0.00    -0.299 C  
ENDROOT
BRANCH   2   3
HETATM    3  O   UNL     1      -8.375  18.062  67.663  1.00  0.00    -0.234 OA 
BRANCH   3   4
HETATM    4  C   UNL     1      -8.379  16.800  67.149  1.00  0.00    -0.183 C  
HETATM    5  O   UNL     1      -7.614  16.401  66.282  1.00  0.00    -0.234 OA 
BRANCH   4   6
HETATM    6  C   UNL     1      -9.341  15.999  67.858  1.00  0.00    -0.208 A  
HETATM    7  C   UNL     1     -10.718  15.980  67.725  1.00  0.00    -0.323 A  
HETATM    8  N   UNL     1     -11.300  15.124  68.615  1.00  0.00    -0.293 NA 
HETATM    9  C   UNL     1     -10.305  14.616  69.301  1.00  0.00    -0.173 A  
HETATM   10  N   UNL     1      -9.094  15.095  68.879  1.00  0.00    -0.196 NA 
BRANCH  10  11
HETATM   11  C   UNL     1      -7.778  14.674  69.388  1.00  0.00    -0.051 C  
HETATM   12  C   UNL     1      -6.770  15.821  69.284  1.00  0.00    -0.174 C  
BRANCH  11  13
HETATM   13  C   UNL     1      -7.304  13.363  68.765  1.00  0.00    -0.076 A  
HETATM   14  C   UNL     1      -6.783  13.374  67.458  1.00  0.00    -0.151 A  
HETATM   15  C   UNL     1      -6.388  12.189  66.835  1.00  0.00    -0.011 A  
HETATM   16  C   UNL     1      -6.501  10.976  67.508  1.00  0.00    -0.063 A  
HETATM   17  C   UNL     1      -6.993  10.948  68.809  1.00  0.00    -0.078 A  
HETATM   18  C   UNL     1      -7.389  12.131  69.436  1.00  0.00     0.253 A  
ENDBRANCH  11  13
ENDBRANCH  10  11
ENDBRANCH   4   6
ENDBRANCH   3   4
ENDBRANCH   2   3
TORSDOF 5
ENDMDL
MODEL      301
REMARK 921   NORMALIZED FREE ENERGY PREDICTED BY IDOCK:   -0.87 KCAL/MOL
REMARK 922        TOTAL FREE ENERGY PREDICTED BY IDOCK:   -1.67 KCAL/MOL
REMARK 923 INTER-LIGAND FREE ENERGY PREDICTED BY IDOCK:   -2.84 KCAL/MOL
REMARK 924 INTRA-LIGAND FREE ENERGY PREDICTED BY IDOCK:    1.16 KCAL/MOL
REMARK 927      BINDING AFFINITY PREDICTED BY RF-SCORE:    0.00 PKD
ROOT
HETATM    1  C   UNL     1      -7.008   9.790  65.137  1.00  0.00    -0.117 C  
HETATM    2  C   UNL     1      -6.233   8.864  66.058  1.00  0.00    -0.056 C  
ENDROOT
BRANCH   2   3
HETATM    3  O   UNL     1      -7.113   7.804  66.453  1.00  0.00    -0.068 OA 
BRANCH   3   4
HETATM    4  C   UNL     1      -7.408   7.749  67.782  1.00  0.00    -0.095 C  
HETATM    5  O   UNL     1      -6.687   8.178  68.671  1.00  0.00    -0.056 OA 
BRANCH   4   6
HETATM    6  C   UNL     1      -8.733   7.213  67.954  1.00  0.00    -0.126 A  
HETATM    7  C   UNL     1      -9.305   6.109  67.350  1.00  0.00    -0.115 A  
HETATM    8  N   UNL     1     -10.608   5.945  67.725  1.00  0.00    -0.246 NA 
HETATM    9  C   UNL     1     -10.852   6.934  68.550  1.00  0.00    -0.180 A  
HETATM   10  N   UNL     1      -9.752   7.727  68.741  1.00  0.00    -0.155 NA 
BRANCH  10  11
HETATM   11  C   UNL     1      -9.668   8.875  69.659  1.00  0.00    -0.174 C  
HETATM   12  C   UNL     1      -8.952  10.049  68.987  1.00  0.00    -0.163 C  
BRANCH  11  13
HETATM   13  C   UNL     1      -9.099   8.491  71.023  1.00  0.00    -0.221 A  
HETATM   14  C   UNL     1      -7.708   8.329  71.164  1.00  0.00    -0.097 A  
HETATM   15  C   UNL     1      -7.155   7.927  72.381  1.00  0.00    -0.095 A  
HETATM   16  C   UNL     1      -7.980   7.687  73.477  1.00  0.00    -0.181 A  
HETATM   17  C   UNL     1      -9.355   7.863  73.362  1.00  0.00    -0.348 A  
HETATM   18  C   UNL     1      -9.912   8.265  72.146  1.00  0.00    -0.343 A  
ENDBRANCH  11  13
ENDBRANCH  10  11
ENDBRANCH   4   6
ENDBRANCH   3   4
ENDBRANCH   2   3
TORSDOF 5
ENDMDL
MODEL      302
REMARK 921   NORMALIZED FREE ENERGY PREDICTED BY IDOCK:   -0.70 KCAL/MOL
REMARK 922        TOTAL FREE ENERGY PREDICTED BY IDOCK:   -1.45 KCAL/MOL
REMARK 923 INTER-LIGAND FREE ENERGY PREDICTED BY IDOCK:   -1.43 KCAL/MOL
REMARK 924 INTRA-LIGAND FREE ENERGY PREDICTED BY IDOCK:   -0.02 KCAL/MOL
REMARK 927      BINDING AFFINITY PREDICTED BY RF-SCORE:    0.00 PKD
ROOT
HETATM    1  C   UNL     1      -9.149   9.709  64.950  1.00  0.00    -0.284 C  
HETATM    2  C   UNL     1      -8.111   8.795  65.577  1.00  0.00    -0.115 C  
ENDROOT
BRANCH   2   3
HETATM    3  O   UNL     1      -8.635   8.332  66.828  1.00  0.00    -0.121 OA 
BRANCH   3   4
HETATM    4  C   UNL     1      -7.926   8.696  67.933  1.00  0.00    -0.107 C  
HETATM    5  O   UNL     1      -6.740   8.457  68.107  1.00  0.00    -0.063 OA 
BRANCH   4   6
HETATM    6  C   UNL     1      -8.762   9.490  68.795  1.00  0.00    -0.128 A  
HETATM    7  C   UNL     1      -8.967  10.858  68.782  1.00  0.00    -0.164 A  
HETATM    8  N   UNL     1      -9.791  11.256  69.796  1.00  0.00     0.572 NA 
HETATM    9  C   UNL     1     -10.095  10.155  70.439  1.00  0.00     0.012 A  
HETATM   10  N   UNL     1      -9.516   9.052  69.873  1.00  0.00    -0.168 NA 
BRANCH  10  11
HETATM   11  C   UNL     1      -9.713   7.658  70.305  1.00  0.00    -0.179 C  
HETATM   12  C   UNL     1     -10.666   7.597  71.501  1.00  0.00    -0.249 C  
BRANCH  11  13
HETATM   13  C   UNL     1      -8.394   6.919  70.515  1.00  0.00    -0.129 A  
HETATM   14  C   UNL     1      -8.012   5.924  69.596  1.00  0.00    -0.101 A  
HETATM   15  C   UNL     1      -6.840   5.190  69.783  1.00  0.00    -0.052 A  
HETATM   16  C   UNL     1      -6.027   5.442  70.884  1.00  0.00    -0.021 A  
HETATM   17  C   UNL     1      -6.377   6.438  71.791  1.00  0.00    -0.042 A  
HETATM   18  C   UNL     1      -7.549   7.174  71.608  1.00  0.00    -0.087 A  
ENDBRANCH  11  13
ENDBRANCH  10  11
ENDBRANCH   4   6
ENDBRANCH   3   4
ENDBRANCH   2   3
TORSDOF 5
ENDMDL
MODEL      303
REMARK 921   NORMALIZED FREE ENERGY PREDICTED BY IDOCK:   -0.68 KCAL/MOL
REMARK 922        TOTAL FREE ENERGY PREDICTED BY IDOCK:   -1.43 KCAL/MOL
REMARK 923 INTER-LIGAND FREE ENERGY PREDICTED BY IDOCK:   -1.81 KCAL/MOL
REMARK 924 INTRA-LIGAND FREE ENERGY PREDICTED BY IDOCK:    0.38 KCAL/MOL
REMARK 927      BINDING AFFINITY PREDICTED BY RF-SCORE:    0.00 PKD
ROOT
HETATM    1  C   UNL     1      -7.008   9.790  65.137  1.00  0.00    -0.117 C  
HETATM    2  C   UNL     1      -6.233   8.864  66.058  1.00  0.00    -0.056 C  
ENDROOT
BRANCH   2   3
HETATM    3  O   UNL     1      -7.113   7.804  66.453  1.00  0.00    -0.068 OA 
BRANCH   3   4
HETATM    4  C   UNL     1      -7.408   7.749  67.782  1.00  0.00    -0.095 C  
HETATM    5  O   UNL     1      -6.687   8.178  68.671  1.00  0.00    -0.056 OA 
BRANCH   4   6
HETATM    6  C   UNL     1      -8.733   7.213  67.954  1.00  0.00    -0.126 A  
HETATM    7  C   UNL     1      -9.941   7.885  67.984  1.00  0.00    -0.177 A  
HETATM    8  N   UNL     1     -10.985   7.039  68.225  1.00  0.00    -0.132 NA 
HETATM    9  C   UNL     1     -10.441   5.853  68.349  1.00  0.00    -0.237 A  
HETATM   10  N   UNL     1      -9.083   5.891  68.180  1.00  0.00    -0.118 NA 
BRANCH  10  11
HETATM   11  C   UNL     1      -8.182   4.726  68.183  1.00  0.00    -0.088 C  
HETATM   12  C   UNL     1      -6.919   5.026  68.994  1.00  0.00    -0.052 C  
BRANCH  11  13
HETATM   13  C   UNL     1      -7.914   4.192  66.779  1.00  0.00    -0.097 A  
HETATM   14  C   UNL     1      -6.982   4.856  65.959  1.00  0.00    -0.066 A  
HETATM   15  C   UNL     1      -6.749   4.430  64.651  1.00  0.00    -0.045 A  
HETATM   16  C   UNL     1      -7.435   3.331  64.142  1.00  0.00    -0.070 A  
HETATM   17  C   UNL     1      -8.344   2.649  64.945  1.00  0.00    -0.089 A  
HETATM   18  C   UNL     1      -8.580   3.072  66.254  1.00  0.00    -0.121 A  
ENDBRANCH  11  13
ENDBRANCH  10  11
ENDBRANCH   4   6
ENDBRANCH   3   4
ENDBRANCH   2   3
TORSDOF 5
ENDMDL
MODEL      304
REMARK 921   NORMALIZED FREE ENERGY PREDICTED BY IDOCK:   -0.32 KCAL/MOL
REMARK 922        TOTAL FREE ENERGY PREDICTED BY IDOCK:   -0.97 KCAL/MOL
REMARK 923 INTER-LIGAND FREE ENERGY PREDICTED BY IDOCK:   -3.50 KCAL/MOL
REMARK 924 INTRA-LIGAND FREE ENERGY PREDICTED BY IDOCK:    2.53 KCAL/MOL
REMARK 927      BINDING AFFINITY PREDICTED BY RF-SCORE:    0.00 PKD
ROOT
HETATM    1  C   UNL     1      -8.715  10.017  64.927  1.00  0.00    -0.201 C  
HETATM    2  C   UNL     1      -8.754   8.552  65.327  1.00  0.00    -0.140 C  
ENDROOT
BRANCH   2   3
HETATM    3  O   UNL     1      -9.691   8.419  66.404  1.00  0.00    -0.233 OA 
BRANCH   3   4
HETATM    4  C   UNL     1      -9.145   8.191  67.631  1.00  0.00    -0.134 C  
HETATM    5  O   UNL     1      -8.058   7.665  67.821  1.00  0.00    -0.116 OA 
BRANCH   4   6
HETATM    6  C   UNL     1      -9.995   8.760  68.644  1.00  0.00    -0.182 A  
HETATM    7  C   UNL     1     -10.164  10.089  68.986  1.00  0.00    -0.203 A  
HETATM    8  N   UNL     1     -11.018  10.236  70.041  1.00  0.00    -0.292 NA 
HETATM    9  C   UNL     1     -11.379   9.017  70.360  1.00  0.00    -0.210 A  
HETATM   10  N   UNL     1     -10.805   8.081  69.541  1.00  0.00    -0.182 NA 
BRANCH  10  11
HETATM   11  C   UNL     1     -11.058   6.631  69.582  1.00  0.00    -0.334 C  
HETATM   12  C   UNL     1     -10.626   6.048  70.930  1.00  0.00    -0.310 C  
BRANCH  11  13
HETATM   13  C   UNL     1     -10.482   5.903  68.370  1.00  0.00    -0.294 A  
HETATM   14  C   UNL     1      -9.215   5.299  68.472  1.00  0.00    -0.138 A  
HETATM   15  C   UNL     1      -8.632   4.671  67.370  1.00  0.00    -0.104 A  
HETATM   16  C   UNL     1      -9.306   4.629  66.153  1.00  0.00    -0.153 A  
HETATM   17  C   UNL     1     -10.569   5.202  66.039  1.00  0.00    -0.236 A  
HETATM   18  C   UNL     1     -11.155   5.831  67.139  1.00  0.00    -0.037 A  
ENDBRANCH  11  13
ENDBRANCH  10  11
ENDBRANCH   4   6
ENDBRANCH   3   4
ENDBRANCH   2   3
TORSDOF 5
ENDMDL
MODEL      305
REMARK 921   NORMALIZED FREE ENERGY PREDICTED BY IDOCK:    1.49 KCAL/MOL
REMARK 922        TOTAL FREE ENERGY PREDICTED BY IDOCK:    1.38 KCAL/MOL
REMARK 923 INTER-LIGAND FREE ENERGY PREDICTED BY IDOCK:   -1.34 KCAL/MOL
REMARK 924 INTRA-LIGAND FREE ENERGY PREDICTED BY IDOCK:    2.72 KCAL/MOL
REMARK 927      BINDING AFFINITY PREDICTED BY RF-SCORE:    0.00 PKD
ROOT
HETATM    1  C   UNL     1      -8.335   8.863  64.085  1.00  0.00    -0.168 C  
HETATM    2  C   UNL     1      -8.756   7.893  65.176  1.00  0.00     0.049 C  
ENDROOT
BRANCH   2   3
HETATM    3  O   UNL     1      -9.017   8.657  66.361  1.00  0.00    -0.142 OA 
BRANCH   3   4
HETATM    4  C   UNL     1      -7.978   8.753  67.237  1.00  0.00    -0.097 C  
HETATM    5  O   UNL     1      -7.020   7.995  67.265  1.00  0.00    -0.071 OA 
BRANCH   4   6
HETATM    6  C   UNL     1      -8.139   9.939  68.038  1.00  0.00    -0.108 A  
HETATM    7  C   UNL     1      -7.634  11.207  67.817  1.00  0.00    -0.100 A  
HETATM    8  N   UNL     1      -7.955  12.063  68.832  1.00  0.00    -0.004 NA 
HETATM    9  C   UNL     1      -8.647  11.342  69.680  1.00  0.00     0.987 A  
HETATM   10  N   UNL     1      -8.806  10.053  69.248  1.00  0.00    -0.166 NA 
BRANCH  10  11
HETATM   11  C   UNL     1      -9.591   9.008  69.927  1.00  0.00    -0.183 C  
HETATM   12  C   UNL     1      -9.263   8.975  71.421  1.00  0.00    -0.293 C  
BRANCH  11  13
HETATM   13  C   UNL     1      -9.486   7.654  69.230  1.00  0.00    -0.158 A  
HETATM   14  C   UNL     1     -10.428   7.317  68.241  1.00  0.00    -0.239 A  
HETATM   15  C   UNL     1     -10.396   6.067  67.620  1.00  0.00    -0.258 A  
HETATM   16  C   UNL     1      -9.421   5.138  67.970  1.00  0.00    -0.156 A  
HETATM   17  C   UNL     1      -8.468   5.462  68.930  1.00  0.00    -0.099 A  
HETATM   18  C   UNL     1      -8.496   6.711  69.554  1.00  0.00    -0.132 A  
ENDBRANCH  11  13
ENDBRANCH  10  11
ENDBRANCH   4   6
ENDBRANCH   3   4
ENDBRANCH   2   3
TORSDOF 5
ENDMDL
MODEL      306
REMARK 921   NORMALIZED FREE ENERGY PREDICTED BY IDOCK:    1.99 KCAL/MOL
REMARK 922        TOTAL FREE ENERGY PREDICTED BY IDOCK:    2.02 KCAL/MOL
REMARK 923 INTER-LIGAND FREE ENERGY PREDICTED BY IDOCK:   -1.04 KCAL/MOL
REMARK 924 INTRA-LIGAND FREE ENERGY PREDICTED BY IDOCK:    3.06 KCAL/MOL
REMARK 927      BINDING AFFINITY PREDICTED BY RF-SCORE:    0.00 PKD
ROOT
HETATM    1  C   UNL     1      -8.436   8.753  63.952  1.00  0.00    -0.110 C  
HETATM    2  C   UNL     1      -8.657   7.561  64.867  1.00  0.00     0.137 C  
ENDROOT
BRANCH   2   3
HETATM    3  O   UNL     1      -8.436   7.998  66.215  1.00  0.00    -0.119 OA 
BRANCH   3   4
HETATM    4  C   UNL     1      -7.134   8.025  66.617  1.00  0.00    -0.076 C  
HETATM    5  O   UNL     1      -6.200   7.562  65.977  1.00  0.00    -0.040 OA 
BRANCH   4   6
HETATM    6  C   UNL     1      -7.030   8.770  67.844  1.00  0.00    -0.078 A  
HETATM    7  C   UNL     1      -6.965  10.140  68.021  1.00  0.00    -0.082 A  
HETATM    8  N   UNL     1      -6.813  10.473  69.337  1.00  0.00    -0.075 NA 
HETATM    9  C   UNL     1      -6.780   9.330  69.976  1.00  0.00    -0.054 A  
HETATM   10  N   UNL     1      -6.922   8.263  69.129  1.00  0.00    -0.062 NA 
BRANCH  10  11
HETATM   11  C   UNL     1      -7.001   6.849  69.532  1.00  0.00    -0.063 C  
HETATM   12  C   UNL     1      -5.915   6.522  70.560  1.00  0.00    -0.023 C  
BRANCH  11  13
HETATM   13  C   UNL     1      -7.037   5.903  68.335  1.00  0.00    -0.081 A  
HETATM   14  C   UNL     1      -8.251   5.281  67.989  1.00  0.00    -0.098 A  
HETATM   15  C   UNL     1      -8.313   4.369  66.934  1.00  0.00    -0.101 A  
HETATM   16  C   UNL     1      -7.167   4.069  66.203  1.00  0.00    -0.068 A  
HETATM   17  C   UNL     1      -5.962   4.690  66.517  1.00  0.00    -0.027 A  
HETATM   18  C   UNL     1      -5.896   5.603  67.571  1.00  0.00    -0.017 A  
ENDBRANCH  11  13
ENDBRANCH  10  11
ENDBRANCH   4   6
ENDBRANCH   3   4
ENDBRANCH   2   3
TORSDOF 5
ENDMDL
MODEL      307
REMARK 921   NORMALIZED FREE ENERGY PREDICTED BY IDOCK:   10.21 KCAL/MOL
REMARK 922        TOTAL FREE ENERGY PREDICTED BY IDOCK:   12.65 KCAL/MOL
REMARK 923 INTER-LIGAND FREE ENERGY PREDICTED BY IDOCK:   11.18 KCAL/MOL
REMARK 924 INTRA-LIGAND FREE ENERGY PREDICTED BY IDOCK:    1.47 KCAL/MOL
REMARK 927      BINDING AFFINITY PREDICTED BY RF-SCORE:    0.00 PKD
ROOT
HETATM    1  C   UNL     1      -9.775  18.169  64.480  1.00  0.00     5.673 C  
HETATM    2  C   UNL     1      -9.997  16.902  65.286  1.00  0.00     0.402 C  
ENDROOT
BRANCH   2   3
HETATM    3  O   UNL     1      -8.813  16.664  66.060  1.00  0.00    -0.425 OA 
BRANCH   3   4
HETATM    4  C   UNL     1      -9.020  16.361  67.372  1.00  0.00    -0.191 C  
HETATM    5  O   UNL     1      -8.351  15.565  68.015  1.00  0.00    -0.139 OA 
BRANCH   4   6
HETATM    6  C   UNL     1     -10.067  17.200  67.895  1.00  0.00    -0.308 A  
HETATM    7  C   UNL     1     -11.397  17.260  67.519  1.00  0.00     0.402 A  
HETATM    8  N   UNL     1     -12.074  18.224  68.209  1.00  0.00     2.798 NA 
HETATM    9  C   UNL     1     -11.183  18.764  69.004  1.00  0.00     2.136 A  
HETATM   10  N   UNL     1      -9.954  18.177  68.872  1.00  0.00    -0.366 NA 
BRANCH  10  11
HETATM   11  C   UNL     1      -8.757  18.496  69.668  1.00  0.00     0.851 C  
HETATM   12  C   UNL     1      -8.986  19.763  70.497  1.00  0.00     1.636 C  
BRANCH  11  13
HETATM   13  C   UNL     1      -7.484  18.518  68.826  1.00  0.00    -0.309 A  
HETATM   14  C   UNL     1      -7.459  19.276  67.641  1.00  0.00    -0.271 A  
HETATM   15  C   UNL     1      -6.333  19.279  66.817  1.00  0.00    -0.190 A  
HETATM   16  C   UNL     1      -5.211  18.532  67.166  1.00  0.00    -0.138 A  
HETATM   17  C   UNL     1      -5.209  17.793  68.345  1.00  0.00    -0.150 A  
HETATM   18  C   UNL     1      -6.334  17.788  69.172  1.00  0.00    -0.233 A  
ENDBRANCH  11  13
ENDBRANCH  10  11
ENDBRANCH   4   6
ENDBRANCH   3   4
ENDBRANCH   2   3
TORSDOF 5
ENDMDL
MODEL      308
REMARK 921   NORMALIZED FREE ENERGY PREDICTED BY IDOCK:   42.49 KCAL/MOL
REMARK 922        TOTAL FREE ENERGY PREDICTED BY IDOCK:   54.36 KCAL/MOL
REMARK 923 INTER-LIGAND FREE ENERGY PREDICTED BY IDOCK:   52.10 KCAL/MOL
REMARK 924 INTRA-LIGAND FREE ENERGY PREDICTED BY IDOCK:    2.26 KCAL/MOL
REMARK 927      BINDING AFFINITY PREDICTED BY RF-SCORE:    0.00 PKD
ROOT
HETATM    1  C   UNL     1     -14.084  20.870  65.574  1.00  0.00    11.823 C  
HETATM    2  C   UNL     1     -13.386  21.261  64.283  1.00  0.00    12.552 C  
ENDROOT
BRANCH   2   3
HETATM    3  O   UNL     1     -12.139  20.556  64.229  1.00  0.00     2.643 OA 
BRANCH   3   4
HETATM    4  C   UNL     1     -12.234  19.197  64.220  1.00  0.00     9.741 C  
HETATM    5  O   UNL     1     -12.866  18.550  63.396  1.00  0.00    13.963 OA 
BRANCH   4   6
HETATM    6  C   UNL     1     -11.393  18.653  65.254  1.00  0.00     1.628 A  
HETATM    7  C   UNL     1     -10.708  19.321  66.252  1.00  0.00    -0.384 A  
HETATM    8  N   UNL     1      -9.967  18.466  67.017  1.00  0.00    -0.324 NA 
HETATM    9  C   UNL     1     -10.180  17.279  66.504  1.00  0.00    -0.325 A  
HETATM   10  N   UNL     1     -11.046  17.325  65.445  1.00  0.00    -0.158 NA 
BRANCH  10  11
HETATM   11  C   UNL     1     -11.551  16.163  64.694  1.00  0.00    -0.133 C  
HETATM   12  C   UNL     1     -13.069  16.252  64.524  1.00  0.00     3.083 C  
BRANCH  11  13
HETATM   13  C   UNL     1     -11.061  14.838  65.272  1.00  0.00    -0.374 A  
HETATM   14  C   UNL     1     -11.860  13.688  65.124  1.00  0.00    -0.364 A  
HETATM   15  C   UNL     1     -11.471  12.470  65.684  1.00  0.00    -0.400 A  
HETATM   16  C   UNL     1     -10.278  12.378  66.394  1.00  0.00    -0.253 A  
HETATM   17  C   UNL     1      -9.465  13.498  66.532  1.00  0.00    -0.265 A  
HETATM   18  C   UNL     1      -9.849  14.718  65.973  1.00  0.00    -0.350 A  
ENDBRANCH  11  13
ENDBRANCH  10  11
ENDBRANCH   4   6
ENDBRANCH   3   4
ENDBRANCH   2   3
TORSDOF 5
ENDMDL
