MODEL        1
REMARK 921   NORMALIZED FREE ENERGY PREDICTED BY IDOCK:   -6.64 KCAL/MOL
REMARK 922        TOTAL FREE ENERGY PREDICTED BY IDOCK:   -7.66 KCAL/MOL
REMARK 923 INTER-LIGAND FREE ENERGY PREDICTED BY IDOCK:   -7.41 KCAL/MOL
REMARK 924 INTRA-LIGAND FREE ENERGY PREDICTED BY IDOCK:   -0.25 KCAL/MOL
REMARK 927      BINDING AFFINITY PREDICTED BY RF-SCORE:    0.00 PKD
ROOT
HETATM    1  C   UNL     1      -9.039   8.775  66.289  1.00  0.00    -0.240 C  
HETATM    2  C   UNL     1      -7.718   9.236  66.143  1.00  0.00    -0.096 C  
HETATM    3  C   UNL     1      -8.536   9.820  67.233  1.00  0.00    -0.125 C  
HETATM    4  C   UNL     1     -10.259   8.788  67.674  1.00  0.00    -0.239 C  
HETATM    5  C   UNL     1     -10.722  11.685  63.692  1.00  0.00    -0.500 C  
HETATM    6  O   UNL     1     -11.066   8.731  68.870  1.00  0.00    -0.437 OA 
HETATM    7  C   UNL     1      -9.021   8.722  68.244  1.00  0.00    -0.141 C  
HETATM    8  C   UNL     1      -9.483  10.328  69.135  1.00  0.00    -0.225 C  
HETATM    9  C   UNL     1     -10.260  10.049  65.670  1.00  0.00    -0.258 C  
HETATM   10  C   UNL     1     -10.979  12.783  64.698  1.00  0.00    -0.355 C  
HETATM   11  H   UNL     1     -11.862   8.254  69.074  1.00  0.00     0.000 HD 
HETATM   12  C   UNL     1     -10.704  11.153  68.305  1.00  0.00    -0.234 C  
HETATM   13  C   UNL     1      -9.877  10.530  64.249  1.00  0.00    -0.402 C  
HETATM   14  C   UNL     1     -10.582  11.412  66.716  1.00  0.00    -0.298 C  
HETATM   15  C   UNL     1     -11.841  11.334  69.010  1.00  0.00    -0.421 C  
HETATM   16  C   UNL     1     -11.632  12.327  66.000  1.00  0.00    -0.451 C  
HETATM   17  C   UNL     1     -12.146  13.534  66.816  1.00  0.00    -0.425 C  
HETATM   18  C   UNL     1     -11.336  14.811  66.791  1.00  0.00    -0.347 C  
HETATM   19  C   UNL     1     -10.748  15.134  65.455  1.00  0.00    -0.381 C  
HETATM   20  C   UNL     1     -10.584  14.049  64.462  1.00  0.00    -0.332 C  
HETATM   21  O   UNL     1     -10.342  16.264  65.189  1.00  0.00    -0.587 OA 
ENDROOT
BRANCH   4  22
HETATM   22  C   UNL     1     -10.664   7.381  67.163  1.00  0.00    -0.400 C  
HETATM   23  C   UNL     1     -11.075   6.304  66.844  1.00  0.00    -0.329 C  
ENDBRANCH   4  22
BRANCH   7  24
HETATM   24  C   UNL     1      -8.409   7.629  69.088  1.00  0.00    -0.131 C  
HETATM   25  C   UNL     1      -6.921   7.885  69.306  1.00  0.00    -0.056 C  
ENDBRANCH   7  24
TORSDOF 2
ENDMDL
MODEL        2
REMARK 921   NORMALIZED FREE ENERGY PREDICTED BY IDOCK:   -6.56 KCAL/MOL
REMARK 922        TOTAL FREE ENERGY PREDICTED BY IDOCK:   -7.58 KCAL/MOL
REMARK 923 INTER-LIGAND FREE ENERGY PREDICTED BY IDOCK:   -7.37 KCAL/MOL
REMARK 924 INTRA-LIGAND FREE ENERGY PREDICTED BY IDOCK:   -0.21 KCAL/MOL
REMARK 927      BINDING AFFINITY PREDICTED BY RF-SCORE:    0.00 PKD
ROOT
HETATM    1  C   UNL     1      -9.283  17.510  68.624  1.00  0.00    -0.267 C  
HETATM    2  C   UNL     1      -8.111  16.965  69.179  1.00  0.00    -0.082 C  
HETATM    3  C   UNL     1      -8.535  16.476  67.845  1.00  0.00    -0.182 C  
HETATM    4  C   UNL     1      -9.960  17.627  66.911  1.00  0.00    -0.323 C  
HETATM    5  C   UNL     1     -11.871  14.606  70.330  1.00  0.00    -0.365 C  
HETATM    6  O   UNL     1     -10.311  17.781  65.519  1.00  0.00    -0.623 OA 
HETATM    7  C   UNL     1      -8.601  17.640  66.796  1.00  0.00    -0.276 C  
HETATM    8  C   UNL     1      -8.803  16.102  65.710  1.00  0.00    -0.001 C  
HETATM    9  C   UNL     1     -10.695  16.289  68.722  1.00  0.00    -0.309 C  
HETATM   10  C   UNL     1     -11.819  13.566  69.235  1.00  0.00    -0.392 C  
HETATM   11  H   UNL     1     -10.969  18.312  65.087  1.00  0.00     0.000 HD 
HETATM   12  C   UNL     1     -10.267  15.320  66.031  1.00  0.00    -0.335 C  
HETATM   13  C   UNL     1     -10.838  15.729  70.158  1.00  0.00    -0.360 C  
HETATM   14  C   UNL     1     -10.703  14.991  67.551  1.00  0.00    -0.284 C  
HETATM   15  C   UNL     1     -11.104  15.237  64.976  1.00  0.00    -0.436 C  
HETATM   16  C   UNL     1     -11.972  14.114  67.817  1.00  0.00    -0.389 C  
HETATM   17  C   UNL     1     -12.231  12.973  66.808  1.00  0.00    -0.261 C  
HETATM   18  C   UNL     1     -11.533  11.650  67.029  1.00  0.00    -0.336 C  
HETATM   19  C   UNL     1     -11.447  11.239  68.464  1.00  0.00    -0.306 C  
HETATM   20  C   UNL     1     -11.583  12.271  69.515  1.00  0.00    -0.366 C  
HETATM   21  O   UNL     1     -11.205  10.076  68.785  1.00  0.00    -0.205 OA 
ENDROOT
BRANCH   4  22
HETATM   22  C   UNL     1     -10.453  19.034  67.337  1.00  0.00    -0.539 C  
HETATM   23  C   UNL     1     -10.771  20.164  67.567  1.00  0.00    -0.237 C  
ENDBRANCH   4  22
BRANCH   7  24
HETATM   24  C   UNL     1      -7.692  18.728  66.272  1.00  0.00    -0.295 C  
HETATM   25  C   UNL     1      -6.229  18.367  66.509  1.00  0.00    -0.205 C  
ENDBRANCH   7  24
TORSDOF 2
ENDMDL
MODEL        3
REMARK 921   NORMALIZED FREE ENERGY PREDICTED BY IDOCK:   -6.38 KCAL/MOL
REMARK 922        TOTAL FREE ENERGY PREDICTED BY IDOCK:   -7.38 KCAL/MOL
REMARK 923 INTER-LIGAND FREE ENERGY PREDICTED BY IDOCK:   -7.15 KCAL/MOL
REMARK 924 INTRA-LIGAND FREE ENERGY PREDICTED BY IDOCK:   -0.23 KCAL/MOL
REMARK 927      BINDING AFFINITY PREDICTED BY RF-SCORE:    0.00 PKD
ROOT
HETATM    1  C   UNL     1      -9.332  10.702  67.394  1.00  0.00    -0.157 C  
HETATM    2  C   UNL     1      -9.947   9.911  66.407  1.00  0.00    -0.309 C  
HETATM    3  C   UNL     1     -10.808  10.829  67.191  1.00  0.00    -0.335 C  
HETATM    4  C   UNL     1      -9.797  12.261  68.266  1.00  0.00    -0.217 C  
HETATM    5  C   UNL     1      -9.830   7.849  70.501  1.00  0.00    -0.186 C  
HETATM    6  O   UNL     1     -10.204  13.551  68.770  1.00  0.00    -0.332 OA 
HETATM    7  C   UNL     1     -10.361  12.324  67.026  1.00  0.00    -0.237 C  
HETATM    8  C   UNL     1     -12.019  12.493  67.925  1.00  0.00    -0.283 C  
HETATM    9  C   UNL     1      -9.713  10.047  69.104  1.00  0.00    -0.217 C  
HETATM   10  C   UNL     1     -11.195   8.268  70.995  1.00  0.00    -0.291 C  
HETATM   11  H   UNL     1      -9.738  14.213  69.267  1.00  0.00     0.000 HD 
HETATM   12  C   UNL     1     -11.926  11.868  69.493  1.00  0.00    -0.355 C  
HETATM   13  C   UNL     1      -9.418   8.530  69.188  1.00  0.00    -0.154 C  
HETATM   14  C   UNL     1     -11.296  10.404  69.754  1.00  0.00    -0.353 C  
HETATM   15  C   UNL     1     -12.175  12.763  70.471  1.00  0.00    -0.389 C  
HETATM   16  C   UNL     1     -11.379   9.772  71.184  1.00  0.00    -0.459 C  
HETATM   17  C   UNL     1     -12.664  10.077  71.986  1.00  0.00    -0.439 C  
HETATM   18  C   UNL     1     -13.873   9.197  71.761  1.00  0.00    -0.425 C  
HETATM   19  C   UNL     1     -13.548   7.749  71.583  1.00  0.00    -0.357 C  
HETATM   20  C   UNL     1     -12.178   7.366  71.176  1.00  0.00    -0.357 C  
HETATM   21  O   UNL     1     -14.408   6.878  71.707  1.00  0.00    -0.350 OA 
ENDROOT
BRANCH   4  22
HETATM   22  C   UNL     1      -8.292  12.618  68.165  1.00  0.00    -0.175 C  
HETATM   23  C   UNL     1      -7.165  13.014  68.089  1.00  0.00    -0.116 C  
ENDBRANCH   4  22
BRANCH   7  24
HETATM   24  C   UNL     1     -10.096  13.295  65.899  1.00  0.00    -0.296 C  
HETATM   25  C   UNL     1     -10.704  12.787  64.595  1.00  0.00    -0.361 C  
ENDBRANCH   7  24
TORSDOF 2
ENDMDL
MODEL        4
REMARK 921   NORMALIZED FREE ENERGY PREDICTED BY IDOCK:   -6.35 KCAL/MOL
REMARK 922        TOTAL FREE ENERGY PREDICTED BY IDOCK:   -7.35 KCAL/MOL
REMARK 923 INTER-LIGAND FREE ENERGY PREDICTED BY IDOCK:   -7.11 KCAL/MOL
REMARK 924 INTRA-LIGAND FREE ENERGY PREDICTED BY IDOCK:   -0.23 KCAL/MOL
REMARK 927      BINDING AFFINITY PREDICTED BY RF-SCORE:    0.00 PKD
ROOT
HETATM    1  C   UNL     1      -9.631  12.875  67.497  1.00  0.00    -0.200 C  
HETATM    2  C   UNL     1      -8.399  13.120  68.132  1.00  0.00    -0.161 C  
HETATM    3  C   UNL     1      -9.367  12.233  68.821  1.00  0.00     0.093 C  
HETATM    4  C   UNL     1     -10.915  11.558  67.648  1.00  0.00    -0.242 C  
HETATM    5  C   UNL     1     -11.622  16.168  69.296  1.00  0.00    -0.270 C  
HETATM    6  O   UNL     1     -11.771  10.400  67.757  1.00  0.00    -0.677 OA 
HETATM    7  C   UNL     1      -9.720  10.975  67.952  1.00  0.00    -0.183 C  
HETATM    8  C   UNL     1     -10.497  10.544  69.624  1.00  0.00    -0.257 C  
HETATM    9  C   UNL     1     -11.009  13.824  68.332  1.00  0.00    -0.275 C  
HETATM   10  C   UNL     1     -12.118  15.490  70.552  1.00  0.00    -0.423 C  
HETATM   11  H   UNL     1     -12.486  10.089  67.215  1.00  0.00     0.000 HD 
HETATM   12  C   UNL     1     -11.788  11.577  69.978  1.00  0.00    -0.435 C  
HETATM   13  C   UNL     1     -10.629  15.316  68.492  1.00  0.00    -0.237 C  
HETATM   14  C   UNL     1     -11.617  13.177  69.838  1.00  0.00    -0.255 C  
HETATM   15  C   UNL     1     -12.978  10.960  70.129  1.00  0.00    -0.032 C  
HETATM   16  C   UNL     1     -12.761  14.122  70.337  1.00  0.00    -0.341 C  
HETATM   17  C   UNL     1     -13.518  13.659  71.601  1.00  0.00    -0.398 C  
HETATM   18  C   UNL     1     -12.934  14.008  72.952  1.00  0.00    -0.437 C  
HETATM   19  C   UNL     1     -12.330  15.375  73.021  1.00  0.00    -0.425 C  
HETATM   20  C   UNL     1     -11.928  16.045  71.764  1.00  0.00    -0.592 C  
HETATM   21  O   UNL     1     -12.105  15.923  74.098  1.00  0.00    -0.470 OA 
ENDROOT
BRANCH   4  22
HETATM   22  C   UNL     1     -11.047  11.686  66.109  1.00  0.00    -0.335 C  
HETATM   23  C   UNL     1     -11.271  11.802  64.938  1.00  0.00    -0.328 C  
ENDBRANCH   4  22
BRANCH   7  24
HETATM   24  C   UNL     1      -8.984   9.866  67.238  1.00  0.00    -0.145 C  
HETATM   25  C   UNL     1      -7.554   9.746  67.757  1.00  0.00    -0.090 C  
ENDBRANCH   7  24
TORSDOF 2
ENDMDL
MODEL        5
REMARK 921   NORMALIZED FREE ENERGY PREDICTED BY IDOCK:   -6.32 KCAL/MOL
REMARK 922        TOTAL FREE ENERGY PREDICTED BY IDOCK:   -7.31 KCAL/MOL
REMARK 923 INTER-LIGAND FREE ENERGY PREDICTED BY IDOCK:   -7.10 KCAL/MOL
REMARK 924 INTRA-LIGAND FREE ENERGY PREDICTED BY IDOCK:   -0.22 KCAL/MOL
REMARK 927      BINDING AFFINITY PREDICTED BY RF-SCORE:    0.00 PKD
ROOT
HETATM    1  C   UNL     1     -10.765  15.716  67.115  1.00  0.00    -0.314 C  
HETATM    2  C   UNL     1     -10.660  15.709  65.712  1.00  0.00    -0.374 C  
HETATM    3  C   UNL     1      -9.424  15.480  66.498  1.00  0.00    -0.299 C  
HETATM    4  C   UNL     1      -9.726  15.047  68.485  1.00  0.00    -0.217 C  
HETATM    5  C   UNL     1     -10.045  19.884  67.505  1.00  0.00    -0.566 C  
HETATM    6  O   UNL     1      -8.908  14.356  69.454  1.00  0.00    -0.383 OA 
HETATM    7  C   UNL     1      -9.549  14.215  67.419  1.00  0.00    -0.229 C  
HETATM    8  C   UNL     1      -7.707  14.637  67.555  1.00  0.00    -0.216 C  
HETATM    9  C   UNL     1     -10.062  17.296  67.826  1.00  0.00    -0.311 C  
HETATM   10  C   UNL     1      -8.537  19.858  67.603  1.00  0.00    -0.385 C  
HETATM   11  H   UNL     1      -9.048  14.156  70.373  1.00  0.00     0.000 HD 
HETATM   12  C   UNL     1      -7.479  16.108  68.356  1.00  0.00    -0.153 C  
HETATM   13  C   UNL     1     -10.656  18.532  67.107  1.00  0.00    -0.439 C  
HETATM   14  C   UNL     1      -8.320  17.416  67.921  1.00  0.00    -0.230 C  
HETATM   15  C   UNL     1      -6.761  16.024  69.495  1.00  0.00    -0.199 C  
HETATM   16  C   UNL     1      -7.971  18.805  68.553  1.00  0.00    -0.377 C  
HETATM   17  C   UNL     1      -6.474  19.062  68.836  1.00  0.00    -0.290 C  
HETATM   18  C   UNL     1      -5.615  19.598  67.712  1.00  0.00    -0.199 C  
HETATM   19  C   UNL     1      -6.297  20.617  66.857  1.00  0.00    -0.249 C  
HETATM   20  C   UNL     1      -7.776  20.668  66.844  1.00  0.00    -0.274 C  
HETATM   21  O   UNL     1      -5.659  21.366  66.119  1.00  0.00    -0.244 OA 
ENDROOT
BRANCH   4  22
HETATM   22  C   UNL     1     -11.073  14.715  69.177  1.00  0.00    -0.285 C  
HETATM   23  C   UNL     1     -12.048  14.396  69.795  1.00  0.00    -0.386 C  
ENDBRANCH   4  22
BRANCH   7  24
HETATM   24  C   UNL     1      -9.903  12.754  67.271  1.00  0.00    -0.207 C  
HETATM   25  C   UNL     1      -9.950  12.357  65.798  1.00  0.00    -0.270 C  
ENDBRANCH   7  24
TORSDOF 2
ENDMDL
MODEL        6
REMARK 921   NORMALIZED FREE ENERGY PREDICTED BY IDOCK:   -6.15 KCAL/MOL
REMARK 922        TOTAL FREE ENERGY PREDICTED BY IDOCK:   -7.12 KCAL/MOL
REMARK 923 INTER-LIGAND FREE ENERGY PREDICTED BY IDOCK:   -6.90 KCAL/MOL
REMARK 924 INTRA-LIGAND FREE ENERGY PREDICTED BY IDOCK:   -0.22 KCAL/MOL
REMARK 927      BINDING AFFINITY PREDICTED BY RF-SCORE:    0.00 PKD
ROOT
HETATM    1  C   UNL     1     -10.169  10.405  69.677  1.00  0.00    -0.245 C  
HETATM    2  C   UNL     1     -11.543  10.469  69.974  1.00  0.00    -0.392 C  
HETATM    3  C   UNL     1     -11.134   9.728  68.757  1.00  0.00    -0.140 C  
HETATM    4  C   UNL     1      -9.129   9.287  68.642  1.00  0.00    -0.132 C  
HETATM    5  C   UNL     1     -10.147  13.946  67.330  1.00  0.00    -0.242 C  
HETATM    6  O   UNL     1      -8.409   8.263  67.921  1.00  0.00    -0.126 OA 
HETATM    7  C   UNL     1     -10.172   8.537  69.100  1.00  0.00    -0.218 C  
HETATM    8  C   UNL     1     -10.581   8.218  67.279  1.00  0.00    -0.335 C  
HETATM    9  C   UNL     1      -9.744  11.540  68.253  1.00  0.00    -0.198 C  
HETATM   10  C   UNL     1     -10.481  13.343  65.985  1.00  0.00    -0.294 C  
HETATM   11  H   UNL     1      -7.483   8.059  67.867  1.00  0.00     0.000 HD 
HETATM   12  C   UNL     1      -9.929   9.425  66.290  1.00  0.00    -0.353 C  
HETATM   13  C   UNL     1     -10.306  12.962  68.498  1.00  0.00    -0.239 C  
HETATM   14  C   UNL     1     -10.153  10.984  66.647  1.00  0.00    -0.262 C  
HETATM   15  C   UNL     1      -9.040   8.985  65.376  1.00  0.00    -0.250 C  
HETATM   16  C   UNL     1      -9.696  12.082  65.630  1.00  0.00    -0.241 C  
HETATM   17  C   UNL     1      -9.859  11.730  64.134  1.00  0.00    -0.248 C  
HETATM   18  C   UNL     1     -11.199  11.987  63.481  1.00  0.00    -0.526 C  
HETATM   19  C   UNL     1     -11.860  13.253  63.926  1.00  0.00    -0.465 C  
HETATM   20  C   UNL     1     -11.453  13.861  65.212  1.00  0.00    -0.319 C  
HETATM   21  O   UNL     1     -12.775  13.760  63.278  1.00  0.00    -0.783 OA 
ENDROOT
BRANCH   4  22
HETATM   22  C   UNL     1      -8.072   9.436  69.766  1.00  0.00    -0.134 C  
HETATM   23  C   UNL     1      -7.172   9.570  70.544  1.00  0.00    -0.141 C  
ENDBRANCH   4  22
BRANCH   7  24
HETATM   24  C   UNL     1     -10.162   7.335  70.016  1.00  0.00    -0.206 C  
HETATM   25  C   UNL     1     -11.578   6.809  70.231  1.00  0.00    -0.417 C  
ENDBRANCH   7  24
TORSDOF 2
ENDMDL
MODEL        7
REMARK 921   NORMALIZED FREE ENERGY PREDICTED BY IDOCK:   -6.15 KCAL/MOL
REMARK 922        TOTAL FREE ENERGY PREDICTED BY IDOCK:   -7.12 KCAL/MOL
REMARK 923 INTER-LIGAND FREE ENERGY PREDICTED BY IDOCK:   -7.00 KCAL/MOL
REMARK 924 INTRA-LIGAND FREE ENERGY PREDICTED BY IDOCK:   -0.11 KCAL/MOL
REMARK 927      BINDING AFFINITY PREDICTED BY RF-SCORE:    0.00 PKD
ROOT
HETATM    1  C   UNL     1      -9.050  14.599  68.893  1.00  0.00    -0.148 C  
HETATM    2  C   UNL     1      -7.683  14.275  68.816  1.00  0.00    -0.134 C  
HETATM    3  C   UNL     1      -8.322  14.863  67.614  1.00  0.00    -0.178 C  
HETATM    4  C   UNL     1     -10.160  15.725  67.941  1.00  0.00    -0.230 C  
HETATM    5  C   UNL     1     -10.391  10.799  67.547  1.00  0.00    -0.244 C  
HETATM    6  O   UNL     1     -10.888  16.741  67.218  1.00  0.00    -0.258 OA 
HETATM    7  C   UNL     1      -8.917  16.284  67.911  1.00  0.00    -0.187 C  
HETATM    8  C   UNL     1      -9.049  16.173  66.025  1.00  0.00    -0.354 C  
HETATM    9  C   UNL     1     -10.080  13.358  67.947  1.00  0.00    -0.238 C  
HETATM   10  C   UNL     1     -10.398  11.062  66.059  1.00  0.00    -0.311 C  
HETATM   11  H   UNL     1     -11.737  17.139  67.369  1.00  0.00     0.000 HD 
HETATM   12  C   UNL     1     -10.167  14.992  65.563  1.00  0.00    -0.406 C  
HETATM   13  C   UNL     1      -9.715  11.911  68.362  1.00  0.00    -0.201 C  
HETATM   14  C   UNL     1     -10.106  13.512  66.206  1.00  0.00    -0.298 C  
HETATM   15  C   UNL     1     -11.210  15.455  64.844  1.00  0.00    -0.410 C  
HETATM   16  C   UNL     1     -11.033  12.385  65.639  1.00  0.00    -0.321 C  
HETATM   17  C   UNL     1     -11.287  12.420  64.116  1.00  0.00    -0.442 C  
HETATM   18  C   UNL     1     -10.280  11.751  63.207  1.00  0.00    -0.452 C  
HETATM   19  C   UNL     1      -9.733  10.467  63.745  1.00  0.00    -0.326 C  
HETATM   20  C   UNL     1      -9.815  10.206  65.199  1.00  0.00    -0.394 C  
HETATM   21  O   UNL     1      -9.164   9.657  63.014  1.00  0.00    -0.258 OA 
ENDROOT
BRANCH   4  22
HETATM   22  C   UNL     1     -10.824  16.023  69.310  1.00  0.00    -0.300 C  
HETATM   23  C   UNL     1     -11.237  16.200  70.419  1.00  0.00    -0.394 C  
ENDBRANCH   4  22
BRANCH   7  24
HETATM   24  C   UNL     1      -8.441  17.599  68.483  1.00  0.00    -0.289 C  
HETATM   25  C   UNL     1      -6.917  17.668  68.481  1.00  0.00    -0.231 C  
ENDBRANCH   7  24
TORSDOF 2
ENDMDL
MODEL        8
REMARK 921   NORMALIZED FREE ENERGY PREDICTED BY IDOCK:   -6.14 KCAL/MOL
REMARK 922        TOTAL FREE ENERGY PREDICTED BY IDOCK:   -7.11 KCAL/MOL
REMARK 923 INTER-LIGAND FREE ENERGY PREDICTED BY IDOCK:   -6.87 KCAL/MOL
REMARK 924 INTRA-LIGAND FREE ENERGY PREDICTED BY IDOCK:   -0.25 KCAL/MOL
REMARK 927      BINDING AFFINITY PREDICTED BY RF-SCORE:    0.00 PKD
ROOT
HETATM    1  C   UNL     1      -9.466  12.857  66.962  1.00  0.00    -0.235 C  
HETATM    2  C   UNL     1      -8.224  13.190  67.534  1.00  0.00    -0.183 C  
HETATM    3  C   UNL     1      -9.130  12.313  68.314  1.00  0.00    -0.187 C  
HETATM    4  C   UNL     1     -10.690  11.504  67.245  1.00  0.00    -0.244 C  
HETATM    5  C   UNL     1     -11.525  16.182  68.620  1.00  0.00    -0.340 C  
HETATM    6  O   UNL     1     -11.493  10.324  67.461  1.00  0.00    -0.527 OA 
HETATM    7  C   UNL     1      -9.462  10.989  67.541  1.00  0.00    -0.175 C  
HETATM    8  C   UNL     1     -10.162  10.639  69.265  1.00  0.00    -0.235 C  
HETATM    9  C   UNL     1     -10.852  13.805  67.786  1.00  0.00    -0.262 C  
HETATM   10  C   UNL     1     -11.949  15.569  69.935  1.00  0.00    -0.381 C  
HETATM   11  H   UNL     1     -12.214   9.951  66.967  1.00  0.00     0.000 HD 
HETATM   12  C   UNL     1     -11.481  11.643  69.601  1.00  0.00    -0.359 C  
HETATM   13  C   UNL     1     -10.527  15.318  67.836  1.00  0.00    -0.253 C  
HETATM   14  C   UNL     1     -11.380  13.235  69.352  1.00  0.00    -0.280 C  
HETATM   15  C   UNL     1     -12.639  10.991  69.835  1.00  0.00    -0.202 C  
HETATM   16  C   UNL     1     -12.543  14.166  69.832  1.00  0.00    -0.205 C  
HETATM   17  C   UNL     1     -13.236  13.759  71.151  1.00  0.00    -0.277 C  
HETATM   18  C   UNL     1     -12.619  14.218  72.454  1.00  0.00    -0.322 C  
HETATM   19  C   UNL     1     -12.070  15.608  72.412  1.00  0.00    -0.459 C  
HETATM   20  C   UNL     1     -11.740  16.209  71.101  1.00  0.00    -0.454 C  
HETATM   21  O   UNL     1     -11.830  16.234  73.443  1.00  0.00    -0.402 OA 
ENDROOT
BRANCH   4  22
HETATM   22  C   UNL     1     -10.881  11.526  65.707  1.00  0.00    -0.319 C  
HETATM   23  C   UNL     1     -11.134  11.479  64.538  1.00  0.00    -0.340 C  
ENDBRANCH   4  22
BRANCH   7  24
HETATM   24  C   UNL     1      -8.707   9.864  66.872  1.00  0.00    -0.135 C  
HETATM   25  C   UNL     1      -7.311   9.720  67.472  1.00  0.00    -0.090 C  
ENDBRANCH   7  24
TORSDOF 2
ENDMDL
MODEL        9
REMARK 921   NORMALIZED FREE ENERGY PREDICTED BY IDOCK:   -5.99 KCAL/MOL
REMARK 922        TOTAL FREE ENERGY PREDICTED BY IDOCK:   -6.94 KCAL/MOL
REMARK 923 INTER-LIGAND FREE ENERGY PREDICTED BY IDOCK:   -6.71 KCAL/MOL
REMARK 924 INTRA-LIGAND FREE ENERGY PREDICTED BY IDOCK:   -0.23 KCAL/MOL
REMARK 927      BINDING AFFINITY PREDICTED BY RF-SCORE:    0.00 PKD
ROOT
HETATM    1  C   UNL     1      -9.516  14.122  68.456  1.00  0.00    -0.202 C  
HETATM    2  C   UNL     1      -8.281  14.752  68.212  1.00  0.00    -0.142 C  
HETATM    3  C   UNL     1      -9.286  14.757  67.121  1.00  0.00    -0.233 C  
HETATM    4  C   UNL     1     -11.193  14.244  67.695  1.00  0.00    -0.304 C  
HETATM    5  C   UNL     1      -8.256  10.315  67.055  1.00  0.00    -0.122 C  
HETATM    6  O   UNL     1     -12.482  14.533  67.113  1.00  0.00    -0.567 OA 
HETATM    7  C   UNL     1     -10.613  15.471  67.560  1.00  0.00    -0.297 C  
HETATM    8  C   UNL     1     -10.867  15.248  65.696  1.00  0.00    -0.371 C  
HETATM    9  C   UNL     1      -9.613  12.484  67.560  1.00  0.00    -0.187 C  
HETATM   10  C   UNL     1      -8.607  10.470  65.593  1.00  0.00    -0.182 C  
HETATM   11  H   UNL     1     -13.363  14.296  67.378  1.00  0.00     0.000 HD 
HETATM   12  C   UNL     1     -11.012  13.612  65.294  1.00  0.00    -0.314 C  
HETATM   13  C   UNL     1      -8.359  11.624  67.851  1.00  0.00    -0.143 C  
HETATM   14  C   UNL     1      -9.939  12.537  65.843  1.00  0.00    -0.269 C  
HETATM   15  C   UNL     1     -12.186  13.275  64.721  1.00  0.00    -0.466 C  
HETATM   16  C   UNL     1      -9.987  11.063  65.320  1.00  0.00    -0.320 C  
HETATM   17  C   UNL     1     -10.384  10.883  63.838  1.00  0.00    -0.397 C  
HETATM   18  C   UNL     1      -9.300  10.993  62.788  1.00  0.00    -0.372 C  
HETATM   19  C   UNL     1      -7.998  10.378  63.191  1.00  0.00    -0.125 C  
HETATM   20  C   UNL     1      -7.719  10.166  64.628  1.00  0.00    -0.141 C  
HETATM   21  O   UNL     1      -7.135  10.103  62.359  1.00  0.00    -0.120 OA 
ENDROOT
BRANCH   4  22
HETATM   22  C   UNL     1     -11.723  14.083  69.142  1.00  0.00    -0.375 C  
HETATM   23  C   UNL     1     -12.247  13.975  70.213  1.00  0.00    -0.430 C  
ENDBRANCH   4  22
BRANCH   7  24
HETATM   24  C   UNL     1     -11.027  16.799  68.149  1.00  0.00    -0.309 C  
HETATM   25  C   UNL     1      -9.876  17.798  68.089  1.00  0.00    -0.326 C  
ENDBRANCH   7  24
TORSDOF 2
ENDMDL
MODEL       10
REMARK 921   NORMALIZED FREE ENERGY PREDICTED BY IDOCK:   -5.99 KCAL/MOL
REMARK 922        TOTAL FREE ENERGY PREDICTED BY IDOCK:   -6.94 KCAL/MOL
REMARK 923 INTER-LIGAND FREE ENERGY PREDICTED BY IDOCK:   -6.69 KCAL/MOL
REMARK 924 INTRA-LIGAND FREE ENERGY PREDICTED BY IDOCK:   -0.25 KCAL/MOL
REMARK 927      BINDING AFFINITY PREDICTED BY RF-SCORE:    0.00 PKD
ROOT
HETATM    1  C   UNL     1      -9.455   8.619  69.570  1.00  0.00    -0.162 C  
HETATM    2  C   UNL     1      -8.280   9.200  70.082  1.00  0.00    -0.161 C  
HETATM    3  C   UNL     1      -9.418   9.008  71.013  1.00  0.00    -0.342 C  
HETATM    4  C   UNL     1     -10.898   7.755  70.329  1.00  0.00    -0.249 C  
HETATM    5  C   UNL     1     -11.218  12.315  68.440  1.00  0.00    -0.311 C  
HETATM    6  O   UNL     1     -11.895   6.974  71.024  1.00  0.00    -0.316 OA 
HETATM    7  C   UNL     1      -9.823   7.496  71.128  1.00  0.00    -0.180 C  
HETATM    8  C   UNL     1     -10.826   8.293  72.523  1.00  0.00    -0.421 C  
HETATM    9  C   UNL     1     -10.792   9.908  69.348  1.00  0.00    -0.265 C  
HETATM   10  C   UNL     1     -11.928  12.646  69.733  1.00  0.00    -0.365 C  
HETATM   11  H   UNL     1     -12.578   6.395  70.709  1.00  0.00     0.000 HD 
HETATM   12  C   UNL     1     -12.013   9.326  71.904  1.00  0.00    -0.433 C  
HETATM   13  C   UNL     1     -10.253  11.126  68.559  1.00  0.00    -0.209 C  
HETATM   14  C   UNL     1     -11.635  10.430  70.788  1.00  0.00    -0.450 C  
HETATM   15  C   UNL     1     -13.278   8.984  72.224  1.00  0.00    -0.519 C  
HETATM   16  C   UNL     1     -12.704  11.489  70.358  1.00  0.00    -0.138 C  
HETATM   17  C   UNL     1     -13.646  11.993  71.474  1.00  0.00     0.290 C  
HETATM   18  C   UNL     1     -13.176  13.137  72.345  1.00  0.00    -0.519 C  
HETATM   19  C   UNL     1     -12.422  14.195  71.605  1.00  0.00    -0.311 C  
HETATM   20  C   UNL     1     -11.806  13.860  70.302  1.00  0.00    -0.360 C  
HETATM   21  O   UNL     1     -12.252  15.315  72.085  1.00  0.00    -0.326 OA 
ENDROOT
BRANCH   4  22
HETATM   22  C   UNL     1     -10.844   6.835  69.082  1.00  0.00    -0.298 C  
HETATM   23  C   UNL     1     -10.926   6.122  68.125  1.00  0.00    -0.398 C  
ENDBRANCH   4  22
BRANCH   7  24
HETATM   24  C   UNL     1      -9.153   6.178  71.439  1.00  0.00    -0.146 C  
HETATM   25  C   UNL     1      -7.878   6.400  72.247  1.00  0.00    -0.102 C  
ENDBRANCH   7  24
TORSDOF 2
ENDMDL
MODEL       11
REMARK 921   NORMALIZED FREE ENERGY PREDICTED BY IDOCK:   -5.92 KCAL/MOL
REMARK 922        TOTAL FREE ENERGY PREDICTED BY IDOCK:   -6.86 KCAL/MOL
REMARK 923 INTER-LIGAND FREE ENERGY PREDICTED BY IDOCK:   -6.62 KCAL/MOL
REMARK 924 INTRA-LIGAND FREE ENERGY PREDICTED BY IDOCK:   -0.24 KCAL/MOL
REMARK 927      BINDING AFFINITY PREDICTED BY RF-SCORE:    0.00 PKD
ROOT
HETATM    1  C   UNL     1     -11.477  13.140  67.683  1.00  0.00    -0.366 C  
HETATM    2  C   UNL     1     -11.225  14.073  68.706  1.00  0.00    -0.298 C  
HETATM    3  C   UNL     1     -10.076  13.296  68.182  1.00  0.00    -0.241 C  
HETATM    4  C   UNL     1     -10.428  12.314  66.409  1.00  0.00    -0.236 C  
HETATM    5  C   UNL     1     -12.244   9.907  70.330  1.00  0.00    -0.190 C  
HETATM    6  O   UNL     1      -9.535  11.847  65.375  1.00  0.00    -0.357 OA 
HETATM    7  C   UNL     1      -9.868  13.535  66.645  1.00  0.00    -0.279 C  
HETATM    8  C   UNL     1      -8.301  12.586  67.124  1.00  0.00    -0.179 C  
HETATM    9  C   UNL     1     -11.426  11.394  68.349  1.00  0.00    -0.367 C  
HETATM   10  C   UNL     1     -10.835   9.383  70.481  1.00  0.00    -0.336 C  
HETATM   11  H   UNL     1      -9.698  11.394  64.556  1.00  0.00     0.000 HD 
HETATM   12  C   UNL     1      -8.668  10.998  67.576  1.00  0.00    -0.128 C  
HETATM   13  C   UNL     1     -12.320  11.260  69.607  1.00  0.00    -0.262 C  
HETATM   14  C   UNL     1      -9.847  10.702  68.639  1.00  0.00    -0.183 C  
HETATM   15  C   UNL     1      -8.090  10.048  66.813  1.00  0.00    -0.118 C  
HETATM   16  C   UNL     1     -10.054   9.246  69.176  1.00  0.00    -0.204 C  
HETATM   17  C   UNL     1      -8.770   8.412  69.384  1.00  0.00    -0.137 C  
HETATM   18  C   UNL     1      -8.025   8.559  70.692  1.00  0.00    -0.104 C  
HETATM   19  C   UNL     1      -8.913   8.691  71.887  1.00  0.00    -0.231 C  
HETATM   20  C   UNL     1     -10.313   9.131  71.696  1.00  0.00    -0.388 C  
HETATM   21  O   UNL     1      -8.488   8.503  73.026  1.00  0.00    -0.360 OA 
ENDROOT
BRANCH   4  22
HETATM   22  C   UNL     1     -11.652  12.483  65.473  1.00  0.00    -0.429 C  
HETATM   23  C   UNL     1     -12.531  12.553  64.664  1.00  0.00    -0.539 C  
ENDBRANCH   4  22
BRANCH   7  24
HETATM   24  C   UNL     1      -9.693  14.709  65.709  1.00  0.00    -0.331 C  
HETATM   25  C   UNL     1      -9.034  15.880  66.430  1.00  0.00    -0.361 C  
ENDBRANCH   7  24
TORSDOF 2
ENDMDL
MODEL       12
REMARK 921   NORMALIZED FREE ENERGY PREDICTED BY IDOCK:   -5.90 KCAL/MOL
REMARK 922        TOTAL FREE ENERGY PREDICTED BY IDOCK:   -6.84 KCAL/MOL
REMARK 923 INTER-LIGAND FREE ENERGY PREDICTED BY IDOCK:   -6.69 KCAL/MOL
REMARK 924 INTRA-LIGAND FREE ENERGY PREDICTED BY IDOCK:   -0.15 KCAL/MOL
REMARK 927      BINDING AFFINITY PREDICTED BY RF-SCORE:    0.00 PKD
ROOT
HETATM    1  C   UNL     1      -9.176   9.404  65.731  1.00  0.00    -0.276 C  
HETATM    2  C   UNL     1      -7.977   9.877  65.166  1.00  0.00    -0.139 C  
HETATM    3  C   UNL     1      -8.474  10.548  66.391  1.00  0.00    -0.143 C  
HETATM    4  C   UNL     1      -9.944   9.526  67.405  1.00  0.00    -0.189 C  
HETATM    5  C   UNL     1     -11.678  12.006  63.492  1.00  0.00    -0.566 C  
HETATM    6  O   UNL     1     -10.368   9.570  68.784  1.00  0.00    -0.195 OA 
HETATM    7  C   UNL     1      -8.593   9.545  67.592  1.00  0.00    -0.122 C  
HETATM    8  C   UNL     1      -8.858  11.220  68.434  1.00  0.00    -0.159 C  
HETATM    9  C   UNL     1     -10.585  10.584  65.385  1.00  0.00    -0.143 C  
HETATM   10  C   UNL     1     -11.688  13.192  64.428  1.00  0.00    -0.429 C  
HETATM   11  H   UNL     1     -11.047   9.098  69.252  1.00  0.00     0.000 HD 
HETATM   12  C   UNL     1     -10.305  11.932  67.928  1.00  0.00    -0.212 C  
HETATM   13  C   UNL     1     -10.652  10.931  63.877  1.00  0.00    -0.285 C  
HETATM   14  C   UNL     1     -10.660  12.036  66.356  1.00  0.00    -0.278 C  
HETATM   15  C   UNL     1     -11.198  12.156  68.914  1.00  0.00    -0.320 C  
HETATM   16  C   UNL     1     -11.915  12.852  65.900  1.00  0.00    -0.504 C  
HETATM   17  C   UNL     1     -12.231  14.122  66.720  1.00  0.00    -0.429 C  
HETATM   18  C   UNL     1     -11.527  15.408  66.348  1.00  0.00     0.001 C  
HETATM   19  C   UNL     1     -11.366  15.610  64.876  1.00  0.00    -0.315 C  
HETATM   20  C   UNL     1     -11.441  14.437  63.978  1.00  0.00     0.050 C  
HETATM   21  O   UNL     1     -11.111  16.718  64.405  1.00  0.00    -1.072 OA 
ENDROOT
BRANCH   4  22
HETATM   22  C   UNL     1     -10.408   8.068  67.160  1.00  0.00    -0.395 C  
HETATM   23  C   UNL     1     -10.883   6.982  66.989  1.00  0.00    -0.413 C  
ENDBRANCH   4  22
BRANCH   7  24
HETATM   24  C   UNL     1      -7.710   8.553  68.313  1.00  0.00    -0.102 C  
HETATM   25  C   UNL     1      -6.289   8.592  67.757  1.00  0.00    -0.057 C  
ENDBRANCH   7  24
TORSDOF 2
ENDMDL
MODEL       13
REMARK 921   NORMALIZED FREE ENERGY PREDICTED BY IDOCK:   -5.86 KCAL/MOL
REMARK 922        TOTAL FREE ENERGY PREDICTED BY IDOCK:   -6.79 KCAL/MOL
REMARK 923 INTER-LIGAND FREE ENERGY PREDICTED BY IDOCK:   -6.54 KCAL/MOL
REMARK 924 INTRA-LIGAND FREE ENERGY PREDICTED BY IDOCK:   -0.25 KCAL/MOL
REMARK 927      BINDING AFFINITY PREDICTED BY RF-SCORE:    0.00 PKD
ROOT
HETATM    1  C   UNL     1      -8.969   9.672  66.875  1.00  0.00    -0.151 C  
HETATM    2  C   UNL     1      -9.640   8.736  66.066  1.00  0.00    -0.297 C  
HETATM    3  C   UNL     1     -10.432   9.855  66.629  1.00  0.00    -0.239 C  
HETATM    4  C   UNL     1      -9.321  11.407  67.395  1.00  0.00    -0.167 C  
HETATM    5  C   UNL     1      -9.663   7.573  70.502  1.00  0.00    -0.179 C  
HETATM    6  O   UNL     1      -9.636  12.799  67.613  1.00  0.00    -0.182 OA 
HETATM    7  C   UNL     1      -9.881  11.248  66.162  1.00  0.00    -0.262 C  
HETATM    8  C   UNL     1     -11.522  11.715  66.983  1.00  0.00    -0.336 C  
HETATM    9  C   UNL     1      -9.393   9.417  68.678  1.00  0.00    -0.142 C  
HETATM   10  C   UNL     1     -10.994   8.181  70.879  1.00  0.00    -0.266 C  
HETATM   11  H   UNL     1      -9.123  13.516  67.967  1.00  0.00     0.000 HD 
HETATM   12  C   UNL     1     -11.471  11.428  68.648  1.00  0.00    -0.359 C  
HETATM   13  C   UNL     1      -9.205   7.934  69.081  1.00  0.00    -0.144 C  
HETATM   14  C   UNL     1     -10.946  10.011  69.218  1.00  0.00    -0.264 C  
HETATM   15  C   UNL     1     -11.655  12.523  69.414  1.00  0.00    -0.368 C  
HETATM   16  C   UNL     1     -11.071   9.700  70.747  1.00  0.00    -0.403 C  
HETATM   17  C   UNL     1     -12.330  10.254  71.450  1.00  0.00    -0.502 C  
HETATM   18  C   UNL     1     -13.599   9.433  71.397  1.00  0.00    -0.362 C  
HETATM   19  C   UNL     1     -13.377   7.960  71.531  1.00  0.00    -0.303 C  
HETATM   20  C   UNL     1     -12.038   7.406  71.232  1.00  0.00    -0.359 C  
HETATM   21  O   UNL     1     -14.297   7.196  71.822  1.00  0.00    -0.417 OA 
ENDROOT
BRANCH   4  22
HETATM   22  C   UNL     1      -7.795  11.630  67.242  1.00  0.00    -0.157 C  
HETATM   23  C   UNL     1      -6.631  11.905  67.192  1.00  0.00    -0.148 C  
ENDBRANCH   4  22
BRANCH   7  24
HETATM   24  C   UNL     1      -9.550  11.940  64.860  1.00  0.00    -0.087 C  
HETATM   25  C   UNL     1     -10.251  11.255  63.691  1.00  0.00    -0.446 C  
ENDBRANCH   7  24
TORSDOF 2
ENDMDL
MODEL       14
REMARK 921   NORMALIZED FREE ENERGY PREDICTED BY IDOCK:   -5.83 KCAL/MOL
REMARK 922        TOTAL FREE ENERGY PREDICTED BY IDOCK:   -6.77 KCAL/MOL
REMARK 923 INTER-LIGAND FREE ENERGY PREDICTED BY IDOCK:   -6.54 KCAL/MOL
REMARK 924 INTRA-LIGAND FREE ENERGY PREDICTED BY IDOCK:   -0.23 KCAL/MOL
REMARK 927      BINDING AFFINITY PREDICTED BY RF-SCORE:    0.00 PKD
ROOT
HETATM    1  C   UNL     1      -8.454  18.140  66.859  1.00  0.00    -0.265 C  
HETATM    2  C   UNL     1      -9.333  18.588  67.861  1.00  0.00    -0.312 C  
HETATM    3  C   UNL     1      -8.414  17.475  68.198  1.00  0.00    -0.254 C  
HETATM    4  C   UNL     1      -6.871  17.191  66.868  1.00  0.00    -0.207 C  
HETATM    5  C   UNL     1     -11.137  15.236  65.304  1.00  0.00    -0.382 C  
HETATM    6  O   UNL     1      -5.575  16.572  67.018  1.00  0.00    -0.241 OA 
HETATM    7  C   UNL     1      -6.911  17.896  68.035  1.00  0.00    -0.197 C  
HETATM    8  C   UNL     1      -6.772  16.220  68.907  1.00  0.00    -0.156 C  
HETATM    9  C   UNL     1      -9.023  16.501  66.161  1.00  0.00    -0.344 C  
HETATM   10  C   UNL     1     -10.757  14.066  66.182  1.00  0.00    -0.289 C  
HETATM   11  H   UNL     1      -4.862  16.441  66.404  1.00  0.00     0.000 HD 
HETATM   12  C   UNL     1      -7.296  14.967  67.900  1.00  0.00    -0.159 C  
HETATM   13  C   UNL     1     -10.516  16.566  65.755  1.00  0.00    -0.343 C  
HETATM   14  C   UNL     1      -8.708  15.076  67.124  1.00  0.00    -0.242 C  
HETATM   15  C   UNL     1      -6.357  14.039  67.622  1.00  0.00    -0.134 C  
HETATM   16  C   UNL     1      -9.256  13.838  66.340  1.00  0.00    -0.158 C  
HETATM   17  C   UNL     1      -8.968  12.457  66.970  1.00  0.00    -0.209 C  
HETATM   18  C   UNL     1      -9.920  11.939  68.025  1.00  0.00    -0.192 C  
HETATM   19  C   UNL     1     -11.358  12.239  67.747  1.00  0.00    -0.301 C  
HETATM   20  C   UNL     1     -11.696  13.341  66.820  1.00  0.00    -0.434 C  
HETATM   21  O   UNL     1     -12.262  11.632  68.320  1.00  0.00    -0.525 OA 
ENDROOT
BRANCH   4  22
HETATM   22  C   UNL     1      -6.445  18.133  65.714  1.00  0.00    -0.311 C  
HETATM   23  C   UNL     1      -6.000  18.853  64.867  1.00  0.00    -0.317 C  
ENDBRANCH   4  22
BRANCH   7  24
HETATM   24  C   UNL     1      -5.998  18.995  68.525  1.00  0.00    -0.231 C  
HETATM   25  C   UNL     1      -6.572  19.656  69.775  1.00  0.00    -0.336 C  
ENDBRANCH   7  24
TORSDOF 2
ENDMDL
MODEL       15
REMARK 921   NORMALIZED FREE ENERGY PREDICTED BY IDOCK:   -5.78 KCAL/MOL
REMARK 922        TOTAL FREE ENERGY PREDICTED BY IDOCK:   -6.70 KCAL/MOL
REMARK 923 INTER-LIGAND FREE ENERGY PREDICTED BY IDOCK:   -6.70 KCAL/MOL
REMARK 924 INTRA-LIGAND FREE ENERGY PREDICTED BY IDOCK:   -0.01 KCAL/MOL
REMARK 927      BINDING AFFINITY PREDICTED BY RF-SCORE:    0.00 PKD
ROOT
HETATM    1  C   UNL     1     -11.572  12.435  67.542  1.00  0.00    -0.431 C  
HETATM    2  C   UNL     1     -11.843  12.456  66.162  1.00  0.00    -0.442 C  
HETATM    3  C   UNL     1     -10.431  12.301  66.585  1.00  0.00    -0.247 C  
HETATM    4  C   UNL     1     -10.167  11.818  68.567  1.00  0.00    -0.210 C  
HETATM    5  C   UNL     1     -11.033  16.637  67.864  1.00  0.00    -0.276 C  
HETATM    6  O   UNL     1      -9.080  11.170  69.262  1.00  0.00    -0.391 OA 
HETATM    7  C   UNL     1     -10.228  11.017  67.465  1.00  0.00    -0.219 C  
HETATM    8  C   UNL     1      -8.447  11.561  67.123  1.00  0.00    -0.158 C  
HETATM    9  C   UNL     1     -10.804  14.049  68.093  1.00  0.00    -0.260 C  
HETATM   10  C   UNL     1      -9.555  16.712  67.560  1.00  0.00    -0.242 C  
HETATM   11  H   UNL     1      -8.958  10.947  70.177  1.00  0.00     0.000 HD 
HETATM   12  C   UNL     1      -8.105  13.032  67.884  1.00  0.00    -0.158 C  
HETATM   13  C   UNL     1     -11.643  15.252  67.598  1.00  0.00    -0.249 C  
HETATM   14  C   UNL     1      -9.111  14.286  67.729  1.00  0.00    -0.195 C  
HETATM   15  C   UNL     1      -7.106  12.979  68.789  1.00  0.00    -0.097 C  
HETATM   16  C   UNL     1      -8.692  15.686  68.291  1.00  0.00    -0.174 C  
HETATM   17  C   UNL     1      -7.193  16.040  68.177  1.00  0.00    -0.137 C  
HETATM   18  C   UNL     1      -6.698  16.650  66.885  1.00  0.00    -0.247 C  
HETATM   19  C   UNL     1      -7.645  17.633  66.273  1.00  0.00    -0.298 C  
HETATM   20  C   UNL     1      -9.075  17.584  66.654  1.00  0.00    -0.287 C  
HETATM   21  O   UNL     1      -7.273  18.435  65.419  1.00  0.00    -0.534 OA 
ENDROOT
BRANCH   4  22
HETATM   22  C   UNL     1     -11.259  11.384  69.578  1.00  0.00    -0.322 C  
HETATM   23  C   UNL     1     -12.014  11.055  70.446  1.00  0.00    -0.459 C  
ENDBRANCH   4  22
BRANCH   7  24
HETATM   24  C   UNL     1     -10.518   9.537  67.367  1.00  0.00    -0.336 C  
HETATM   25  C   UNL     1      -9.905   8.950  66.100  1.00  0.00    -0.326 C  
ENDBRANCH   7  24
TORSDOF 2
ENDMDL
MODEL       16
REMARK 921   NORMALIZED FREE ENERGY PREDICTED BY IDOCK:   -5.77 KCAL/MOL
REMARK 922        TOTAL FREE ENERGY PREDICTED BY IDOCK:   -6.70 KCAL/MOL
REMARK 923 INTER-LIGAND FREE ENERGY PREDICTED BY IDOCK:   -6.47 KCAL/MOL
REMARK 924 INTRA-LIGAND FREE ENERGY PREDICTED BY IDOCK:   -0.23 KCAL/MOL
REMARK 927      BINDING AFFINITY PREDICTED BY RF-SCORE:    0.00 PKD
ROOT
HETATM    1  C   UNL     1      -6.164  17.933  67.332  1.00  0.00    -0.167 C  
HETATM    2  C   UNL     1      -5.713  17.724  66.015  1.00  0.00    -0.241 C  
HETATM    3  C   UNL     1      -7.117  18.161  66.203  1.00  0.00    -0.316 C  
HETATM    4  C   UNL     1      -7.560  18.883  68.077  1.00  0.00    -0.265 C  
HETATM    5  C   UNL     1      -7.505  13.941  67.886  1.00  0.00    -0.155 C  
HETATM    6  O   UNL     1      -8.595  19.774  68.545  1.00  0.00    -0.314 OA 
HETATM    7  C   UNL     1      -7.200  19.544  66.940  1.00  0.00    -0.232 C  
HETATM    8  C   UNL     1      -8.987  19.279  66.370  1.00  0.00    -0.375 C  
HETATM    9  C   UNL     1      -7.284  16.539  67.879  1.00  0.00    -0.153 C  
HETATM   10  C   UNL     1      -8.915  14.087  67.364  1.00  0.00    -0.208 C  
HETATM   11  H   UNL     1      -8.799  20.108  69.410  1.00  0.00     0.000 HD 
HETATM   12  C   UNL     1      -9.695  17.974  67.178  1.00  0.00    -0.297 C  
HETATM   13  C   UNL     1      -6.620  15.166  67.613  1.00  0.00    -0.195 C  
HETATM   14  C   UNL     1      -8.925  16.558  67.277  1.00  0.00    -0.212 C  
HETATM   15  C   UNL     1     -10.783  18.289  67.911  1.00  0.00    -0.335 C  
HETATM   16  C   UNL     1      -9.667  15.315  67.873  1.00  0.00    -0.211 C  
HETATM   17  C   UNL     1     -11.176  15.212  67.556  1.00  0.00    -0.331 C  
HETATM   18  C   UNL     1     -11.591  14.565  66.253  1.00  0.00    -0.364 C  
HETATM   19  C   UNL     1     -10.765  13.378  65.872  1.00  0.00    -0.279 C  
HETATM   20  C   UNL     1      -9.418  13.222  66.463  1.00  0.00    -0.251 C  
HETATM   21  O   UNL     1     -11.156  12.568  65.034  1.00  0.00    -0.285 OA 
ENDROOT
BRANCH   4  22
HETATM   22  C   UNL     1      -6.557  19.225  69.209  1.00  0.00    -0.348 C  
HETATM   23  C   UNL     1      -5.879  19.541  70.143  1.00  0.00    -0.301 C  
ENDBRANCH   4  22
BRANCH   7  24
HETATM   24  C   UNL     1      -6.633  20.935  66.776  1.00  0.00    -0.367 C  
HETATM   25  C   UNL     1      -5.973  21.091  65.409  1.00  0.00    -0.271 C  
ENDBRANCH   7  24
TORSDOF 2
ENDMDL
MODEL       17
REMARK 921   NORMALIZED FREE ENERGY PREDICTED BY IDOCK:   -5.65 KCAL/MOL
REMARK 922        TOTAL FREE ENERGY PREDICTED BY IDOCK:   -6.56 KCAL/MOL
REMARK 923 INTER-LIGAND FREE ENERGY PREDICTED BY IDOCK:   -6.31 KCAL/MOL
REMARK 924 INTRA-LIGAND FREE ENERGY PREDICTED BY IDOCK:   -0.25 KCAL/MOL
REMARK 927      BINDING AFFINITY PREDICTED BY RF-SCORE:    0.00 PKD
ROOT
HETATM    1  C   UNL     1      -9.303   9.210  67.956  1.00  0.00    -0.149 C  
HETATM    2  C   UNL     1      -8.034   9.786  68.144  1.00  0.00    -0.100 C  
HETATM    3  C   UNL     1      -8.907   9.636  69.333  1.00  0.00    -0.183 C  
HETATM    4  C   UNL     1     -10.521   8.388  69.073  1.00  0.00    -0.201 C  
HETATM    5  C   UNL     1     -11.261  12.900  67.188  1.00  0.00    -0.329 C  
HETATM    6  O   UNL     1     -11.320   7.642  70.016  1.00  0.00    -0.425 OA 
HETATM    7  C   UNL     1      -9.284   8.135  69.589  1.00  0.00    -0.155 C  
HETATM    8  C   UNL     1      -9.903   8.984  71.165  1.00  0.00    -0.371 C  
HETATM    9  C   UNL     1     -10.643  10.512  68.033  1.00  0.00    -0.251 C  
HETATM   10  C   UNL     1     -11.627  13.277  68.605  1.00  0.00    -0.362 C  
HETATM   11  H   UNL     1     -12.066   7.065  69.896  1.00  0.00     0.000 HD 
HETATM   12  C   UNL     1     -11.198  10.017  70.828  1.00  0.00    -0.428 C  
HETATM   13  C   UNL     1     -10.307  11.700  67.099  1.00  0.00    -0.247 C  
HETATM   14  C   UNL     1     -11.100  11.085  69.620  1.00  0.00    -0.320 C  
HETATM   15  C   UNL     1     -12.348   9.704  71.460  1.00  0.00    -0.477 C  
HETATM   16  C   UNL     1     -12.234  12.149  69.436  1.00  0.00    -0.135 C  
HETATM   17  C   UNL     1     -12.866  12.696  70.735  1.00  0.00    -0.102 C  
HETATM   18  C   UNL     1     -12.186  13.856  71.429  1.00  0.00    -0.296 C  
HETATM   19  C   UNL     1     -11.630  14.883  70.494  1.00  0.00    -0.286 C  
HETATM   20  C   UNL     1     -11.358  14.503  69.090  1.00  0.00    -0.305 C  
HETATM   21  O   UNL     1     -11.338  16.012  70.884  1.00  0.00    -0.370 OA 
ENDROOT
BRANCH   4  22
HETATM   22  C   UNL     1     -10.784   7.435  67.880  1.00  0.00    -0.217 C  
HETATM   23  C   UNL     1     -11.058   6.632  67.035  1.00  0.00    -0.395 C  
ENDBRANCH   4  22
BRANCH   7  24
HETATM   24  C   UNL     1      -8.567   6.816  69.764  1.00  0.00    -0.141 C  
HETATM   25  C   UNL     1      -7.132   7.039  70.231  1.00  0.00    -0.067 C  
ENDBRANCH   7  24
TORSDOF 2
ENDMDL
MODEL       18
REMARK 921   NORMALIZED FREE ENERGY PREDICTED BY IDOCK:   -5.53 KCAL/MOL
REMARK 922        TOTAL FREE ENERGY PREDICTED BY IDOCK:   -6.42 KCAL/MOL
REMARK 923 INTER-LIGAND FREE ENERGY PREDICTED BY IDOCK:   -6.82 KCAL/MOL
REMARK 924 INTRA-LIGAND FREE ENERGY PREDICTED BY IDOCK:    0.39 KCAL/MOL
REMARK 927      BINDING AFFINITY PREDICTED BY RF-SCORE:    0.00 PKD
ROOT
HETATM    1  C   UNL     1     -11.494   7.718  71.956  1.00  0.00    -0.337 C  
HETATM    2  C   UNL     1     -12.743   7.284  71.476  1.00  0.00    -0.422 C  
HETATM    3  C   UNL     1     -11.575   7.160  70.571  1.00  0.00    -0.331 C  
HETATM    4  C   UNL     1      -9.744   7.372  71.483  1.00  0.00    -0.159 C  
HETATM    5  C   UNL     1     -11.942  11.706  70.561  1.00  0.00    -0.413 C  
HETATM    6  O   UNL     1      -8.427   6.911  71.113  1.00  0.00    -0.122 OA 
HETATM    7  C   UNL     1     -10.458   6.247  71.189  1.00  0.00    -0.271 C  
HETATM    8  C   UNL     1      -9.855   6.479  69.409  1.00  0.00    -0.161 C  
HETATM    9  C   UNL     1     -11.012   9.348  71.175  1.00  0.00    -0.430 C  
HETATM   10  C   UNL     1     -11.367  11.540  69.174  1.00  0.00    -0.351 C  
HETATM   11  H   UNL     1      -7.581   7.008  71.534  1.00  0.00     0.000 HD 
HETATM   12  C   UNL     1      -9.413   8.086  69.123  1.00  0.00    -0.155 C  
HETATM   13  C   UNL     1     -12.164  10.375  71.295  1.00  0.00    -0.491 C  
HETATM   14  C   UNL     1     -10.403   9.293  69.538  1.00  0.00    -0.223 C  
HETATM   15  C   UNL     1      -8.122   8.261  68.773  1.00  0.00    -0.115 C  
HETATM   16  C   UNL     1     -10.058  10.757  69.106  1.00  0.00    -0.224 C  
HETATM   17  C   UNL     1      -9.387  10.916  67.724  1.00  0.00    -0.162 C  
HETATM   18  C   UNL     1     -10.277  10.994  66.502  1.00  0.00    -0.280 C  
HETATM   19  C   UNL     1     -11.529  11.785  66.711  1.00  0.00    -0.281 C  
HETATM   20  C   UNL     1     -12.022  11.997  68.090  1.00  0.00    -0.231 C  
HETATM   21  O   UNL     1     -12.187  12.205  65.761  1.00  0.00    -0.586 OA 
ENDROOT
BRANCH   4  22
HETATM   22  C   UNL     1      -9.456   7.414  73.006  1.00  0.00    -0.233 C  
HETATM   23  C   UNL     1      -9.115   7.467  74.152  1.00  0.00    -0.249 C  
ENDBRANCH   4  22
BRANCH   7  24
HETATM   24  C   UNL     1     -10.344   4.857  71.771  1.00  0.00    -0.249 C  
HETATM   25  C   UNL     1     -11.211   4.722  73.019  1.00  0.00    -0.344 C  
ENDBRANCH   7  24
TORSDOF 2
ENDMDL
MODEL       19
REMARK 921   NORMALIZED FREE ENERGY PREDICTED BY IDOCK:   -5.48 KCAL/MOL
REMARK 922        TOTAL FREE ENERGY PREDICTED BY IDOCK:   -6.37 KCAL/MOL
REMARK 923 INTER-LIGAND FREE ENERGY PREDICTED BY IDOCK:   -6.20 KCAL/MOL
REMARK 924 INTRA-LIGAND FREE ENERGY PREDICTED BY IDOCK:   -0.17 KCAL/MOL
REMARK 927      BINDING AFFINITY PREDICTED BY RF-SCORE:    0.00 PKD
ROOT
HETATM    1  C   UNL     1     -10.905   7.719  71.690  1.00  0.00    -0.265 C  
HETATM    2  C   UNL     1     -12.005   7.063  71.108  1.00  0.00    -0.398 C  
HETATM    3  C   UNL     1     -10.778   7.210  70.290  1.00  0.00    -0.258 C  
HETATM    4  C   UNL     1      -9.093   7.747  71.340  1.00  0.00    -0.134 C  
HETATM    5  C   UNL     1     -12.054  11.588  70.363  1.00  0.00    -0.471 C  
HETATM    6  O   UNL     1      -7.688   7.573  71.057  1.00  0.00    -0.087 OA 
HETATM    7  C   UNL     1      -9.544   6.515  70.967  1.00  0.00    -0.185 C  
HETATM    8  C   UNL     1      -8.881   6.932  69.242  1.00  0.00    -0.138 C  
HETATM    9  C   UNL     1     -10.710   9.441  70.987  1.00  0.00    -0.407 C  
HETATM   10  C   UNL     1     -11.365  11.593  69.018  1.00  0.00    -0.337 C  
HETATM   11  H   UNL     1      -6.909   7.822  71.542  1.00  0.00     0.000 HD 
HETATM   12  C   UNL     1      -8.754   8.604  69.028  1.00  0.00    -0.134 C  
HETATM   13  C   UNL     1     -12.052  10.212  71.046  1.00  0.00    -0.476 C  
HETATM   14  C   UNL     1      -9.993   9.572  69.398  1.00  0.00    -0.199 C  
HETATM   15  C   UNL     1      -7.505   9.047  68.779  1.00  0.00    -0.076 C  
HETATM   16  C   UNL     1      -9.923  11.092  69.029  1.00  0.00    -0.184 C  
HETATM   17  C   UNL     1      -9.206  11.434  67.704  1.00  0.00    -0.158 C  
HETATM   18  C   UNL     1     -10.008  11.381  66.423  1.00  0.00    -0.247 C  
HETATM   19  C   UNL     1     -11.406  11.896  66.557  1.00  0.00    -0.341 C  
HETATM   20  C   UNL     1     -12.024  11.952  67.900  1.00  0.00    -0.189 C  
HETATM   21  O   UNL     1     -12.070  12.213  65.571  1.00  0.00    -0.517 OA 
ENDROOT
BRANCH   4  22
HETATM   22  C   UNL     1      -8.923   7.787  72.880  1.00  0.00    -0.243 C  
HETATM   23  C   UNL     1      -8.670   7.831  74.049  1.00  0.00    -0.316 C  
ENDBRANCH   4  22
BRANCH   7  24
HETATM   24  C   UNL     1      -9.191   5.155  71.521  1.00  0.00    -0.177 C  
HETATM   25  C   UNL     1      -9.762   4.048  70.640  1.00  0.00    -0.266 C  
ENDBRANCH   7  24
TORSDOF 2
ENDMDL
MODEL       20
REMARK 921   NORMALIZED FREE ENERGY PREDICTED BY IDOCK:   -5.40 KCAL/MOL
REMARK 922        TOTAL FREE ENERGY PREDICTED BY IDOCK:   -6.29 KCAL/MOL
REMARK 923 INTER-LIGAND FREE ENERGY PREDICTED BY IDOCK:   -6.10 KCAL/MOL
REMARK 924 INTRA-LIGAND FREE ENERGY PREDICTED BY IDOCK:   -0.19 KCAL/MOL
REMARK 927      BINDING AFFINITY PREDICTED BY RF-SCORE:    0.00 PKD
ROOT
HETATM    1  C   UNL     1      -9.127  12.021  66.425  1.00  0.00    -0.193 C  
HETATM    2  C   UNL     1      -9.572  11.130  65.431  1.00  0.00    -0.266 C  
HETATM    3  C   UNL     1     -10.569  11.626  66.409  1.00  0.00    -0.299 C  
HETATM    4  C   UNL     1      -9.965  13.248  67.519  1.00  0.00    -0.223 C  
HETATM    5  C   UNL     1      -8.144   8.975  69.218  1.00  0.00    -0.105 C  
HETATM    6  O   UNL     1     -10.712  14.271  68.212  1.00  0.00    -0.237 OA 
HETATM    7  C   UNL     1     -10.694  13.189  66.367  1.00  0.00    -0.293 C  
HETATM    8  C   UNL     1     -12.155  12.694  67.465  1.00  0.00    -0.170 C  
HETATM    9  C   UNL     1      -9.001  11.159  68.080  1.00  0.00    -0.149 C  
HETATM   10  C   UNL     1      -9.480   8.846  69.911  1.00  0.00    -0.177 C  
HETATM   11  H   UNL     1     -10.433  15.021  68.725  1.00  0.00     0.000 HD 
HETATM   12  C   UNL     1     -11.621  12.040  68.930  1.00  0.00    -0.377 C  
HETATM   13  C   UNL     1      -8.192   9.845  67.954  1.00  0.00    -0.113 C  
HETATM   14  C   UNL     1     -10.494  10.883  68.946  1.00  0.00    -0.228 C  
HETATM   15  C   UNL     1     -12.014  12.720  70.027  1.00  0.00    -0.371 C  
HETATM   16  C   UNL     1     -10.140  10.169  70.293  1.00  0.00    -0.131 C  
HETATM   17  C   UNL     1     -11.317   9.941  71.267  1.00  0.00    -0.404 C  
HETATM   18  C   UNL     1     -12.169   8.704  71.084  1.00  0.00    -0.272 C  
HETATM   19  C   UNL     1     -11.395   7.482  70.704  1.00  0.00    -0.281 C  
HETATM   20  C   UNL     1     -10.053   7.642  70.100  1.00  0.00    -0.199 C  
HETATM   21  O   UNL     1     -11.874   6.356  70.825  1.00  0.00    -0.361 OA 
ENDROOT
BRANCH   4  22
HETATM   22  C   UNL     1      -8.708  14.125  67.286  1.00  0.00    -0.229 C  
HETATM   23  C   UNL     1      -7.792  14.888  67.178  1.00  0.00    -0.203 C  
ENDBRANCH   4  22
BRANCH   7  24
HETATM   24  C   UNL     1     -10.951  14.264  65.337  1.00  0.00    -0.335 C  
HETATM   25  C   UNL     1     -11.970  13.790  64.306  1.00  0.00    -0.481 C  
ENDBRANCH   7  24
TORSDOF 2
ENDMDL
MODEL       21
REMARK 921   NORMALIZED FREE ENERGY PREDICTED BY IDOCK:   -5.39 KCAL/MOL
REMARK 922        TOTAL FREE ENERGY PREDICTED BY IDOCK:   -6.28 KCAL/MOL
REMARK 923 INTER-LIGAND FREE ENERGY PREDICTED BY IDOCK:   -6.03 KCAL/MOL
REMARK 924 INTRA-LIGAND FREE ENERGY PREDICTED BY IDOCK:   -0.25 KCAL/MOL
REMARK 927      BINDING AFFINITY PREDICTED BY RF-SCORE:    0.00 PKD
ROOT
HETATM    1  C   UNL     1      -8.662  11.482  66.658  1.00  0.00    -0.182 C  
HETATM    2  C   UNL     1      -8.999  10.523  65.685  1.00  0.00    -0.200 C  
HETATM    3  C   UNL     1     -10.087  11.042  66.549  1.00  0.00    -0.270 C  
HETATM    4  C   UNL     1      -9.621  12.743  67.606  1.00  0.00    -0.192 C  
HETATM    5  C   UNL     1      -7.834   8.632  69.697  1.00  0.00    -0.094 C  
HETATM    6  O   UNL     1     -10.450  13.779  68.174  1.00  0.00    -0.237 OA 
HETATM    7  C   UNL     1     -10.249  12.596  66.404  1.00  0.00    -0.263 C  
HETATM    8  C   UNL     1     -11.784  12.118  67.406  1.00  0.00    -0.374 C  
HETATM    9  C   UNL     1      -8.651  10.721  68.366  1.00  0.00    -0.141 C  
HETATM   10  C   UNL     1      -9.220   8.500  70.286  1.00  0.00    -0.164 C  
HETATM   11  H   UNL     1     -10.235  14.565  68.663  1.00  0.00     0.000 HD 
HETATM   12  C   UNL     1     -11.355  11.565  68.946  1.00  0.00    -0.331 C  
HETATM   13  C   UNL     1      -7.799   9.428  68.384  1.00  0.00    -0.090 C  
HETATM   14  C   UNL     1     -10.203  10.447  69.122  1.00  0.00    -0.239 C  
HETATM   15  C   UNL     1     -11.857  12.293  69.965  1.00  0.00    -0.372 C  
HETATM   16  C   UNL     1      -9.944   9.822  70.533  1.00  0.00    -0.258 C  
HETATM   17  C   UNL     1     -11.192   9.612  71.420  1.00  0.00    -0.426 C  
HETATM   18  C   UNL     1     -11.992   8.341  71.241  1.00  0.00    -0.317 C  
HETATM   19  C   UNL     1     -11.156   7.125  70.998  1.00  0.00    -0.260 C  
HETATM   20  C   UNL     1      -9.774   7.292  70.497  1.00  0.00    -0.176 C  
HETATM   21  O   UNL     1     -11.614   5.992  71.146  1.00  0.00    -0.254 OA 
ENDROOT
BRANCH   4  22
HETATM   22  C   UNL     1      -8.372  13.645  67.425  1.00  0.00    -0.198 C  
HETATM   23  C   UNL     1      -7.461  14.418  67.368  1.00  0.00    -0.183 C  
ENDBRANCH   4  22
BRANCH   7  24
HETATM   24  C   UNL     1     -10.448  13.602  65.295  1.00  0.00    -0.362 C  
HETATM   25  C   UNL     1     -10.914  12.911  64.017  1.00  0.00    -0.447 C  
ENDBRANCH   7  24
TORSDOF 2
ENDMDL
MODEL       22
REMARK 921   NORMALIZED FREE ENERGY PREDICTED BY IDOCK:   -5.31 KCAL/MOL
REMARK 922        TOTAL FREE ENERGY PREDICTED BY IDOCK:   -6.18 KCAL/MOL
REMARK 923 INTER-LIGAND FREE ENERGY PREDICTED BY IDOCK:   -5.95 KCAL/MOL
REMARK 924 INTRA-LIGAND FREE ENERGY PREDICTED BY IDOCK:   -0.24 KCAL/MOL
REMARK 927      BINDING AFFINITY PREDICTED BY RF-SCORE:    0.00 PKD
ROOT
HETATM    1  C   UNL     1     -11.032   6.121  70.792  1.00  0.00    -0.365 C  
HETATM    2  C   UNL     1      -9.874   5.376  71.083  1.00  0.00    -0.243 C  
HETATM    3  C   UNL     1      -9.744   6.850  71.004  1.00  0.00    -0.178 C  
HETATM    4  C   UNL     1     -11.522   7.883  71.040  1.00  0.00    -0.280 C  
HETATM    5  C   UNL     1     -10.478   6.010  66.582  1.00  0.00    -0.291 C  
HETATM    6  O   UNL     1     -11.838   9.241  71.416  1.00  0.00    -0.306 OA 
HETATM    7  C   UNL     1     -10.663   7.571  72.052  1.00  0.00    -0.264 C  
HETATM    8  C   UNL     1      -9.587   8.991  71.411  1.00  0.00    -0.356 C  
HETATM    9  C   UNL     1     -10.994   6.746  69.030  1.00  0.00    -0.281 C  
HETATM   10  C   UNL     1      -9.624   7.246  66.420  1.00  0.00    -0.169 C  
HETATM   11  H   UNL     1     -12.659   9.718  71.433  1.00  0.00     0.000 HD 
HETATM   12  C   UNL     1      -9.925   9.324  69.788  1.00  0.00    -0.213 C  
HETATM   13  C   UNL     1     -10.681   5.592  68.046  1.00  0.00    -0.235 C  
HETATM   14  C   UNL     1      -9.977   8.130  68.702  1.00  0.00    -0.201 C  
HETATM   15  C   UNL     1     -10.375  10.574  69.551  1.00  0.00    -0.251 C  
HETATM   16  C   UNL     1     -10.116   8.475  67.181  1.00  0.00    -0.331 C  
HETATM   17  C   UNL     1      -9.385   9.750  66.707  1.00  0.00    -0.190 C  
HETATM   18  C   UNL     1      -7.925   9.638  66.328  1.00  0.00    -0.108 C  
HETATM   19  C   UNL     1      -7.580   8.382  65.594  1.00  0.00    -0.089 C  
HETATM   20  C   UNL     1      -8.481   7.214  65.710  1.00  0.00    -0.151 C  
HETATM   21  O   UNL     1      -6.537   8.281  64.951  1.00  0.00    -0.062 OA 
ENDROOT
BRANCH   4  22
HETATM   22  C   UNL     1     -12.927   7.316  71.365  1.00  0.00    -0.420 C  
HETATM   23  C   UNL     1     -14.057   6.991  71.591  1.00  0.00    -0.404 C  
ENDBRANCH   4  22
BRANCH   7  24
HETATM   24  C   UNL     1     -10.911   7.524  73.542  1.00  0.00    -0.213 C  
HETATM   25  C   UNL     1      -9.804   6.747  74.248  1.00  0.00    -0.348 C  
ENDBRANCH   7  24
TORSDOF 2
ENDMDL
MODEL       23
REMARK 921   NORMALIZED FREE ENERGY PREDICTED BY IDOCK:   -5.30 KCAL/MOL
REMARK 922        TOTAL FREE ENERGY PREDICTED BY IDOCK:   -6.17 KCAL/MOL
REMARK 923 INTER-LIGAND FREE ENERGY PREDICTED BY IDOCK:   -5.92 KCAL/MOL
REMARK 924 INTRA-LIGAND FREE ENERGY PREDICTED BY IDOCK:   -0.25 KCAL/MOL
REMARK 927      BINDING AFFINITY PREDICTED BY RF-SCORE:    0.00 PKD
ROOT
HETATM    1  C   UNL     1      -9.794   9.424  69.717  1.00  0.00    -0.218 C  
HETATM    2  C   UNL     1     -11.147   9.205  70.035  1.00  0.00    -0.208 C  
HETATM    3  C   UNL     1     -10.645   8.670  68.747  1.00  0.00    -0.169 C  
HETATM    4  C   UNL     1      -8.598   8.619  68.565  1.00  0.00    -0.135 C  
HETATM    5  C   UNL     1     -10.487  13.112  67.727  1.00  0.00    -0.232 C  
HETATM    6  O   UNL     1      -7.726   7.818  67.738  1.00  0.00    -0.116 OA 
HETATM    7  C   UNL     1      -9.473   7.650  68.960  1.00  0.00    -0.150 C  
HETATM    8  C   UNL     1      -9.870   7.433  67.121  1.00  0.00    -0.253 C  
HETATM    9  C   UNL     1      -9.625  10.746  68.406  1.00  0.00    -0.177 C  
HETATM   10  C   UNL     1     -10.745  12.587  66.334  1.00  0.00    -0.275 C  
HETATM   11  H   UNL     1      -6.779   7.794  67.654  1.00  0.00     0.000 HD 
HETATM   12  C   UNL     1      -9.480   8.827  66.247  1.00  0.00    -0.300 C  
HETATM   13  C   UNL     1     -10.430  12.011  68.795  1.00  0.00    -0.207 C  
HETATM   14  C   UNL     1      -9.973  10.278  66.758  1.00  0.00    -0.261 C  
HETATM   15  C   UNL     1      -8.553   8.646  65.284  1.00  0.00    -0.206 C  
HETATM   16  C   UNL     1      -9.755  11.532  65.847  1.00  0.00    -0.260 C  
HETATM   17  C   UNL     1      -9.896  11.298  64.327  1.00  0.00    -0.319 C  
HETATM   18  C   UNL     1     -11.279  11.364  63.718  1.00  0.00    -0.375 C  
HETATM   19  C   UNL     1     -12.146  12.438  64.292  1.00  0.00    -0.433 C  
HETATM   20  C   UNL     1     -11.819  12.988  65.627  1.00  0.00    -0.445 C  
HETATM   21  O   UNL     1     -13.157  12.827  63.708  1.00  0.00    -0.544 OA 
ENDROOT
BRANCH   4  22
HETATM   22  C   UNL     1      -7.553   8.855  69.685  1.00  0.00    -0.072 C  
HETATM   23  C   UNL     1      -6.662   8.987  70.474  1.00  0.00    -0.058 C  
ENDBRANCH   4  22
BRANCH   7  24
HETATM   24  C   UNL     1      -9.216   6.390  69.753  1.00  0.00    -0.145 C  
HETATM   25  C   UNL     1     -10.530   5.708  70.122  1.00  0.00    -0.366 C  
ENDBRANCH   7  24
TORSDOF 2
ENDMDL
MODEL       24
REMARK 921   NORMALIZED FREE ENERGY PREDICTED BY IDOCK:   -5.28 KCAL/MOL
REMARK 922        TOTAL FREE ENERGY PREDICTED BY IDOCK:   -6.15 KCAL/MOL
REMARK 923 INTER-LIGAND FREE ENERGY PREDICTED BY IDOCK:   -6.02 KCAL/MOL
REMARK 924 INTRA-LIGAND FREE ENERGY PREDICTED BY IDOCK:   -0.14 KCAL/MOL
REMARK 927      BINDING AFFINITY PREDICTED BY RF-SCORE:    0.00 PKD
ROOT
HETATM    1  C   UNL     1     -11.191  14.870  67.688  1.00  0.00    -0.330 C  
HETATM    2  C   UNL     1     -11.650  15.189  68.980  1.00  0.00    -0.350 C  
HETATM    3  C   UNL     1     -10.189  15.027  68.786  1.00  0.00    -0.235 C  
HETATM    4  C   UNL     1      -9.567  15.025  66.826  1.00  0.00    -0.245 C  
HETATM    5  C   UNL     1     -11.415  10.667  68.260  1.00  0.00    -0.318 C  
HETATM    6  O   UNL     1      -8.292  15.330  66.222  1.00  0.00    -0.388 OA 
HETATM    7  C   UNL     1      -9.628  16.044  67.731  1.00  0.00    -0.219 C  
HETATM    8  C   UNL     1      -8.046  15.314  68.473  1.00  0.00    -0.143 C  
HETATM    9  C   UNL     1     -10.673  13.076  67.592  1.00  0.00    -0.239 C  
HETATM   10  C   UNL     1     -10.034  10.428  68.825  1.00  0.00    -0.196 C  
HETATM   11  H   UNL     1      -8.004  15.329  65.316  1.00  0.00     0.000 HD 
HETATM   12  C   UNL     1      -7.886  13.679  68.073  1.00  0.00    -0.150 C  
HETATM   13  C   UNL     1     -11.784  12.153  68.151  1.00  0.00    -0.402 C  
HETATM   14  C   UNL     1      -9.122  12.661  68.284  1.00  0.00    -0.181 C  
HETATM   15  C   UNL     1      -6.779  13.379  67.363  1.00  0.00    -0.063 C  
HETATM   16  C   UNL     1      -8.901  11.126  68.076  1.00  0.00    -0.142 C  
HETATM   17  C   UNL     1      -7.526  10.574  68.513  1.00  0.00    -0.091 C  
HETATM   18  C   UNL     1      -7.338  10.187  69.963  1.00  0.00    -0.172 C  
HETATM   19  C   UNL     1      -8.529   9.519  70.574  1.00  0.00    -0.169 C  
HETATM   20  C   UNL     1      -9.857   9.708  69.948  1.00  0.00    -0.271 C  
HETATM   21  O   UNL     1      -8.437   8.872  71.616  1.00  0.00    -0.282 OA 
ENDROOT
BRANCH   4  22
HETATM   22  C   UNL     1     -10.407  15.396  65.577  1.00  0.00    -0.412 C  
HETATM   23  C   UNL     1     -11.084  15.788  64.672  1.00  0.00    -0.376 C  
ENDBRANCH   4  22
BRANCH   7  24
HETATM   24  C   UNL     1      -9.644  17.537  67.497  1.00  0.00    -0.265 C  
HETATM   25  C   UNL     1      -9.798  18.288  68.816  1.00  0.00    -0.377 C  
ENDBRANCH   7  24
TORSDOF 2
ENDMDL
MODEL       25
REMARK 921   NORMALIZED FREE ENERGY PREDICTED BY IDOCK:   -5.28 KCAL/MOL
REMARK 922        TOTAL FREE ENERGY PREDICTED BY IDOCK:   -6.15 KCAL/MOL
REMARK 923 INTER-LIGAND FREE ENERGY PREDICTED BY IDOCK:   -5.90 KCAL/MOL
REMARK 924 INTRA-LIGAND FREE ENERGY PREDICTED BY IDOCK:   -0.25 KCAL/MOL
REMARK 927      BINDING AFFINITY PREDICTED BY RF-SCORE:    0.00 PKD
ROOT
HETATM    1  C   UNL     1      -8.282   6.539  68.844  1.00  0.00    -0.119 C  
HETATM    2  C   UNL     1      -9.048   5.359  68.887  1.00  0.00    -0.138 C  
HETATM    3  C   UNL     1      -9.655   6.554  68.252  1.00  0.00    -0.131 C  
HETATM    4  C   UNL     1      -8.336   8.070  67.815  1.00  0.00    -0.129 C  
HETATM    5  C   UNL     1      -9.688   8.011  72.573  1.00  0.00    -0.325 C  
HETATM    6  O   UNL     1      -8.393   9.147  66.855  1.00  0.00    -0.117 OA 
HETATM    7  C   UNL     1      -8.805   7.056  67.032  1.00  0.00    -0.124 C  
HETATM    8  C   UNL     1     -10.390   8.079  66.872  1.00  0.00    -0.408 C  
HETATM    9  C   UNL     1      -8.906   7.781  70.096  1.00  0.00    -0.145 C  
HETATM   10  C   UNL     1     -10.905   8.766  72.089  1.00  0.00    -0.400 C  
HETATM   11  H   UNL     1      -7.785   9.848  66.653  1.00  0.00     0.000 HD 
HETATM   12  C   UNL     1     -10.544   9.167  68.157  1.00  0.00    -0.235 C  
HETATM   13  C   UNL     1      -9.045   7.129  71.493  1.00  0.00    -0.143 C  
HETATM   14  C   UNL     1     -10.356   8.665  69.680  1.00  0.00    -0.213 C  
HETATM   15  C   UNL     1     -10.579  10.466  67.794  1.00  0.00    -0.294 C  
HETATM   16  C   UNL     1     -10.674   9.643  70.860  1.00  0.00    -0.402 C  
HETATM   17  C   UNL     1     -11.859  10.609  70.638  1.00  0.00    -0.463 C  
HETATM   18  C   UNL     1     -13.253  10.116  70.955  1.00  0.00    -0.412 C  
HETATM   19  C   UNL     1     -13.333   9.261  72.180  1.00  0.00    -0.468 C  
HETATM   20  C   UNL     1     -12.105   8.600  72.675  1.00  0.00    -0.267 C  
HETATM   21  O   UNL     1     -14.405   9.048  72.744  1.00  0.00    -0.596 OA 
ENDROOT
BRANCH   4  22
HETATM   22  C   UNL     1      -6.788   8.008  67.865  1.00  0.00    -0.073 C  
HETATM   23  C   UNL     1      -5.593   8.057  67.827  1.00  0.00    -0.038 C  
ENDBRANCH   4  22
BRANCH   7  24
HETATM   24  C   UNL     1      -8.232   6.485  65.756  1.00  0.00    -0.135 C  
HETATM   25  C   UNL     1      -9.011   5.246  65.323  1.00  0.00    -0.130 C  
ENDBRANCH   7  24
TORSDOF 2
ENDMDL
MODEL       26
REMARK 921   NORMALIZED FREE ENERGY PREDICTED BY IDOCK:   -5.28 KCAL/MOL
REMARK 922        TOTAL FREE ENERGY PREDICTED BY IDOCK:   -6.15 KCAL/MOL
REMARK 923 INTER-LIGAND FREE ENERGY PREDICTED BY IDOCK:   -5.91 KCAL/MOL
REMARK 924 INTRA-LIGAND FREE ENERGY PREDICTED BY IDOCK:   -0.24 KCAL/MOL
REMARK 927      BINDING AFFINITY PREDICTED BY RF-SCORE:    0.00 PKD
ROOT
HETATM    1  C   UNL     1      -9.317  11.145  67.386  1.00  0.00    -0.172 C  
HETATM    2  C   UNL     1      -8.281  11.627  68.207  1.00  0.00    -0.156 C  
HETATM    3  C   UNL     1      -8.308  10.174  67.913  1.00  0.00    -0.117 C  
HETATM    4  C   UNL     1      -9.545   9.625  66.364  1.00  0.00    -0.210 C  
HETATM    5  C   UNL     1     -11.989  10.377  70.598  1.00  0.00    -0.448 C  
HETATM    6  O   UNL     1      -9.543   8.472  65.495  1.00  0.00    -0.444 OA 
HETATM    7  C   UNL     1      -8.208   9.893  66.372  1.00  0.00    -0.117 C  
HETATM    8  C   UNL     1      -7.992   8.165  67.116  1.00  0.00    -0.105 C  
HETATM    9  C   UNL     1     -10.595  10.230  68.399  1.00  0.00    -0.247 C  
HETATM   10  C   UNL     1     -11.569   8.963  70.925  1.00  0.00    -0.331 C  
HETATM   11  H   UNL     1     -10.114   8.218  64.779  1.00  0.00     0.000 HD 
HETATM   12  C   UNL     1      -9.415   7.644  67.864  1.00  0.00    -0.156 C  
HETATM   13  C   UNL     1     -11.048  11.082  69.609  1.00  0.00    -0.320 C  
HETATM   14  C   UNL     1     -10.192   8.605  68.904  1.00  0.00    -0.221 C  
HETATM   15  C   UNL     1      -9.947   6.519  67.343  1.00  0.00    -0.180 C  
HETATM   16  C   UNL     1     -11.405   8.042  69.718  1.00  0.00     0.120 C  
HETATM   17  C   UNL     1     -11.298   6.565  70.157  1.00  0.00    -0.463 C  
HETATM   18  C   UNL     1     -10.566   6.252  71.443  1.00  0.00    -0.284 C  
HETATM   19  C   UNL     1     -10.812   7.239  72.540  1.00  0.00    -0.272 C  
HETATM   20  C   UNL     1     -11.299   8.592  72.191  1.00  0.00    -0.434 C  
HETATM   21  O   UNL     1     -10.558   6.971  73.713  1.00  0.00    -0.375 OA 
ENDROOT
BRANCH   4  22
HETATM   22  C   UNL     1     -10.251  10.563  65.352  1.00  0.00    -0.340 C  
HETATM   23  C   UNL     1     -10.768  11.204  64.483  1.00  0.00    -0.368 C  
ENDBRANCH   4  22
BRANCH   7  24
HETATM   24  C   UNL     1      -7.294  10.259  65.225  1.00  0.00    -0.139 C  
HETATM   25  C   UNL     1      -5.901  10.612  65.737  1.00  0.00    -0.138 C  
ENDBRANCH   7  24
TORSDOF 2
ENDMDL
MODEL       27
REMARK 921   NORMALIZED FREE ENERGY PREDICTED BY IDOCK:   -5.21 KCAL/MOL
REMARK 922        TOTAL FREE ENERGY PREDICTED BY IDOCK:   -6.07 KCAL/MOL
REMARK 923 INTER-LIGAND FREE ENERGY PREDICTED BY IDOCK:   -5.82 KCAL/MOL
REMARK 924 INTRA-LIGAND FREE ENERGY PREDICTED BY IDOCK:   -0.25 KCAL/MOL
REMARK 927      BINDING AFFINITY PREDICTED BY RF-SCORE:    0.00 PKD
ROOT
HETATM    1  C   UNL     1      -9.008   8.596  67.897  1.00  0.00    -0.142 C  
HETATM    2  C   UNL     1      -7.667   8.960  68.119  1.00  0.00    -0.100 C  
HETATM    3  C   UNL     1      -8.671   9.376  69.128  1.00  0.00    -0.142 C  
HETATM    4  C   UNL     1     -10.491   8.431  68.983  1.00  0.00    -0.201 C  
HETATM    5  C   UNL     1      -9.976  12.116  65.724  1.00  0.00    -0.271 C  
HETATM    6  O   UNL     1     -11.535   8.200  69.954  1.00  0.00    -0.459 OA 
HETATM    7  C   UNL     1      -9.406   8.141  69.757  1.00  0.00    -0.159 C  
HETATM    8  C   UNL     1      -9.975   9.563  70.870  1.00  0.00    -0.308 C  
HETATM    9  C   UNL     1     -10.014  10.073  67.345  1.00  0.00    -0.242 C  
HETATM   10  C   UNL     1     -10.391  13.001  66.876  1.00  0.00    -0.246 C  
HETATM   11  H   UNL     1     -12.376   7.763  69.888  1.00  0.00     0.000 HD 
HETATM   12  C   UNL     1     -10.956  10.645  70.019  1.00  0.00    -0.325 C  
HETATM   13  C   UNL     1      -9.318  10.801  66.169  1.00  0.00    -0.209 C  
HETATM   14  C   UNL     1     -10.490  11.214  68.581  1.00  0.00    -0.220 C  
HETATM   15  C   UNL     1     -12.207  10.776  70.508  1.00  0.00    -0.457 C  
HETATM   16  C   UNL     1     -11.324  12.345  67.891  1.00  0.00    -0.344 C  
HETATM   17  C   UNL     1     -11.945  13.399  68.835  1.00  0.00    -0.362 C  
HETATM   18  C   UNL     1     -11.094  14.577  69.252  1.00  0.00    -0.296 C  
HETATM   19  C   UNL     1     -10.223  15.116  68.161  1.00  0.00    -0.227 C  
HETATM   20  C   UNL     1      -9.900  14.248  67.007  1.00  0.00    -0.254 C  
HETATM   21  O   UNL     1      -9.721  16.236  68.236  1.00  0.00    -0.216 OA 
ENDROOT
BRANCH   4  22
HETATM   22  C   UNL     1     -10.840   7.201  68.106  1.00  0.00    -0.170 C  
HETATM   23  C   UNL     1     -11.223   6.255  67.480  1.00  0.00    -0.234 C  
ENDBRANCH   4  22
BRANCH   7  24
HETATM   24  C   UNL     1      -9.034   6.847  70.443  1.00  0.00    -0.152 C  
HETATM   25  C   UNL     1      -7.642   6.945  71.060  1.00  0.00    -0.087 C  
ENDBRANCH   7  24
TORSDOF 2
ENDMDL
MODEL       28
REMARK 921   NORMALIZED FREE ENERGY PREDICTED BY IDOCK:   -5.21 KCAL/MOL
REMARK 922        TOTAL FREE ENERGY PREDICTED BY IDOCK:   -6.07 KCAL/MOL
REMARK 923 INTER-LIGAND FREE ENERGY PREDICTED BY IDOCK:   -5.87 KCAL/MOL
REMARK 924 INTRA-LIGAND FREE ENERGY PREDICTED BY IDOCK:   -0.20 KCAL/MOL
REMARK 927      BINDING AFFINITY PREDICTED BY RF-SCORE:    0.00 PKD
ROOT
HETATM    1  C   UNL     1      -9.791  12.171  65.660  1.00  0.00    -0.256 C  
HETATM    2  C   UNL     1     -10.667  11.872  64.600  1.00  0.00    -0.356 C  
HETATM    3  C   UNL     1     -11.111  11.543  65.975  1.00  0.00    -0.289 C  
HETATM    4  C   UNL     1     -10.009  12.416  67.476  1.00  0.00    -0.196 C  
HETATM    5  C   UNL     1      -7.824   8.407  65.573  1.00  0.00    -0.109 C  
HETATM    6  O   UNL     1     -10.330  12.724  68.850  1.00  0.00    -0.397 OA 
HETATM    7  C   UNL     1     -11.170  12.820  66.886  1.00  0.00    -0.339 C  
HETATM    8  C   UNL     1     -12.025  11.514  67.959  1.00  0.00    -0.174 C  
HETATM    9  C   UNL     1      -8.993  10.615  66.322  1.00  0.00    -0.180 C  
HETATM   10  C   UNL     1      -8.727   7.644  66.514  1.00  0.00    -0.161 C  
HETATM   11  H   UNL     1      -9.821  13.127  69.543  1.00  0.00     0.000 HD 
HETATM   12  C   UNL     1     -10.934  10.318  68.445  1.00  0.00    -0.308 C  
HETATM   13  C   UNL     1      -8.381   9.781  65.170  1.00  0.00    -0.146 C  
HETATM   14  C   UNL     1      -9.967   9.606  67.364  1.00  0.00    -0.237 C  
HETATM   15  C   UNL     1     -10.776  10.208  69.780  1.00  0.00    -0.317 C  
HETATM   16  C   UNL     1      -9.093   8.383  67.799  1.00  0.00    -0.142 C  
HETATM   17  C   UNL     1      -9.733   7.424  68.827  1.00  0.00    -0.149 C  
HETATM   18  C   UNL     1     -10.635   6.323  68.313  1.00  0.00    -0.318 C  
HETATM   19  C   UNL     1     -10.161   5.691  67.044  1.00  0.00    -0.188 C  
HETATM   20  C   UNL     1      -9.214   6.433  66.183  1.00  0.00    -0.132 C  
HETATM   21  O   UNL     1     -10.590   4.599  66.672  1.00  0.00    -0.184 OA 
ENDROOT
BRANCH   4  22
HETATM   22  C   UNL     1      -8.943  13.530  67.327  1.00  0.00    -0.222 C  
HETATM   23  C   UNL     1      -8.122  14.402  67.335  1.00  0.00    -0.217 C  
ENDBRANCH   4  22
BRANCH   7  24
HETATM   24  C   UNL     1     -11.803  14.191  66.849  1.00  0.00    -0.458 C  
HETATM   25  C   UNL     1     -12.751  14.316  65.660  1.00  0.00    -0.395 C  
ENDBRANCH   7  24
TORSDOF 2
ENDMDL
MODEL       29
REMARK 921   NORMALIZED FREE ENERGY PREDICTED BY IDOCK:   -5.09 KCAL/MOL
REMARK 922        TOTAL FREE ENERGY PREDICTED BY IDOCK:   -5.93 KCAL/MOL
REMARK 923 INTER-LIGAND FREE ENERGY PREDICTED BY IDOCK:   -5.98 KCAL/MOL
REMARK 924 INTRA-LIGAND FREE ENERGY PREDICTED BY IDOCK:    0.04 KCAL/MOL
REMARK 927      BINDING AFFINITY PREDICTED BY RF-SCORE:    0.00 PKD
ROOT
HETATM    1  C   UNL     1     -11.355   7.153  72.674  1.00  0.00    -0.306 C  
HETATM    2  C   UNL     1     -10.288   7.796  73.327  1.00  0.00    -0.364 C  
HETATM    3  C   UNL     1     -10.053   7.293  71.952  1.00  0.00    -0.196 C  
HETATM    4  C   UNL     1     -11.753   6.795  70.907  1.00  0.00    -0.372 C  
HETATM    5  C   UNL     1     -10.354   3.275  74.088  1.00  0.00    -0.231 C  
HETATM    6  O   UNL     1     -12.019   6.703  69.491  1.00  0.00    -0.642 OA 
HETATM    7  C   UNL     1     -11.032   7.953  70.919  1.00  0.00    -0.256 C  
HETATM    8  C   UNL     1      -9.802   7.052  69.795  1.00  0.00    -0.171 C  
HETATM    9  C   UNL     1     -11.084   5.303  72.621  1.00  0.00    -0.319 C  
HETATM   10  C   UNL     1      -9.408   2.855  72.987  1.00  0.00    -0.122 C  
HETATM   11  H   UNL     1     -12.804   6.473  69.008  1.00  0.00     0.000 HD 
HETATM   12  C   UNL     1      -9.938   5.375  69.967  1.00  0.00    -0.303 C  
HETATM   13  C   UNL     1     -10.741   4.760  74.030  1.00  0.00    -0.358 C  
HETATM   14  C   UNL     1      -9.949   4.702  71.435  1.00  0.00    -0.267 C  
HETATM   15  C   UNL     1     -10.277   4.719  68.838  1.00  0.00    -0.081 C  
HETATM   16  C   UNL     1      -9.898   3.143  71.570  1.00  0.00    -0.200 C  
HETATM   17  C   UNL     1      -9.037   2.401  70.524  1.00  0.00    -0.178 C  
HETATM   18  C   UNL     1      -7.555   2.258  70.788  1.00  0.00    -0.032 C  
HETATM   19  C   UNL     1      -7.216   1.985  72.219  1.00  0.00    -0.031 C  
HETATM   20  C   UNL     1      -8.198   2.335  73.269  1.00  0.00    -0.055 C  
HETATM   21  O   UNL     1      -6.117   1.537  72.543  1.00  0.00    -0.008 OA 
ENDROOT
BRANCH   4  22
HETATM   22  C   UNL     1     -13.219   7.099  71.306  1.00  0.00    -0.340 C  
HETATM   23  C   UNL     1     -14.382   7.311  71.496  1.00  0.00    -0.558 C  
ENDBRANCH   4  22
BRANCH   7  24
HETATM   24  C   UNL     1     -11.444   9.344  70.498  1.00  0.00    -0.317 C  
HETATM   25  C   UNL     1     -10.241  10.131  69.987  1.00  0.00    -0.271 C  
ENDBRANCH   7  24
TORSDOF 2
ENDMDL
MODEL       30
REMARK 921   NORMALIZED FREE ENERGY PREDICTED BY IDOCK:   -5.03 KCAL/MOL
REMARK 922        TOTAL FREE ENERGY PREDICTED BY IDOCK:   -5.87 KCAL/MOL
REMARK 923 INTER-LIGAND FREE ENERGY PREDICTED BY IDOCK:   -5.65 KCAL/MOL
REMARK 924 INTRA-LIGAND FREE ENERGY PREDICTED BY IDOCK:   -0.22 KCAL/MOL
REMARK 927      BINDING AFFINITY PREDICTED BY RF-SCORE:    0.00 PKD
ROOT
HETATM    1  C   UNL     1      -8.845  11.437  67.268  1.00  0.00    -0.153 C  
HETATM    2  C   UNL     1      -8.964  10.469  66.255  1.00  0.00    -0.174 C  
HETATM    3  C   UNL     1     -10.139  10.702  67.128  1.00  0.00    -0.248 C  
HETATM    4  C   UNL     1     -10.055  12.418  68.257  1.00  0.00    -0.227 C  
HETATM    5  C   UNL     1      -7.415   8.712  70.197  1.00  0.00    -0.054 C  
HETATM    6  O   UNL     1     -11.091  13.225  68.860  1.00  0.00    -0.250 OA 
HETATM    7  C   UNL     1     -10.637  12.188  67.045  1.00  0.00    -0.256 C  
HETATM    8  C   UNL     1     -12.030  11.346  68.013  1.00  0.00    -0.162 C  
HETATM    9  C   UNL     1      -8.668  10.626  68.944  1.00  0.00    -0.163 C  
HETATM   10  C   UNL     1      -8.739   8.257  70.767  1.00  0.00    -0.151 C  
HETATM   11  H   UNL     1     -11.052  14.017  69.382  1.00  0.00     0.000 HD 
HETATM   12  C   UNL     1     -11.491  10.836  69.533  1.00  0.00    -0.365 C  
HETATM   13  C   UNL     1      -7.555   9.550  68.918  1.00  0.00    -0.075 C  
HETATM   14  C   UNL     1     -10.123   9.990  69.674  1.00  0.00    -0.263 C  
HETATM   15  C   UNL     1     -12.139  11.394  70.576  1.00  0.00    -0.487 C  
HETATM   16  C   UNL     1      -9.734   9.378  71.061  1.00  0.00    -0.293 C  
HETATM   17  C   UNL     1     -10.906   8.865  71.928  1.00  0.00    -0.433 C  
HETATM   18  C   UNL     1     -11.409   7.458  71.690  1.00  0.00    -0.286 C  
HETATM   19  C   UNL     1     -10.329   6.464  71.406  1.00  0.00    -0.206 C  
HETATM   20  C   UNL     1      -9.016   6.950  70.924  1.00  0.00    -0.149 C  
HETATM   21  O   UNL     1     -10.528   5.254  71.503  1.00  0.00    -0.220 OA 
ENDROOT
BRANCH   4  22
HETATM   22  C   UNL     1      -9.034  13.577  68.125  1.00  0.00    -0.187 C  
HETATM   23  C   UNL     1      -8.342  14.548  68.016  1.00  0.00    -0.153 C  
ENDBRANCH   4  22
BRANCH   7  24
HETATM   24  C   UNL     1     -11.050  13.171  65.975  1.00  0.00    -0.299 C  
HETATM   25  C   UNL     1     -11.538  12.439  64.729  1.00  0.00    -0.395 C  
ENDBRANCH   7  24
TORSDOF 2
ENDMDL
MODEL       31
REMARK 921   NORMALIZED FREE ENERGY PREDICTED BY IDOCK:   -5.02 KCAL/MOL
REMARK 922        TOTAL FREE ENERGY PREDICTED BY IDOCK:   -5.86 KCAL/MOL
REMARK 923 INTER-LIGAND FREE ENERGY PREDICTED BY IDOCK:   -5.68 KCAL/MOL
REMARK 924 INTRA-LIGAND FREE ENERGY PREDICTED BY IDOCK:   -0.18 KCAL/MOL
REMARK 927      BINDING AFFINITY PREDICTED BY RF-SCORE:    0.00 PKD
ROOT
HETATM    1  C   UNL     1      -7.874   9.914  68.634  1.00  0.00    -0.086 C  
HETATM    2  C   UNL     1      -7.069  10.739  69.441  1.00  0.00    -0.122 C  
HETATM    3  C   UNL     1      -8.004   9.811  70.121  1.00  0.00    -0.201 C  
HETATM    4  C   UNL     1      -8.791   8.338  68.920  1.00  0.00    -0.140 C  
HETATM    5  C   UNL     1     -11.079  12.689  68.373  1.00  0.00    -0.297 C  
HETATM    6  O   UNL     1      -9.343   7.040  69.228  1.00  0.00    -0.146 OA 
HETATM    7  C   UNL     1      -7.708   8.315  69.749  1.00  0.00    -0.098 C  
HETATM    8  C   UNL     1      -8.951   8.143  71.167  1.00  0.00    -0.174 C  
HETATM    9  C   UNL     1      -9.640  10.527  68.611  1.00  0.00    -0.171 C  
HETATM   10  C   UNL     1     -11.857  12.273  69.600  1.00  0.00    -0.393 C  
HETATM   11  H   UNL     1      -9.707   6.359  68.674  1.00  0.00     0.000 HD 
HETATM   12  C   UNL     1     -10.473   8.724  70.713  1.00  0.00    -0.270 C  
HETATM   13  C   UNL     1      -9.692  12.038  68.277  1.00  0.00    -0.205 C  
HETATM   14  C   UNL     1     -10.621  10.172  70.015  1.00  0.00    -0.338 C  
HETATM   15  C   UNL     1     -11.461   7.806  70.753  1.00  0.00    -0.285 C  
HETATM   16  C   UNL     1     -12.047  10.767  69.764  1.00  0.00    -0.389 C  
HETATM   17  C   UNL     1     -13.109  10.456  70.842  1.00  0.00    -0.412 C  
HETATM   18  C   UNL     1     -13.182  11.357  72.055  1.00  0.00    -0.432 C  
HETATM   19  C   UNL     1     -12.970  12.806  71.751  1.00  0.00    -0.314 C  
HETATM   20  C   UNL     1     -12.275  13.182  70.500  1.00  0.00    -0.405 C  
HETATM   21  O   UNL     1     -13.304  13.683  72.546  1.00  0.00    -0.508 OA 
ENDROOT
BRANCH   4  22
HETATM   22  C   UNL     1      -8.346   7.965  67.483  1.00  0.00    -0.124 C  
HETATM   23  C   UNL     1      -8.085   7.761  66.333  1.00  0.00    -0.109 C  
ENDBRANCH   4  22
BRANCH   7  24
HETATM   24  C   UNL     1      -6.527   7.372  69.761  1.00  0.00    -0.035 C  
HETATM   25  C   UNL     1      -5.475   7.837  70.763  1.00  0.00    -0.026 C  
ENDBRANCH   7  24
TORSDOF 2
ENDMDL
MODEL       32
REMARK 921   NORMALIZED FREE ENERGY PREDICTED BY IDOCK:   -5.02 KCAL/MOL
REMARK 922        TOTAL FREE ENERGY PREDICTED BY IDOCK:   -5.86 KCAL/MOL
REMARK 923 INTER-LIGAND FREE ENERGY PREDICTED BY IDOCK:   -5.62 KCAL/MOL
REMARK 924 INTRA-LIGAND FREE ENERGY PREDICTED BY IDOCK:   -0.24 KCAL/MOL
REMARK 927      BINDING AFFINITY PREDICTED BY RF-SCORE:    0.00 PKD
ROOT
HETATM    1  C   UNL     1      -8.530  11.978  67.552  1.00  0.00    -0.165 C  
HETATM    2  C   UNL     1      -8.489  11.941  68.958  1.00  0.00     0.255 C  
HETATM    3  C   UNL     1      -9.715  12.476  68.318  1.00  0.00    -0.220 C  
HETATM    4  C   UNL     1      -9.890  12.076  66.309  1.00  0.00    -0.231 C  
HETATM    5  C   UNL     1      -6.868  15.876  67.252  1.00  0.00    -0.232 C  
HETATM    6  O   UNL     1     -11.041  12.009  65.439  1.00  0.00    -0.304 OA 
HETATM    7  C   UNL     1     -10.395  11.411  67.388  1.00  0.00    -0.232 C  
HETATM    8  C   UNL     1     -11.702  12.779  67.463  1.00  0.00    -0.422 C  
HETATM    9  C   UNL     1      -8.310  13.727  66.928  1.00  0.00    -0.029 C  
HETATM   10  C   UNL     1      -8.142  16.686  67.326  1.00  0.00    -0.193 C  
HETATM   11  H   UNL     1     -11.122  11.824  64.510  1.00  0.00     0.000 HD 
HETATM   12  C   UNL     1     -11.157  14.183  66.694  1.00  0.00    -0.314 C  
HETATM   13  C   UNL     1      -7.069  14.388  67.575  1.00  0.00    -0.197 C  
HETATM   14  C   UNL     1      -9.697  14.787  67.033  1.00  0.00    -0.242 C  
HETATM   15  C   UNL     1     -11.907  14.578  65.645  1.00  0.00    -0.326 C  
HETATM   16  C   UNL     1      -9.282  16.177  66.446  1.00  0.00    -0.334 C  
HETATM   17  C   UNL     1     -10.408  17.229  66.335  1.00  0.00    -0.316 C  
HETATM   18  C   UNL     1     -10.719  18.075  67.550  1.00  0.00    -0.352 C  
HETATM   19  C   UNL     1      -9.511  18.497  68.324  1.00  0.00    -0.335 C  
HETATM   20  C   UNL     1      -8.255  17.730  68.168  1.00  0.00    -0.260 C  
HETATM   21  O   UNL     1      -9.558  19.425  69.130  1.00  0.00    -0.389 OA 
ENDROOT
BRANCH   4  22
HETATM   22  C   UNL     1      -9.021  11.106  65.468  1.00  0.00    -0.178 C  
HETATM   23  C   UNL     1      -8.400  10.409  64.718  1.00  0.00    -0.157 C  
ENDBRANCH   4  22
BRANCH   7  24
HETATM   24  C   UNL     1     -10.893   9.988  67.493  1.00  0.00    -0.326 C  
HETATM   25  C   UNL     1     -11.023   9.570  68.954  1.00  0.00    -0.116 C  
ENDBRANCH   7  24
TORSDOF 2
ENDMDL
MODEL       33
REMARK 921   NORMALIZED FREE ENERGY PREDICTED BY IDOCK:   -4.96 KCAL/MOL
REMARK 922        TOTAL FREE ENERGY PREDICTED BY IDOCK:   -5.79 KCAL/MOL
REMARK 923 INTER-LIGAND FREE ENERGY PREDICTED BY IDOCK:   -5.56 KCAL/MOL
REMARK 924 INTRA-LIGAND FREE ENERGY PREDICTED BY IDOCK:   -0.23 KCAL/MOL
REMARK 927      BINDING AFFINITY PREDICTED BY RF-SCORE:    0.00 PKD
ROOT
HETATM    1  C   UNL     1      -9.067  10.477  67.934  1.00  0.00    -0.136 C  
HETATM    2  C   UNL     1      -7.952  10.823  68.719  1.00  0.00    -0.136 C  
HETATM    3  C   UNL     1      -8.156   9.389  68.405  1.00  0.00    -0.109 C  
HETATM    4  C   UNL     1      -9.505   9.013  66.899  1.00  0.00    -0.167 C  
HETATM    5  C   UNL     1     -11.684   9.954  71.238  1.00  0.00    -0.472 C  
HETATM    6  O   UNL     1      -9.668   7.885  66.013  1.00  0.00    -0.442 OA 
HETATM    7  C   UNL     1      -8.147   9.128  66.857  1.00  0.00    -0.112 C  
HETATM    8  C   UNL     1      -8.101   7.372  67.565  1.00  0.00    -0.114 C  
HETATM    9  C   UNL     1     -10.401   9.693  68.983  1.00  0.00    -0.218 C  
HETATM   10  C   UNL     1     -11.416   8.495  71.527  1.00  0.00    -0.350 C  
HETATM   11  H   UNL     1     -10.291   7.711  65.317  1.00  0.00     0.000 HD 
HETATM   12  C   UNL     1      -9.545   7.001  68.362  1.00  0.00    -0.135 C  
HETATM   13  C   UNL     1     -10.708  10.567  70.224  1.00  0.00    -0.165 C  
HETATM   14  C   UNL     1     -10.166   8.024  69.447  1.00  0.00    -0.210 C  
HETATM   15  C   UNL     1     -10.220   5.954  67.846  1.00  0.00    -0.225 C  
HETATM   16  C   UNL     1     -11.403   7.586  70.300  1.00  0.00    -0.219 C  
HETATM   17  C   UNL     1     -11.449   6.098  70.712  1.00  0.00    -0.321 C  
HETATM   18  C   UNL     1     -10.709   5.679  71.963  1.00  0.00    -0.291 C  
HETATM   19  C   UNL     1     -10.799   6.666  73.083  1.00  0.00    -0.269 C  
HETATM   20  C   UNL     1     -11.142   8.072  72.775  1.00  0.00    -0.448 C  
HETATM   21  O   UNL     1     -10.533   6.347  74.241  1.00  0.00    -0.322 OA 
ENDROOT
BRANCH   4  22
HETATM   22  C   UNL     1     -10.138  10.045  65.930  1.00  0.00    -0.319 C  
HETATM   23  C   UNL     1     -10.629  10.751  65.098  1.00  0.00    -0.239 C  
ENDBRANCH   4  22
BRANCH   7  24
HETATM   24  C   UNL     1      -7.242   9.411  65.680  1.00  0.00    -0.091 C  
HETATM   25  C   UNL     1      -5.782   9.456  66.121  1.00  0.00    -0.053 C  
ENDBRANCH   7  24
TORSDOF 2
ENDMDL
MODEL       34
REMARK 921   NORMALIZED FREE ENERGY PREDICTED BY IDOCK:   -4.88 KCAL/MOL
REMARK 922        TOTAL FREE ENERGY PREDICTED BY IDOCK:   -5.70 KCAL/MOL
REMARK 923 INTER-LIGAND FREE ENERGY PREDICTED BY IDOCK:   -5.48 KCAL/MOL
REMARK 924 INTRA-LIGAND FREE ENERGY PREDICTED BY IDOCK:   -0.22 KCAL/MOL
REMARK 927      BINDING AFFINITY PREDICTED BY RF-SCORE:    0.00 PKD
ROOT
HETATM    1  C   UNL     1      -9.418   9.878  67.846  1.00  0.00    -0.149 C  
HETATM    2  C   UNL     1      -9.426   9.487  66.494  1.00  0.00    -0.236 C  
HETATM    3  C   UNL     1      -8.430  10.502  66.914  1.00  0.00    -0.125 C  
HETATM    4  C   UNL     1      -8.170  10.676  68.946  1.00  0.00    -0.145 C  
HETATM    5  C   UNL     1     -12.187  13.055  67.313  1.00  0.00    -0.180 C  
HETATM    6  O   UNL     1      -7.066  11.169  69.736  1.00  0.00    -0.294 OA 
HETATM    7  C   UNL     1      -7.472   9.949  68.027  1.00  0.00    -0.085 C  
HETATM    8  C   UNL     1      -6.640  11.581  67.550  1.00  0.00    -0.087 C  
HETATM    9  C   UNL     1     -10.167  11.580  68.049  1.00  0.00    -0.205 C  
HETATM   10  C   UNL     1     -11.217  14.163  66.972  1.00  0.00    -0.328 C  
HETATM   11  H   UNL     1      -6.946  11.249  70.675  1.00  0.00     0.000 HD 
HETATM   12  C   UNL     1      -7.596  12.903  67.996  1.00  0.00    -0.137 C  
HETATM   13  C   UNL     1     -11.541  11.662  67.340  1.00  0.00    -0.330 C  
HETATM   14  C   UNL     1      -9.164  12.944  67.612  1.00  0.00    -0.193 C  
HETATM   15  C   UNL     1      -7.016  13.747  68.873  1.00  0.00    -0.111 C  
HETATM   16  C   UNL     1      -9.990  14.247  67.876  1.00  0.00    -0.230 C  
HETATM   17  C   UNL     1      -9.237  15.580  67.666  1.00  0.00    -0.190 C  
HETATM   18  C   UNL     1      -9.179  16.156  66.268  1.00  0.00    -0.366 C  
HETATM   19  C   UNL     1     -10.447  15.997  65.491  1.00  0.00    -0.405 C  
HETATM   20  C   UNL     1     -11.413  14.954  65.901  1.00  0.00    -0.276 C  
HETATM   21  O   UNL     1     -10.671  16.670  64.486  1.00  0.00    -0.741 OA 
ENDROOT
BRANCH   4  22
HETATM   22  C   UNL     1      -8.716   9.728  70.044  1.00  0.00    -0.237 C  
HETATM   23  C   UNL     1      -9.046   9.036  70.964  1.00  0.00    -0.322 C  
ENDBRANCH   4  22
BRANCH   7  24
HETATM   24  C   UNL     1      -6.566   8.757  68.233  1.00  0.00    -0.060 C  
HETATM   25  C   UNL     1      -5.970   8.298  66.906  1.00  0.00    -0.053 C  
ENDBRANCH   7  24
TORSDOF 2
ENDMDL
MODEL       35
REMARK 921   NORMALIZED FREE ENERGY PREDICTED BY IDOCK:   -4.85 KCAL/MOL
REMARK 922        TOTAL FREE ENERGY PREDICTED BY IDOCK:   -5.67 KCAL/MOL
REMARK 923 INTER-LIGAND FREE ENERGY PREDICTED BY IDOCK:   -5.72 KCAL/MOL
REMARK 924 INTRA-LIGAND FREE ENERGY PREDICTED BY IDOCK:    0.05 KCAL/MOL
REMARK 927      BINDING AFFINITY PREDICTED BY RF-SCORE:    0.00 PKD
ROOT
HETATM    1  C   UNL     1     -10.056   9.952  65.443  1.00  0.00    -0.270 C  
HETATM    2  C   UNL     1      -9.861  10.234  64.078  1.00  0.00    -0.286 C  
HETATM    3  C   UNL     1      -8.805  10.660  65.028  1.00  0.00    -0.212 C  
HETATM    4  C   UNL     1      -8.932   9.819  66.900  1.00  0.00    -0.138 C  
HETATM    5  C   UNL     1     -12.052  13.607  66.281  1.00  0.00    -0.477 C  
HETATM    6  O   UNL     1      -7.939   9.603  67.926  1.00  0.00    -0.097 OA 
HETATM    7  C   UNL     1      -8.205   9.440  65.811  1.00  0.00    -0.116 C  
HETATM    8  C   UNL     1      -7.017  10.841  66.269  1.00  0.00    -0.134 C  
HETATM    9  C   UNL     1     -10.515  11.503  66.382  1.00  0.00    -0.292 C  
HETATM   10  C   UNL     1     -10.852  14.464  66.613  1.00  0.00    -0.304 C  
HETATM   11  H   UNL     1      -7.997   9.215  68.791  1.00  0.00     0.000 HD 
HETATM   12  C   UNL     1      -7.792  12.009  67.215  1.00  0.00    -0.170 C  
HETATM   13  C   UNL     1     -11.682  12.242  65.683  1.00  0.00    -0.440 C  
HETATM   14  C   UNL     1      -9.219  12.614  66.760  1.00  0.00    -0.225 C  
HETATM   15  C   UNL     1      -7.260  12.185  68.442  1.00  0.00    -0.097 C  
HETATM   16  C   UNL     1      -9.836  13.816  67.551  1.00  0.00    -0.230 C  
HETATM   17  C   UNL     1      -8.831  14.860  68.087  1.00  0.00    -0.174 C  
HETATM   18  C   UNL     1      -8.393  15.972  67.161  1.00  0.00    -0.228 C  
HETATM   19  C   UNL     1      -9.487  16.510  66.294  1.00  0.00    -0.310 C  
HETATM   20  C   UNL     1     -10.686  15.676  66.052  1.00  0.00    -0.322 C  
HETATM   21  O   UNL     1      -9.382  17.598  65.730  1.00  0.00    -0.511 OA 
ENDROOT
BRANCH   4  22
HETATM   22  C   UNL     1      -9.847   8.648  67.341  1.00  0.00    -0.249 C  
HETATM   23  C   UNL     1     -10.650   7.815  67.647  1.00  0.00    -0.283 C  
ENDBRANCH   4  22
BRANCH   7  24
HETATM   24  C   UNL     1      -7.584   8.100  65.489  1.00  0.00    -0.087 C  
HETATM   25  C   UNL     1      -6.467   8.255  64.462  1.00  0.00    -0.065 C  
ENDBRANCH   7  24
TORSDOF 2
ENDMDL
MODEL       36
REMARK 921   NORMALIZED FREE ENERGY PREDICTED BY IDOCK:   -4.84 KCAL/MOL
REMARK 922        TOTAL FREE ENERGY PREDICTED BY IDOCK:   -5.66 KCAL/MOL
REMARK 923 INTER-LIGAND FREE ENERGY PREDICTED BY IDOCK:   -5.46 KCAL/MOL
REMARK 924 INTRA-LIGAND FREE ENERGY PREDICTED BY IDOCK:   -0.20 KCAL/MOL
REMARK 927      BINDING AFFINITY PREDICTED BY RF-SCORE:    0.00 PKD
ROOT
HETATM    1  C   UNL     1      -9.209  11.926  66.413  1.00  0.00    -0.218 C  
HETATM    2  C   UNL     1      -9.696  11.380  65.212  1.00  0.00    -0.276 C  
HETATM    3  C   UNL     1     -10.536  11.238  66.425  1.00  0.00    -0.316 C  
HETATM    4  C   UNL     1      -9.994  12.439  68.003  1.00  0.00    -0.207 C  
HETATM    5  C   UNL     1      -7.172   8.396  67.610  1.00  0.00    -0.088 C  
HETATM    6  O   UNL     1     -10.740  12.934  69.136  1.00  0.00    -0.415 OA 
HETATM    7  C   UNL     1     -10.926  12.633  67.027  1.00  0.00    -0.300 C  
HETATM    8  C   UNL     1     -12.024  11.445  68.012  1.00  0.00    -0.162 C  
HETATM    9  C   UNL     1      -8.599  10.578  67.557  1.00  0.00    -0.121 C  
HETATM   10  C   UNL     1      -8.294   7.714  68.358  1.00  0.00    -0.125 C  
HETATM   11  H   UNL     1     -10.490  13.490  69.865  1.00  0.00     0.000 HD 
HETATM   12  C   UNL     1     -11.094  10.449  69.013  1.00  0.00    -0.297 C  
HETATM   13  C   UNL     1      -7.626   9.629  66.815  1.00  0.00    -0.098 C  
HETATM   14  C   UNL     1      -9.812   9.664  68.423  1.00  0.00    -0.170 C  
HETATM   15  C   UNL     1     -11.358  10.571  70.330  1.00  0.00    -0.411 C  
HETATM   16  C   UNL     1      -9.072   8.614  69.316  1.00  0.00    -0.149 C  
HETATM   17  C   UNL     1      -9.965   7.778  70.259  1.00  0.00    -0.189 C  
HETATM   18  C   UNL     1     -10.617   6.530  69.707  1.00  0.00    -0.284 C  
HETATM   19  C   UNL     1      -9.746   5.748  68.777  1.00  0.00    -0.132 C  
HETATM   20  C   UNL     1      -8.606   6.426  68.121  1.00  0.00    -0.117 C  
HETATM   21  O   UNL     1      -9.995   4.576  68.498  1.00  0.00    -0.126 OA 
ENDROOT
BRANCH   4  22
HETATM   22  C   UNL     1      -8.977  13.609  67.982  1.00  0.00    -0.188 C  
HETATM   23  C   UNL     1      -8.279  14.580  68.024  1.00  0.00    -0.145 C  
ENDBRANCH   4  22
BRANCH   7  24
HETATM   24  C   UNL     1     -11.568  13.917  66.552  1.00  0.00    -0.385 C  
HETATM   25  C   UNL     1     -12.603  13.633  65.468  1.00  0.00    -0.541 C  
ENDBRANCH   7  24
TORSDOF 2
ENDMDL
MODEL       37
REMARK 921   NORMALIZED FREE ENERGY PREDICTED BY IDOCK:   -4.78 KCAL/MOL
REMARK 922        TOTAL FREE ENERGY PREDICTED BY IDOCK:   -5.59 KCAL/MOL
REMARK 923 INTER-LIGAND FREE ENERGY PREDICTED BY IDOCK:   -5.39 KCAL/MOL
REMARK 924 INTRA-LIGAND FREE ENERGY PREDICTED BY IDOCK:   -0.20 KCAL/MOL
REMARK 927      BINDING AFFINITY PREDICTED BY RF-SCORE:    0.00 PKD
ROOT
HETATM    1  C   UNL     1      -8.175  10.492  67.811  1.00  0.00    -0.107 C  
HETATM    2  C   UNL     1      -8.222  10.505  69.217  1.00  0.00    -0.151 C  
HETATM    3  C   UNL     1      -9.462  10.852  68.482  1.00  0.00    -0.185 C  
HETATM    4  C   UNL     1      -9.451  10.368  66.483  1.00  0.00    -0.167 C  
HETATM    5  C   UNL     1      -7.020  14.564  67.455  1.00  0.00    -0.188 C  
HETATM    6  O   UNL     1     -10.522  10.120  65.548  1.00  0.00    -0.186 OA 
HETATM    7  C   UNL     1      -9.934   9.677  67.555  1.00  0.00    -0.231 C  
HETATM    8  C   UNL     1     -11.411  10.861  67.494  1.00  0.00    -0.309 C  
HETATM    9  C   UNL     1      -8.144  12.234  67.131  1.00  0.00    -0.173 C  
HETATM   10  C   UNL     1      -8.390  15.199  67.418  1.00  0.00    -0.206 C  
HETATM   11  H   UNL     1     -10.517   9.896  64.624  1.00  0.00     0.000 HD 
HETATM   12  C   UNL     1     -11.004  12.299  66.704  1.00  0.00    -0.321 C  
HETATM   13  C   UNL     1      -7.045  13.074  67.826  1.00  0.00    -0.139 C  
HETATM   14  C   UNL     1      -9.661  13.102  67.107  1.00  0.00    -0.235 C  
HETATM   15  C   UNL     1     -11.728  12.557  65.596  1.00  0.00    -0.473 C  
HETATM   16  C   UNL     1      -9.393  14.516  66.491  1.00  0.00    -0.307 C  
HETATM   17  C   UNL     1     -10.637  15.404  66.269  1.00  0.00    -0.311 C  
HETATM   18  C   UNL     1     -11.136  16.240  67.427  1.00  0.00    -0.095 C  
HETATM   19  C   UNL     1     -10.047  16.844  68.255  1.00  0.00    -0.302 C  
HETATM   20  C   UNL     1      -8.694  16.246  68.208  1.00  0.00    -0.190 C  
HETATM   21  O   UNL     1     -10.268  17.783  69.019  1.00  0.00    -0.367 OA 
ENDROOT
BRANCH   4  22
HETATM   22  C   UNL     1      -8.409   9.495  65.738  1.00  0.00    -0.132 C  
HETATM   23  C   UNL     1      -7.585   8.919  65.088  1.00  0.00    -0.099 C  
ENDBRANCH   4  22
BRANCH   7  24
HETATM   24  C   UNL     1     -10.248   8.205  67.687  1.00  0.00    -0.296 C  
HETATM   25  C   UNL     1     -10.382   7.812  69.155  1.00  0.00    -0.219 C  
ENDBRANCH   7  24
TORSDOF 2
ENDMDL
MODEL       38
REMARK 921   NORMALIZED FREE ENERGY PREDICTED BY IDOCK:   -4.73 KCAL/MOL
REMARK 922        TOTAL FREE ENERGY PREDICTED BY IDOCK:   -5.54 KCAL/MOL
REMARK 923 INTER-LIGAND FREE ENERGY PREDICTED BY IDOCK:   -5.40 KCAL/MOL
REMARK 924 INTRA-LIGAND FREE ENERGY PREDICTED BY IDOCK:   -0.14 KCAL/MOL
REMARK 927      BINDING AFFINITY PREDICTED BY RF-SCORE:    0.00 PKD
ROOT
HETATM    1  C   UNL     1     -10.209   8.214  70.562  1.00  0.00    -0.207 C  
HETATM    2  C   UNL     1     -11.418   7.563  70.254  1.00  0.00    -0.173 C  
HETATM    3  C   UNL     1     -10.414   7.702  69.172  1.00  0.00    -0.220 C  
HETATM    4  C   UNL     1      -8.528   8.232  69.799  1.00  0.00    -0.128 C  
HETATM    5  C   UNL     1     -11.616  12.086  69.527  1.00  0.00    -0.389 C  
HETATM    6  O   UNL     1      -7.228   8.049  69.198  1.00  0.00    -0.073 OA 
HETATM    7  C   UNL     1      -9.060   7.001  69.545  1.00  0.00    -0.146 C  
HETATM    8  C   UNL     1      -8.814   7.411  67.713  1.00  0.00    -0.128 C  
HETATM    9  C   UNL     1     -10.175   9.934  69.827  1.00  0.00    -0.278 C  
HETATM   10  C   UNL     1     -11.259  12.086  68.058  1.00  0.00    -0.316 C  
HETATM   11  H   UNL     1      -6.357   8.294  69.487  1.00  0.00     0.000 HD 
HETATM   12  C   UNL     1      -8.733   9.082  67.470  1.00  0.00    -0.121 C  
HETATM   13  C   UNL     1     -11.462  10.712  70.195  1.00  0.00    -0.411 C  
HETATM   14  C   UNL     1      -9.847  10.058  68.115  1.00  0.00    -0.162 C  
HETATM   15  C   UNL     1      -7.573   9.518  66.935  1.00  0.00    -0.095 C  
HETATM   16  C   UNL     1      -9.856  11.576  67.735  1.00  0.00    -0.186 C  
HETATM   17  C   UNL     1      -9.467  11.912  66.278  1.00  0.00    -0.238 C  
HETATM   18  C   UNL     1     -10.545  11.861  65.219  1.00  0.00    -0.320 C  
HETATM   19  C   UNL     1     -11.870  12.384  65.673  1.00  0.00    -0.409 C  
HETATM   20  C   UNL     1     -12.158  12.446  67.123  1.00  0.00    -0.072 C  
HETATM   21  O   UNL     1     -12.744  12.703  64.868  1.00  0.00    -0.648 OA 
ENDROOT
BRANCH   4  22
HETATM   22  C   UNL     1      -8.004   8.274  71.258  1.00  0.00    -0.125 C  
HETATM   23  C   UNL     1      -7.609   8.182  72.384  1.00  0.00    -0.153 C  
ENDBRANCH   4  22
BRANCH   7  24
HETATM   24  C   UNL     1      -8.594   5.640  70.006  1.00  0.00    -0.122 C  
HETATM   25  C   UNL     1      -9.701   4.605  69.836  1.00  0.00    -0.279 C  
ENDBRANCH   7  24
TORSDOF 2
ENDMDL
MODEL       39
REMARK 921   NORMALIZED FREE ENERGY PREDICTED BY IDOCK:   -4.60 KCAL/MOL
REMARK 922        TOTAL FREE ENERGY PREDICTED BY IDOCK:   -5.39 KCAL/MOL
REMARK 923 INTER-LIGAND FREE ENERGY PREDICTED BY IDOCK:   -5.15 KCAL/MOL
REMARK 924 INTRA-LIGAND FREE ENERGY PREDICTED BY IDOCK:   -0.24 KCAL/MOL
REMARK 927      BINDING AFFINITY PREDICTED BY RF-SCORE:    0.00 PKD
ROOT
HETATM    1  C   UNL     1     -11.292  12.069  67.174  1.00  0.00    -0.396 C  
HETATM    2  C   UNL     1     -11.947  12.021  68.418  1.00  0.00    -0.256 C  
HETATM    3  C   UNL     1     -10.557  12.534  68.391  1.00  0.00    -0.256 C  
HETATM    4  C   UNL     1      -9.842  13.006  66.521  1.00  0.00    -0.263 C  
HETATM    5  C   UNL     1      -9.667   8.156  67.475  1.00  0.00    -0.207 C  
HETATM    6  O   UNL     1      -8.791  13.898  66.091  1.00  0.00    -0.442 OA 
HETATM    7  C   UNL     1     -10.423  13.797  67.469  1.00  0.00    -0.245 C  
HETATM    8  C   UNL     1      -8.748  13.758  68.351  1.00  0.00    -0.162 C  
HETATM    9  C   UNL     1     -10.023  10.702  67.038  1.00  0.00    -0.243 C  
HETATM   10  C   UNL     1      -8.375   8.487  68.185  1.00  0.00    -0.127 C  
HETATM   11  H   UNL     1      -8.461  14.117  65.227  1.00  0.00     0.000 HD 
HETATM   12  C   UNL     1      -7.845  12.408  67.880  1.00  0.00    -0.145 C  
HETATM   13  C   UNL     1     -10.649   9.335  67.408  1.00  0.00    -0.324 C  
HETATM   14  C   UNL     1      -8.511  10.937  67.884  1.00  0.00    -0.129 C  
HETATM   15  C   UNL     1      -6.667  12.697  67.290  1.00  0.00    -0.105 C  
HETATM   16  C   UNL     1      -7.614   9.683  67.617  1.00  0.00    -0.091 C  
HETATM   17  C   UNL     1      -6.177   9.745  68.182  1.00  0.00    -0.055 C  
HETATM   18  C   UNL     1      -5.956   9.330  69.620  1.00  0.00    -0.036 C  
HETATM   19  C   UNL     1      -6.770   8.151  70.046  1.00  0.00    -0.040 C  
HETATM   20  C   UNL     1      -7.988   7.805  69.279  1.00  0.00    -0.125 C  
HETATM   21  O   UNL     1      -6.484   7.504  71.053  1.00  0.00    -0.039 OA 
ENDROOT
BRANCH   4  22
HETATM   22  C   UNL     1     -10.655  13.100  65.205  1.00  0.00    -0.332 C  
HETATM   23  C   UNL     1     -11.174  13.190  64.130  1.00  0.00    -0.433 C  
ENDBRANCH   4  22
BRANCH   7  24
HETATM   24  C   UNL     1     -11.083  15.148  67.320  1.00  0.00    -0.332 C  
HETATM   25  C   UNL     1     -11.677  15.607  68.647  1.00  0.00    -0.364 C  
ENDBRANCH   7  24
TORSDOF 2
ENDMDL
MODEL       40
REMARK 921   NORMALIZED FREE ENERGY PREDICTED BY IDOCK:   -4.60 KCAL/MOL
REMARK 922        TOTAL FREE ENERGY PREDICTED BY IDOCK:   -5.39 KCAL/MOL
REMARK 923 INTER-LIGAND FREE ENERGY PREDICTED BY IDOCK:   -5.16 KCAL/MOL
REMARK 924 INTRA-LIGAND FREE ENERGY PREDICTED BY IDOCK:   -0.23 KCAL/MOL
REMARK 927      BINDING AFFINITY PREDICTED BY RF-SCORE:    0.00 PKD
ROOT
HETATM    1  C   UNL     1      -8.467  10.605  66.723  1.00  0.00    -0.134 C  
HETATM    2  C   UNL     1      -7.366  11.013  67.499  1.00  0.00    -0.101 C  
HETATM    3  C   UNL     1      -7.624   9.558  67.379  1.00  0.00    -0.095 C  
HETATM    4  C   UNL     1      -8.935   9.029  65.885  1.00  0.00    -0.190 C  
HETATM    5  C   UNL     1     -11.221  10.660  69.957  1.00  0.00    -0.382 C  
HETATM    6  O   UNL     1      -9.118   7.795  65.159  1.00  0.00    -0.370 OA 
HETATM    7  C   UNL     1      -7.572   9.082  65.884  1.00  0.00    -0.094 C  
HETATM    8  C   UNL     1      -7.632   7.443  66.831  1.00  0.00    -0.102 C  
HETATM    9  C   UNL     1      -9.872  10.032  67.815  1.00  0.00    -0.185 C  
HETATM   10  C   UNL     1     -11.031   9.247  70.457  1.00  0.00    -0.318 C  
HETATM   11  H   UNL     1      -9.724   7.550  64.469  1.00  0.00     0.000 HD 
HETATM   12  C   UNL     1      -9.119   7.247  67.612  1.00  0.00    -0.124 C  
HETATM   13  C   UNL     1     -10.182  11.084  68.908  1.00  0.00    -0.218 C  
HETATM   14  C   UNL     1      -9.731   8.437  68.517  1.00  0.00    -0.169 C  
HETATM   15  C   UNL     1      -9.824   6.166  67.219  1.00  0.00    -0.158 C  
HETATM   16  C   UNL     1     -11.017   8.174  69.370  1.00  0.00    -0.015 C  
HETATM   17  C   UNL     1     -11.145   6.762  69.983  1.00  0.00    -0.366 C  
HETATM   18  C   UNL     1     -10.470   6.494  71.310  1.00  0.00    -0.250 C  
HETATM   19  C   UNL     1     -10.554   7.632  72.277  1.00  0.00    -0.246 C  
HETATM   20  C   UNL     1     -10.821   8.993  71.762  1.00  0.00    -0.437 C  
HETATM   21  O   UNL     1     -10.344   7.469  73.478  1.00  0.00    -0.345 OA 
ENDROOT
BRANCH   4  22
HETATM   22  C   UNL     1      -9.485   9.939  64.757  1.00  0.00    -0.356 C  
HETATM   23  C   UNL     1     -10.021  10.593  63.909  1.00  0.00    -0.390 C  
ENDBRANCH   4  22
BRANCH   7  24
HETATM   24  C   UNL     1      -6.614   9.159  64.718  1.00  0.00    -0.074 C  
HETATM   25  C   UNL     1      -5.202   9.476  65.200  1.00  0.00    -0.044 C  
ENDBRANCH   7  24
TORSDOF 2
ENDMDL
MODEL       41
REMARK 921   NORMALIZED FREE ENERGY PREDICTED BY IDOCK:   -4.54 KCAL/MOL
REMARK 922        TOTAL FREE ENERGY PREDICTED BY IDOCK:   -5.32 KCAL/MOL
REMARK 923 INTER-LIGAND FREE ENERGY PREDICTED BY IDOCK:   -5.09 KCAL/MOL
REMARK 924 INTRA-LIGAND FREE ENERGY PREDICTED BY IDOCK:   -0.23 KCAL/MOL
REMARK 927      BINDING AFFINITY PREDICTED BY RF-SCORE:    0.00 PKD
ROOT
HETATM    1  C   UNL     1      -9.711   9.031  70.872  1.00  0.00    -0.329 C  
HETATM    2  C   UNL     1     -10.487   9.888  70.069  1.00  0.00    -0.331 C  
HETATM    3  C   UNL     1     -10.785   8.436  70.018  1.00  0.00    -0.236 C  
HETATM    4  C   UNL     1      -9.948   7.324  71.532  1.00  0.00    -0.182 C  
HETATM    5  C   UNL     1      -6.743   8.358  67.909  1.00  0.00    -0.066 C  
HETATM    6  O   UNL     1     -10.312   6.048  72.102  1.00  0.00    -0.190 OA 
HETATM    7  C   UNL     1     -11.190   7.878  71.428  1.00  0.00    -0.280 C  
HETATM    8  C   UNL     1     -11.605   6.428  70.283  1.00  0.00    -0.451 C  
HETATM    9  C   UNL     1      -8.482   8.080  69.833  1.00  0.00    -0.126 C  
HETATM   10  C   UNL     1      -7.364   7.169  67.214  1.00  0.00    -0.091 C  
HETATM   11  H   UNL     1      -9.925   5.534  72.801  1.00  0.00     0.000 HD 
HETATM   12  C   UNL     1     -10.203   5.768  69.607  1.00  0.00    -0.299 C  
HETATM   13  C   UNL     1      -7.682   9.038  68.916  1.00  0.00    -0.094 C  
HETATM   14  C   UNL     1      -9.098   6.723  68.919  1.00  0.00    -0.133 C  
HETATM   15  C   UNL     1      -9.989   4.471  69.911  1.00  0.00    -0.273 C  
HETATM   16  C   UNL     1      -7.897   6.082  68.146  1.00  0.00    -0.106 C  
HETATM   17  C   UNL     1      -8.209   4.786  67.365  1.00  0.00    -0.105 C  
HETATM   18  C   UNL     1      -8.766   4.911  65.964  1.00  0.00    -0.124 C  
HETATM   19  C   UNL     1      -8.160   6.020  65.165  1.00  0.00    -0.132 C  
HETATM   20  C   UNL     1      -7.488   7.132  65.874  1.00  0.00    -0.080 C  
HETATM   21  O   UNL     1      -8.264   6.058  63.940  1.00  0.00    -0.110 OA 
ENDROOT
BRANCH   4  22
HETATM   22  C   UNL     1      -9.253   7.857  72.811  1.00  0.00    -0.282 C  
HETATM   23  C   UNL     1      -8.697   8.150  73.829  1.00  0.00    -0.292 C  
ENDBRANCH   4  22
BRANCH   7  24
HETATM   24  C   UNL     1     -12.193   8.197  72.512  1.00  0.00    -0.335 C  
HETATM   25  C   UNL     1     -13.457   8.807  71.915  1.00  0.00    -0.447 C  
ENDBRANCH   7  24
TORSDOF 2
ENDMDL
MODEL       42
REMARK 921   NORMALIZED FREE ENERGY PREDICTED BY IDOCK:   -4.54 KCAL/MOL
REMARK 922        TOTAL FREE ENERGY PREDICTED BY IDOCK:   -5.32 KCAL/MOL
REMARK 923 INTER-LIGAND FREE ENERGY PREDICTED BY IDOCK:   -5.46 KCAL/MOL
REMARK 924 INTRA-LIGAND FREE ENERGY PREDICTED BY IDOCK:    0.13 KCAL/MOL
REMARK 927      BINDING AFFINITY PREDICTED BY RF-SCORE:    0.00 PKD
ROOT
HETATM    1  C   UNL     1      -7.394  17.552  67.249  1.00  0.00    -0.203 C  
HETATM    2  C   UNL     1      -7.261  17.399  65.857  1.00  0.00    -0.147 C  
HETATM    3  C   UNL     1      -8.626  17.325  66.432  1.00  0.00    -0.294 C  
HETATM    4  C   UNL     1      -8.791  18.009  68.365  1.00  0.00    -0.292 C  
HETATM    5  C   UNL     1      -6.989  13.410  68.103  1.00  0.00    -0.116 C  
HETATM    6  O   UNL     1      -9.918  18.515  69.113  1.00  0.00    -0.335 OA 
HETATM    7  C   UNL     1      -9.010  18.650  67.181  1.00  0.00    -0.288 C  
HETATM    8  C   UNL     1     -10.659  17.720  67.126  1.00  0.00    -0.292 C  
HETATM    9  C   UNL     1      -7.742  15.907  68.068  1.00  0.00    -0.139 C  
HETATM   10  C   UNL     1      -8.440  13.001  67.995  1.00  0.00    -0.181 C  
HETATM   11  H   UNL     1      -9.994  18.831  70.005  1.00  0.00     0.000 HD 
HETATM   12  C   UNL     1     -10.603  16.327  68.083  1.00  0.00    -0.307 C  
HETATM   13  C   UNL     1      -6.718  14.839  67.610  1.00  0.00    -0.198 C  
HETATM   14  C   UNL     1      -9.373  15.289  67.945  1.00  0.00    -0.189 C  
HETATM   15  C   UNL     1     -11.497  16.301  69.093  1.00  0.00    -0.257 C  
HETATM   16  C   UNL     1      -9.426  13.924  68.708  1.00  0.00    -0.045 C  
HETATM   17  C   UNL     1     -10.818  13.265  68.821  1.00  0.00    -0.273 C  
HETATM   18  C   UNL     1     -11.296  12.399  67.676  1.00  0.00    -0.371 C  
HETATM   19  C   UNL     1     -10.226  11.552  67.066  1.00  0.00    -0.214 C  
HETATM   20  C   UNL     1      -8.810  11.937  67.258  1.00  0.00    -0.179 C  
HETATM   21  O   UNL     1     -10.500  10.584  66.359  1.00  0.00    -0.235 OA 
ENDROOT
BRANCH   4  22
HETATM   22  C   UNL     1      -7.723  18.784  69.178  1.00  0.00    -0.144 C  
HETATM   23  C   UNL     1      -6.975  19.480  69.803  1.00  0.00    -0.163 C  
ENDBRANCH   4  22
BRANCH   7  24
HETATM   24  C   UNL     1      -9.054  20.131  66.884  1.00  0.00    -0.469 C  
HETATM   25  C   UNL     1     -10.078  20.431  65.793  1.00  0.00    -0.122 C  
ENDBRANCH   7  24
TORSDOF 2
ENDMDL
MODEL       43
REMARK 921   NORMALIZED FREE ENERGY PREDICTED BY IDOCK:   -4.47 KCAL/MOL
REMARK 922        TOTAL FREE ENERGY PREDICTED BY IDOCK:   -5.24 KCAL/MOL
REMARK 923 INTER-LIGAND FREE ENERGY PREDICTED BY IDOCK:   -5.11 KCAL/MOL
REMARK 924 INTRA-LIGAND FREE ENERGY PREDICTED BY IDOCK:   -0.13 KCAL/MOL
REMARK 927      BINDING AFFINITY PREDICTED BY RF-SCORE:    0.00 PKD
ROOT
HETATM    1  C   UNL     1     -11.293  13.407  66.890  1.00  0.00    -0.351 C  
HETATM    2  C   UNL     1     -12.029  12.763  67.902  1.00  0.00    -0.320 C  
HETATM    3  C   UNL     1     -10.650  13.202  68.225  1.00  0.00    -0.260 C  
HETATM    4  C   UNL     1      -9.822  14.522  66.883  1.00  0.00    -0.262 C  
HETATM    5  C   UNL     1      -9.614   9.828  65.337  1.00  0.00    -0.359 C  
HETATM    6  O   UNL     1      -8.762  15.493  67.019  1.00  0.00    -0.197 OA 
HETATM    7  C   UNL     1     -10.480  14.752  68.054  1.00  0.00    -0.246 C  
HETATM    8  C   UNL     1      -8.867  14.259  68.915  1.00  0.00    -0.022 C  
HETATM    9  C   UNL     1      -9.991  12.264  66.186  1.00  0.00    -0.260 C  
HETATM   10  C   UNL     1      -8.380   9.746  66.204  1.00  0.00    -0.122 C  
HETATM   11  H   UNL     1      -8.379  16.103  66.399  1.00  0.00     0.000 HD 
HETATM   12  C   UNL     1      -7.908  13.301  67.904  1.00  0.00    -0.152 C  
HETATM   13  C   UNL     1     -10.613  10.902  65.792  1.00  0.00    -0.230 C  
HETATM   14  C   UNL     1      -8.544  12.029  67.139  1.00  0.00    -0.182 C  
HETATM   15  C   UNL     1      -6.699  13.824  67.613  1.00  0.00    -0.189 C  
HETATM   16  C   UNL     1      -7.606  11.055  66.350  1.00  0.00    -0.135 C  
HETATM   17  C   UNL     1      -6.212  10.808  66.969  1.00  0.00    -0.070 C  
HETATM   18  C   UNL     1      -6.079   9.737  68.028  1.00  0.00    -0.054 C  
HETATM   19  C   UNL     1      -6.896   8.513  67.762  1.00  0.00    -0.067 C  
HETATM   20  C   UNL     1      -8.053   8.608  66.844  1.00  0.00    -0.098 C  
HETATM   21  O   UNL     1      -6.665   7.450  68.338  1.00  0.00    -0.050 OA 
ENDROOT
BRANCH   4  22
HETATM   22  C   UNL     1     -10.546  15.264  65.731  1.00  0.00    -0.359 C  
HETATM   23  C   UNL     1     -11.014  15.920  64.846  1.00  0.00    -0.427 C  
ENDBRANCH   4  22
BRANCH   7  24
HETATM   24  C   UNL     1     -11.155  16.012  68.545  1.00  0.00    -0.347 C  
HETATM   25  C   UNL     1     -11.464  15.913  70.036  1.00  0.00    -0.354 C  
ENDBRANCH   7  24
TORSDOF 2
ENDMDL
MODEL       44
REMARK 921   NORMALIZED FREE ENERGY PREDICTED BY IDOCK:   -4.46 KCAL/MOL
REMARK 922        TOTAL FREE ENERGY PREDICTED BY IDOCK:   -5.24 KCAL/MOL
REMARK 923 INTER-LIGAND FREE ENERGY PREDICTED BY IDOCK:   -5.10 KCAL/MOL
REMARK 924 INTRA-LIGAND FREE ENERGY PREDICTED BY IDOCK:   -0.14 KCAL/MOL
REMARK 927      BINDING AFFINITY PREDICTED BY RF-SCORE:    0.00 PKD
ROOT
HETATM    1  C   UNL     1      -9.303  10.595  68.672  1.00  0.00    -0.177 C  
HETATM    2  C   UNL     1      -8.068  10.794  69.316  1.00  0.00    -0.102 C  
HETATM    3  C   UNL     1      -8.248   9.544  68.539  1.00  0.00    -0.113 C  
HETATM    4  C   UNL     1      -9.866   9.536  67.269  1.00  0.00    -0.177 C  
HETATM    5  C   UNL     1     -11.107   8.612  71.967  1.00  0.00    -0.437 C  
HETATM    6  O   UNL     1     -10.148   8.774  66.076  1.00  0.00    -0.444 OA 
HETATM    7  C   UNL     1      -8.558   9.840  67.029  1.00  0.00    -0.127 C  
HETATM    8  C   UNL     1      -8.254   7.970  67.023  1.00  0.00    -0.116 C  
HETATM    9  C   UNL     1     -10.329   9.324  69.582  1.00  0.00    -0.227 C  
HETATM   10  C   UNL     1     -10.696   7.194  71.647  1.00  0.00    -0.236 C  
HETATM   11  H   UNL     1     -10.895   8.770  65.489  1.00  0.00     0.000 HD 
HETATM   12  C   UNL     1      -9.466   7.155  67.874  1.00  0.00    -0.135 C  
HETATM   13  C   UNL     1     -10.412   9.664  71.090  1.00  0.00    -0.281 C  
HETATM   14  C   UNL     1      -9.899   7.645  69.351  1.00  0.00    -0.171 C  
HETATM   15  C   UNL     1     -10.173   6.271  67.140  1.00  0.00    -0.247 C  
HETATM   16  C   UNL     1     -10.894   6.777  70.192  1.00  0.00    -0.311 C  
HETATM   17  C   UNL     1     -10.759   5.246  70.030  1.00  0.00    -0.208 C  
HETATM   18  C   UNL     1      -9.742   4.523  70.885  1.00  0.00    -0.263 C  
HETATM   19  C   UNL     1      -9.647   5.039  72.286  1.00  0.00    -0.148 C  
HETATM   20  C   UNL     1     -10.133   6.405  72.582  1.00  0.00    -0.193 C  
HETATM   21  O   UNL     1      -9.118   4.377  73.178  1.00  0.00    -0.117 OA 
ENDROOT
BRANCH   4  22
HETATM   22  C   UNL     1     -10.754  10.745  66.878  1.00  0.00    -0.309 C  
HETATM   23  C   UNL     1     -11.359  11.700  66.484  1.00  0.00    -0.331 C  
ENDBRANCH   4  22
BRANCH   7  24
HETATM   24  C   UNL     1      -7.948  10.632  65.896  1.00  0.00    -0.157 C  
HETATM   25  C   UNL     1      -6.572  11.161  66.287  1.00  0.00    -0.069 C  
ENDBRANCH   7  24
TORSDOF 2
ENDMDL
MODEL       45
REMARK 921   NORMALIZED FREE ENERGY PREDICTED BY IDOCK:   -4.40 KCAL/MOL
REMARK 922        TOTAL FREE ENERGY PREDICTED BY IDOCK:   -5.17 KCAL/MOL
REMARK 923 INTER-LIGAND FREE ENERGY PREDICTED BY IDOCK:   -5.00 KCAL/MOL
REMARK 924 INTRA-LIGAND FREE ENERGY PREDICTED BY IDOCK:   -0.17 KCAL/MOL
REMARK 927      BINDING AFFINITY PREDICTED BY RF-SCORE:    0.00 PKD
ROOT
HETATM    1  C   UNL     1      -9.115  10.065  69.849  1.00  0.00    -0.188 C  
HETATM    2  C   UNL     1      -7.712  10.143  69.929  1.00  0.00    -0.171 C  
HETATM    3  C   UNL     1      -8.297   9.062  69.099  1.00  0.00    -0.123 C  
HETATM    4  C   UNL     1     -10.293   9.289  68.658  1.00  0.00    -0.205 C  
HETATM    5  C   UNL     1      -9.522   7.486  73.199  1.00  0.00    -0.272 C  
HETATM    6  O   UNL     1     -11.106   8.766  67.586  1.00  0.00    -0.480 OA 
HETATM    7  C   UNL     1      -9.186   9.638  67.942  1.00  0.00    -0.134 C  
HETATM    8  C   UNL     1      -9.058   7.805  67.483  1.00  0.00    -0.136 C  
HETATM    9  C   UNL     1      -9.761   8.640  70.873  1.00  0.00    -0.254 C  
HETATM   10  C   UNL     1      -9.393   6.156  72.494  1.00  0.00    -0.140 C  
HETATM   11  H   UNL     1     -12.028   8.871  67.383  1.00  0.00     0.000 HD 
HETATM   12  C   UNL     1      -9.862   6.839  68.613  1.00  0.00    -0.142 C  
HETATM   13  C   UNL     1      -9.179   8.688  72.307  1.00  0.00    -0.297 C  
HETATM   14  C   UNL     1      -9.598   7.038  70.194  1.00  0.00    -0.164 C  
HETATM   15  C   UNL     1     -10.877   6.108  68.109  1.00  0.00    -0.389 C  
HETATM   16  C   UNL     1     -10.214   6.022  71.213  1.00  0.00    -0.253 C  
HETATM   17  C   UNL     1     -10.278   4.550  70.747  1.00  0.00    -0.164 C  
HETATM   18  C   UNL     1      -9.056   3.682  70.949  1.00  0.00    -0.180 C  
HETATM   19  C   UNL     1      -8.344   3.923  72.241  1.00  0.00    -0.093 C  
HETATM   20  C   UNL     1      -8.554   5.206  72.948  1.00  0.00    -0.115 C  
HETATM   21  O   UNL     1      -7.543   3.106  72.694  1.00  0.00    -0.051 OA 
ENDROOT
BRANCH   4  22
HETATM   22  C   UNL     1     -11.167  10.547  68.898  1.00  0.00    -0.323 C  
HETATM   23  C   UNL     1     -11.893  11.456  69.178  1.00  0.00    -0.413 C  
ENDBRANCH   4  22
BRANCH   7  24
HETATM   24  C   UNL     1      -9.047  10.633  66.813  1.00  0.00    -0.167 C  
HETATM   25  C   UNL     1      -7.586  11.031  66.622  1.00  0.00    -0.146 C  
ENDBRANCH   7  24
TORSDOF 2
ENDMDL
MODEL       46
REMARK 921   NORMALIZED FREE ENERGY PREDICTED BY IDOCK:   -4.37 KCAL/MOL
REMARK 922        TOTAL FREE ENERGY PREDICTED BY IDOCK:   -5.13 KCAL/MOL
REMARK 923 INTER-LIGAND FREE ENERGY PREDICTED BY IDOCK:   -5.51 KCAL/MOL
REMARK 924 INTRA-LIGAND FREE ENERGY PREDICTED BY IDOCK:    0.38 KCAL/MOL
REMARK 927      BINDING AFFINITY PREDICTED BY RF-SCORE:    0.00 PKD
ROOT
HETATM    1  C   UNL     1     -11.317  13.407  65.398  1.00  0.00    -0.309 C  
HETATM    2  C   UNL     1     -12.474  12.611  65.316  1.00  0.00    -0.483 C  
HETATM    3  C   UNL     1     -11.489  12.289  66.376  1.00  0.00    -0.434 C  
HETATM    4  C   UNL     1     -10.084  13.748  66.728  1.00  0.00    -0.265 C  
HETATM    5  C   UNL     1      -9.029  10.983  62.765  1.00  0.00    -0.327 C  
HETATM    6  O   UNL     1      -9.274  14.043  67.886  1.00  0.00    -0.182 OA 
HETATM    7  C   UNL     1     -11.271  13.499  67.351  1.00  0.00    -0.317 C  
HETATM    8  C   UNL     1     -10.367  12.092  68.240  1.00  0.00    -0.211 C  
HETATM    9  C   UNL     1      -9.829  12.485  64.741  1.00  0.00    -0.084 C  
HETATM   10  C   UNL     1      -8.453  10.015  63.771  1.00  0.00    -0.181 C  
HETATM   11  H   UNL     1      -8.624  14.717  68.049  1.00  0.00     0.000 HD 
HETATM   12  C   UNL     1      -9.006  11.599  67.368  1.00  0.00    -0.166 C  
HETATM   13  C   UNL     1     -10.127  11.887  63.344  1.00  0.00    -0.464 C  
HETATM   14  C   UNL     1      -9.117  11.280  65.788  1.00  0.00    -0.216 C  
HETATM   15  C   UNL     1      -7.835  11.740  68.024  1.00  0.00    -0.134 C  
HETATM   16  C   UNL     1      -7.892  10.657  65.038  1.00  0.00     0.017 C  
HETATM   17  C   UNL     1      -7.047   9.647  65.845  1.00  0.00    -0.098 C  
HETATM   18  C   UNL     1      -7.491   8.202  65.872  1.00  0.00    -0.080 C  
HETATM   19  C   UNL     1      -8.025   7.705  64.566  1.00  0.00    -0.130 C  
HETATM   20  C   UNL     1      -8.509   8.685  63.569  1.00  0.00    -0.072 C  
HETATM   21  O   UNL     1      -8.128   6.501  64.332  1.00  0.00    -0.118 OA 
ENDROOT
BRANCH   4  22
HETATM   22  C   UNL     1     -10.085  15.199  66.183  1.00  0.00    -0.314 C  
HETATM   23  C   UNL     1     -10.018  16.277  65.667  1.00  0.00    -0.306 C  
ENDBRANCH   4  22
BRANCH   7  24
HETATM   24  C   UNL     1     -12.117  14.412  68.207  1.00  0.00    -0.260 C  
HETATM   25  C   UNL     1     -12.268  13.845  69.616  1.00  0.00    -0.374 C  
ENDBRANCH   7  24
TORSDOF 2
ENDMDL
MODEL       47
REMARK 921   NORMALIZED FREE ENERGY PREDICTED BY IDOCK:   -4.36 KCAL/MOL
REMARK 922        TOTAL FREE ENERGY PREDICTED BY IDOCK:   -5.12 KCAL/MOL
REMARK 923 INTER-LIGAND FREE ENERGY PREDICTED BY IDOCK:   -5.62 KCAL/MOL
REMARK 924 INTRA-LIGAND FREE ENERGY PREDICTED BY IDOCK:    0.50 KCAL/MOL
REMARK 927      BINDING AFFINITY PREDICTED BY RF-SCORE:    0.00 PKD
ROOT
HETATM    1  C   UNL     1      -9.951  10.954  66.543  1.00  0.00    -0.255 C  
HETATM    2  C   UNL     1     -10.690  10.549  67.670  1.00  0.00    -0.324 C  
HETATM    3  C   UNL     1     -10.426  11.998  67.503  1.00  0.00    -0.234 C  
HETATM    4  C   UNL     1      -9.762  12.551  65.637  1.00  0.00    -0.158 C  
HETATM    5  C   UNL     1      -6.175  10.655  68.466  1.00  0.00    -0.049 C  
HETATM    6  O   UNL     1      -9.810  13.811  64.933  1.00  0.00    -0.609 OA 
HETATM    7  C   UNL     1     -11.022  12.545  66.159  1.00  0.00    -0.318 C  
HETATM    8  C   UNL     1     -10.524  14.135  67.058  1.00  0.00    -0.271 C  
HETATM    9  C   UNL     1      -8.208  11.428  67.027  1.00  0.00    -0.160 C  
HETATM   10  C   UNL     1      -6.089  12.049  69.043  1.00  0.00    -0.073 C  
HETATM   11  H   UNL     1      -9.504  14.067  64.071  1.00  0.00     0.000 HD 
HETATM   12  C   UNL     1      -8.843  14.243  67.213  1.00  0.00    -0.224 C  
HETATM   13  C   UNL     1      -7.556  10.317  67.885  1.00  0.00    -0.089 C  
HETATM   14  C   UNL     1      -7.991  12.993  67.777  1.00  0.00    -0.164 C  
HETATM   15  C   UNL     1      -8.291  15.317  66.612  1.00  0.00    -0.216 C  
HETATM   16  C   UNL     1      -6.466  13.171  68.078  1.00  0.00    -0.126 C  
HETATM   17  C   UNL     1      -6.043  14.548  68.637  1.00  0.00    -0.084 C  
HETATM   18  C   UNL     1      -6.144  14.777  70.128  1.00  0.00    -0.156 C  
HETATM   19  C   UNL     1      -5.753  13.593  70.954  1.00  0.00    -0.197 C  
HETATM   20  C   UNL     1      -5.771  12.249  70.336  1.00  0.00    -0.169 C  
HETATM   21  O   UNL     1      -5.479  13.707  72.148  1.00  0.00    -0.334 OA 
ENDROOT
BRANCH   4  22
HETATM   22  C   UNL     1      -9.732  11.676  64.357  1.00  0.00    -0.199 C  
HETATM   23  C   UNL     1      -9.617  11.075  63.329  1.00  0.00    -0.370 C  
ENDBRANCH   4  22
BRANCH   7  24
HETATM   24  C   UNL     1     -12.356  12.555  65.448  1.00  0.00    -0.426 C  
HETATM   25  C   UNL     1     -12.873  13.982  65.293  1.00  0.00    -0.418 C  
ENDBRANCH   7  24
TORSDOF 2
ENDMDL
MODEL       48
REMARK 921   NORMALIZED FREE ENERGY PREDICTED BY IDOCK:   -4.27 KCAL/MOL
REMARK 922        TOTAL FREE ENERGY PREDICTED BY IDOCK:   -5.02 KCAL/MOL
REMARK 923 INTER-LIGAND FREE ENERGY PREDICTED BY IDOCK:   -5.33 KCAL/MOL
REMARK 924 INTRA-LIGAND FREE ENERGY PREDICTED BY IDOCK:    0.31 KCAL/MOL
REMARK 927      BINDING AFFINITY PREDICTED BY RF-SCORE:    0.00 PKD
ROOT
HETATM    1  C   UNL     1      -8.137  17.739  67.206  1.00  0.00    -0.223 C  
HETATM    2  C   UNL     1      -7.411  17.855  66.006  1.00  0.00    -0.306 C  
HETATM    3  C   UNL     1      -8.587  16.953  66.016  1.00  0.00    -0.194 C  
HETATM    4  C   UNL     1      -9.847  17.186  67.624  1.00  0.00    -0.270 C  
HETATM    5  C   UNL     1      -5.841  14.491  68.699  1.00  0.00    -0.090 C  
HETATM    6  O   UNL     1     -11.245  16.870  67.804  1.00  0.00    -0.201 OA 
HETATM    7  C   UNL     1      -9.906  17.725  66.373  1.00  0.00    -0.328 C  
HETATM    8  C   UNL     1     -10.561  16.038  65.812  1.00  0.00    -0.366 C  
HETATM    9  C   UNL     1      -7.783  16.103  68.041  1.00  0.00    -0.143 C  
HETATM   10  C   UNL     1      -6.624  13.348  68.096  1.00  0.00    -0.118 C  
HETATM   11  H   UNL     1     -11.827  16.977  68.547  1.00  0.00     0.000 HD 
HETATM   12  C   UNL     1     -10.108  14.821  66.895  1.00  0.00    -0.246 C  
HETATM   13  C   UNL     1      -6.257  15.868  68.161  1.00  0.00    -0.128 C  
HETATM   14  C   UNL     1      -8.574  14.690  67.383  1.00  0.00    -0.212 C  
HETATM   15  C   UNL     1     -11.138  14.172  67.476  1.00  0.00    -0.304 C  
HETATM   16  C   UNL     1      -8.140  13.456  68.243  1.00  0.00    -0.152 C  
HETATM   17  C   UNL     1      -8.827  12.116  67.898  1.00  0.00    -0.177 C  
HETATM   18  C   UNL     1      -8.240  11.276  66.786  1.00  0.00    -0.158 C  
HETATM   19  C   UNL     1      -6.745  11.265  66.755  1.00  0.00    -0.140 C  
HETATM   20  C   UNL     1      -6.006  12.359  67.424  1.00  0.00    -0.154 C  
HETATM   21  O   UNL     1      -6.122  10.405  66.134  1.00  0.00    -0.077 OA 
ENDROOT
BRANCH   4  22
HETATM   22  C   UNL     1      -9.824  18.326  68.674  1.00  0.00    -0.400 C  
HETATM   23  C   UNL     1      -9.925  19.228  69.454  1.00  0.00    -0.154 C  
ENDBRANCH   4  22
BRANCH   7  24
HETATM   24  C   UNL     1     -10.657  18.942  65.885  1.00  0.00    -0.438 C  
HETATM   25  C   UNL     1      -9.736  20.157  65.831  1.00  0.00    -0.350 C  
ENDBRANCH   7  24
TORSDOF 2
ENDMDL
MODEL       49
REMARK 921   NORMALIZED FREE ENERGY PREDICTED BY IDOCK:   -4.20 KCAL/MOL
REMARK 922        TOTAL FREE ENERGY PREDICTED BY IDOCK:   -4.95 KCAL/MOL
REMARK 923 INTER-LIGAND FREE ENERGY PREDICTED BY IDOCK:   -4.71 KCAL/MOL
REMARK 924 INTRA-LIGAND FREE ENERGY PREDICTED BY IDOCK:   -0.24 KCAL/MOL
REMARK 927      BINDING AFFINITY PREDICTED BY RF-SCORE:    0.00 PKD
ROOT
HETATM    1  C   UNL     1     -11.089  11.108  67.281  1.00  0.00    -0.366 C  
HETATM    2  C   UNL     1     -11.871  11.628  68.329  1.00  0.00    -0.335 C  
HETATM    3  C   UNL     1     -10.422  11.945  68.326  1.00  0.00    -0.221 C  
HETATM    4  C   UNL     1      -9.452  11.553  66.555  1.00  0.00    -0.204 C  
HETATM    5  C   UNL     1     -10.128   7.502  69.311  1.00  0.00    -0.188 C  
HETATM    6  O   UNL     1      -8.237  12.087  65.986  1.00  0.00    -0.368 OA 
HETATM    7  C   UNL     1     -10.000  12.711  67.023  1.00  0.00    -0.220 C  
HETATM    8  C   UNL     1      -8.452  12.862  68.103  1.00  0.00    -0.176 C  
HETATM    9  C   UNL     1     -10.040   9.681  67.881  1.00  0.00    -0.222 C  
HETATM   10  C   UNL     1      -8.882   7.959  70.033  1.00  0.00    -0.141 C  
HETATM   11  H   UNL     1      -7.789  11.906  65.168  1.00  0.00     0.000 HD 
HETATM   12  C   UNL     1      -7.724  11.354  68.335  1.00  0.00    -0.127 C  
HETATM   13  C   UNL     1     -10.904   8.647  68.644  1.00  0.00    -0.003 C  
HETATM   14  C   UNL     1      -8.606  10.082  68.798  1.00  0.00    -0.131 C  
HETATM   15  C   UNL     1      -6.461  11.261  67.872  1.00  0.00    -0.058 C  
HETATM   16  C   UNL     1      -7.890   8.743  69.177  1.00  0.00    -0.098 C  
HETATM   17  C   UNL     1      -6.528   8.882  69.893  1.00  0.00    -0.038 C  
HETATM   18  C   UNL     1      -6.524   9.059  71.395  1.00  0.00    -0.079 C  
HETATM   19  C   UNL     1      -7.551   8.238  72.107  1.00  0.00    -0.121 C  
HETATM   20  C   UNL     1      -8.721   7.738  71.351  1.00  0.00    -0.142 C  
HETATM   21  O   UNL     1      -7.475   8.024  73.317  1.00  0.00    -0.122 OA 
ENDROOT
BRANCH   4  22
HETATM   22  C   UNL     1     -10.099  11.192  65.193  1.00  0.00    -0.335 C  
HETATM   23  C   UNL     1     -10.492  10.856  64.114  1.00  0.00    -0.397 C  
ENDBRANCH   4  22
BRANCH   7  24
HETATM   24  C   UNL     1     -10.424  13.948  66.265  1.00  0.00    -0.287 C  
HETATM   25  C   UNL     1     -11.082  14.956  67.203  1.00  0.00    -0.332 C  
ENDBRANCH   7  24
TORSDOF 2
ENDMDL
MODEL       50
REMARK 921   NORMALIZED FREE ENERGY PREDICTED BY IDOCK:   -4.17 KCAL/MOL
REMARK 922        TOTAL FREE ENERGY PREDICTED BY IDOCK:   -4.91 KCAL/MOL
REMARK 923 INTER-LIGAND FREE ENERGY PREDICTED BY IDOCK:   -5.27 KCAL/MOL
REMARK 924 INTRA-LIGAND FREE ENERGY PREDICTED BY IDOCK:    0.36 KCAL/MOL
REMARK 927      BINDING AFFINITY PREDICTED BY RF-SCORE:    0.00 PKD
ROOT
HETATM    1  C   UNL     1      -9.294  14.794  68.831  1.00  0.00    -0.184 C  
HETATM    2  C   UNL     1      -9.913  14.994  70.078  1.00  0.00     0.033 C  
HETATM    3  C   UNL     1      -9.965  16.104  69.095  1.00  0.00    -0.251 C  
HETATM    4  C   UNL     1      -9.462  15.583  67.171  1.00  0.00    -0.215 C  
HETATM    5  C   UNL     1      -5.513  16.284  70.066  1.00  0.00    -0.169 C  
HETATM    6  O   UNL     1      -9.787  16.180  65.897  1.00  0.00    -0.320 OA 
HETATM    7  C   UNL     1     -10.684  15.670  67.770  1.00  0.00    -0.297 C  
HETATM    8  C   UNL     1     -10.521  17.544  67.549  1.00  0.00    -0.355 C  
HETATM    9  C   UNL     1      -7.684  15.740  68.728  1.00  0.00    -0.177 C  
HETATM   10  C   UNL     1      -5.716  17.747  69.746  1.00  0.00    -0.241 C  
HETATM   11  H   UNL     1      -9.554  15.940  65.008  1.00  0.00     0.000 HD 
HETATM   12  C   UNL     1      -8.900  17.997  67.390  1.00  0.00    -0.245 C  
HETATM   13  C   UNL     1      -6.799  15.451  69.965  1.00  0.00    -0.048 C  
HETATM   14  C   UNL     1      -7.794  17.461  68.437  1.00  0.00    -0.257 C  
HETATM   15  C   UNL     1      -8.597  18.604  66.223  1.00  0.00    -0.232 C  
HETATM   16  C   UNL     1      -6.336  18.029  68.379  1.00  0.00    -0.196 C  
HETATM   17  C   UNL     1      -6.207  19.523  68.009  1.00  0.00    -0.242 C  
HETATM   18  C   UNL     1      -6.333  20.548  69.115  1.00  0.00    -0.255 C  
HETATM   19  C   UNL     1      -5.687  20.139  70.400  1.00  0.00    -0.325 C  
HETATM   20  C   UNL     1      -5.428  18.703  70.649  1.00  0.00    -0.230 C  
HETATM   21  O   UNL     1      -5.426  20.962  71.277  1.00  0.00    -0.540 OA 
ENDROOT
BRANCH   4  22
HETATM   22  C   UNL     1      -9.265  14.152  66.609  1.00  0.00    -0.272 C  
HETATM   23  C   UNL     1      -9.215  13.066  66.107  1.00  0.00    -0.010 C  
ENDBRANCH   4  22
BRANCH   7  24
HETATM   24  C   UNL     1     -12.000  15.049  67.362  1.00  0.00    -0.064 C  
HETATM   25  C   UNL     1     -12.224  13.730  68.095  1.00  0.00    -0.178 C  
ENDBRANCH   7  24
TORSDOF 2
ENDMDL
MODEL       51
REMARK 921   NORMALIZED FREE ENERGY PREDICTED BY IDOCK:   -4.17 KCAL/MOL
REMARK 922        TOTAL FREE ENERGY PREDICTED BY IDOCK:   -4.91 KCAL/MOL
REMARK 923 INTER-LIGAND FREE ENERGY PREDICTED BY IDOCK:   -4.93 KCAL/MOL
REMARK 924 INTRA-LIGAND FREE ENERGY PREDICTED BY IDOCK:    0.02 KCAL/MOL
REMARK 927      BINDING AFFINITY PREDICTED BY RF-SCORE:    0.00 PKD
ROOT
HETATM    1  C   UNL     1      -9.597   5.615  71.060  1.00  0.00    -0.210 C  
HETATM    2  C   UNL     1      -8.244   5.499  71.430  1.00  0.00    -0.118 C  
HETATM    3  C   UNL     1      -8.574   6.383  70.286  1.00  0.00    -0.135 C  
HETATM    4  C   UNL     1     -10.565   6.861  70.104  1.00  0.00    -0.220 C  
HETATM    5  C   UNL     1      -9.495   2.377  68.312  1.00  0.00    -0.222 C  
HETATM    6  O   UNL     1     -11.233   7.972  69.467  1.00  0.00    -0.446 OA 
HETATM    7  C   UNL     1      -9.548   7.538  70.710  1.00  0.00    -0.166 C  
HETATM    8  C   UNL     1      -9.026   8.065  68.967  1.00  0.00    -0.145 C  
HETATM    9  C   UNL     1      -9.940   4.662  69.488  1.00  0.00    -0.266 C  
HETATM   10  C   UNL     1      -9.076   3.131  67.070  1.00  0.00    -0.198 C  
HETATM   11  H   UNL     1     -12.153   8.193  69.383  1.00  0.00     0.000 HD 
HETATM   12  C   UNL     1      -9.623   6.992  67.805  1.00  0.00    -0.138 C  
HETATM   13  C   UNL     1      -9.402   3.214  69.596  1.00  0.00    -0.222 C  
HETATM   14  C   UNL     1      -9.430   5.399  67.987  1.00  0.00    -0.138 C  
HETATM   15  C   UNL     1     -10.451   7.548  66.897  1.00  0.00    -0.385 C  
HETATM   16  C   UNL     1      -9.830   4.435  66.821  1.00  0.00    -0.241 C  
HETATM   17  C   UNL     1      -9.573   4.959  65.391  1.00  0.00    -0.115 C  
HETATM   18  C   UNL     1      -8.197   4.763  64.793  1.00  0.00    -0.122 C  
HETATM   19  C   UNL     1      -7.572   3.446  65.124  1.00  0.00    -0.080 C  
HETATM   20  C   UNL     1      -8.060   2.695  66.301  1.00  0.00    -0.084 C  
HETATM   21  O   UNL     1      -6.622   3.006  64.477  1.00  0.00    -0.033 OA 
ENDROOT
BRANCH   4  22
HETATM   22  C   UNL     1     -11.690   6.594  71.136  1.00  0.00    -0.399 C  
HETATM   23  C   UNL     1     -12.515   6.484  71.997  1.00  0.00    -0.261 C  
ENDBRANCH   4  22
BRANCH   7  24
HETATM   24  C   UNL     1      -9.607   8.624  71.760  1.00  0.00    -0.360 C  
HETATM   25  C   UNL     1      -8.471   8.465  72.765  1.00  0.00    -0.224 C  
ENDBRANCH   7  24
TORSDOF 2
ENDMDL
MODEL       52
REMARK 921   NORMALIZED FREE ENERGY PREDICTED BY IDOCK:   -4.16 KCAL/MOL
REMARK 922        TOTAL FREE ENERGY PREDICTED BY IDOCK:   -4.90 KCAL/MOL
REMARK 923 INTER-LIGAND FREE ENERGY PREDICTED BY IDOCK:   -5.03 KCAL/MOL
REMARK 924 INTRA-LIGAND FREE ENERGY PREDICTED BY IDOCK:    0.13 KCAL/MOL
REMARK 927      BINDING AFFINITY PREDICTED BY RF-SCORE:    0.00 PKD
ROOT
HETATM    1  C   UNL     1      -9.645   7.538  68.061  1.00  0.00    -0.156 C  
HETATM    2  C   UNL     1     -10.822   6.900  67.628  1.00  0.00    -0.333 C  
HETATM    3  C   UNL     1      -9.897   7.419  66.592  1.00  0.00    -0.263 C  
HETATM    4  C   UNL     1      -8.019   7.907  67.272  1.00  0.00    -0.118 C  
HETATM    5  C   UNL     1     -11.376  11.414  68.218  1.00  0.00    -0.354 C  
HETATM    6  O   UNL     1      -6.747   8.009  66.595  1.00  0.00    -0.061 OA 
HETATM    7  C   UNL     1      -8.478   6.757  66.701  1.00  0.00    -0.120 C  
HETATM    8  C   UNL     1      -8.371   7.681  65.051  1.00  0.00    -0.078 C  
HETATM    9  C   UNL     1      -9.774   9.391  67.843  1.00  0.00    -0.177 C  
HETATM   10  C   UNL     1     -11.108  11.853  66.798  1.00  0.00    -0.359 C  
HETATM   11  H   UNL     1      -5.879   8.235  66.909  1.00  0.00     0.000 HD 
HETATM   12  C   UNL     1      -8.420   9.355  65.288  1.00  0.00    -0.161 C  
HETATM   13  C   UNL     1     -11.088   9.926  68.464  1.00  0.00    -0.181 C  
HETATM   14  C   UNL     1      -9.558  10.015  66.224  1.00  0.00    -0.256 C  
HETATM   15  C   UNL     1      -7.327  10.017  64.856  1.00  0.00    -0.140 C  
HETATM   16  C   UNL     1      -9.696  11.573  66.290  1.00  0.00    -0.240 C  
HETATM   17  C   UNL     1      -9.418  12.333  64.975  1.00  0.00     0.132 C  
HETATM   18  C   UNL     1     -10.551  12.490  63.986  1.00  0.00    -0.451 C  
HETATM   19  C   UNL     1     -11.880  12.754  64.619  1.00  0.00    -0.374 C  
HETATM   20  C   UNL     1     -12.085  12.384  66.038  1.00  0.00    -0.327 C  
HETATM   21  O   UNL     1     -12.820  13.211  63.971  1.00  0.00    -0.648 OA 
ENDROOT
BRANCH   4  22
HETATM   22  C   UNL     1      -7.413   7.584  68.662  1.00  0.00    -0.101 C  
HETATM   23  C   UNL     1      -6.875   7.249  69.678  1.00  0.00    -0.049 C  
ENDBRANCH   4  22
BRANCH   7  24
HETATM   24  C   UNL     1      -7.892   5.365  66.740  1.00  0.00    -0.101 C  
HETATM   25  C   UNL     1      -8.175   4.624  65.436  1.00  0.00    -0.116 C  
ENDBRANCH   7  24
TORSDOF 2
ENDMDL
MODEL       53
REMARK 921   NORMALIZED FREE ENERGY PREDICTED BY IDOCK:   -4.14 KCAL/MOL
REMARK 922        TOTAL FREE ENERGY PREDICTED BY IDOCK:   -4.88 KCAL/MOL
REMARK 923 INTER-LIGAND FREE ENERGY PREDICTED BY IDOCK:   -4.67 KCAL/MOL
REMARK 924 INTRA-LIGAND FREE ENERGY PREDICTED BY IDOCK:   -0.21 KCAL/MOL
REMARK 927      BINDING AFFINITY PREDICTED BY RF-SCORE:    0.00 PKD
ROOT
HETATM    1  C   UNL     1      -8.713   7.217  71.368  1.00  0.00    -0.126 C  
HETATM    2  C   UNL     1      -9.398   7.943  72.360  1.00  0.00    -0.246 C  
HETATM    3  C   UNL     1     -10.171   7.493  71.177  1.00  0.00    -0.199 C  
HETATM    4  C   UNL     1      -9.239   6.069  70.023  1.00  0.00    -0.149 C  
HETATM    5  C   UNL     1      -7.595  10.646  69.125  1.00  0.00    -0.131 C  
HETATM    6  O   UNL     1      -9.760   5.082  69.107  1.00  0.00    -0.144 OA 
HETATM    7  C   UNL     1     -10.147   5.930  71.031  1.00  0.00    -0.252 C  
HETATM    8  C   UNL     1     -11.453   6.438  69.757  1.00  0.00    -0.468 C  
HETATM    9  C   UNL     1      -8.406   8.280  69.860  1.00  0.00    -0.125 C  
HETATM   10  C   UNL     1      -8.808  10.753  68.230  1.00  0.00    -0.139 C  
HETATM   11  H   UNL     1      -9.330   4.424  68.573  1.00  0.00     0.000 HD 
HETATM   12  C   UNL     1     -10.755   7.304  68.484  1.00  0.00    -0.165 C  
HETATM   13  C   UNL     1      -7.761   9.629  70.262  1.00  0.00    -0.184 C  
HETATM   14  C   UNL     1      -9.759   8.540  68.785  1.00  0.00    -0.168 C  
HETATM   15  C   UNL     1     -10.897   6.734  67.270  1.00  0.00    -0.443 C  
HETATM   16  C   UNL     1      -9.264   9.438  67.602  1.00  0.00    -0.142 C  
HETATM   17  C   UNL     1     -10.285   9.689  66.470  1.00  0.00    -0.294 C  
HETATM   18  C   UNL     1     -11.272  10.823  66.634  1.00  0.00     0.003 C  
HETATM   19  C   UNL     1     -10.693  12.047  67.269  1.00  0.00    -0.232 C  
HETATM   20  C   UNL     1      -9.458  11.922  68.074  1.00  0.00    -0.197 C  
HETATM   21  O   UNL     1     -11.254  13.138  67.188  1.00  0.00    -0.275 OA 
ENDROOT
BRANCH   4  22
HETATM   22  C   UNL     1      -7.956   5.272  70.374  1.00  0.00    -0.091 C  
HETATM   23  C   UNL     1      -6.949   4.642  70.522  1.00  0.00    -0.037 C  
ENDBRANCH   4  22
BRANCH   7  24
HETATM   24  C   UNL     1     -10.460   4.722  71.882  1.00  0.00    -0.201 C  
HETATM   25  C   UNL     1     -11.605   5.023  72.845  1.00  0.00    -0.261 C  
ENDBRANCH   7  24
TORSDOF 2
ENDMDL
MODEL       54
REMARK 921   NORMALIZED FREE ENERGY PREDICTED BY IDOCK:   -4.13 KCAL/MOL
REMARK 922        TOTAL FREE ENERGY PREDICTED BY IDOCK:   -4.87 KCAL/MOL
REMARK 923 INTER-LIGAND FREE ENERGY PREDICTED BY IDOCK:   -5.11 KCAL/MOL
REMARK 924 INTRA-LIGAND FREE ENERGY PREDICTED BY IDOCK:    0.25 KCAL/MOL
REMARK 927      BINDING AFFINITY PREDICTED BY RF-SCORE:    0.00 PKD
ROOT
HETATM    1  C   UNL     1      -8.154  12.040  67.375  1.00  0.00    -0.168 C  
HETATM    2  C   UNL     1      -7.408  12.861  68.241  1.00  0.00    -0.118 C  
HETATM    3  C   UNL     1      -7.988  11.615  68.799  1.00  0.00    -0.086 C  
HETATM    4  C   UNL     1      -8.651  10.263  67.399  1.00  0.00    -0.125 C  
HETATM    5  C   UNL     1     -11.865  13.938  68.194  1.00  0.00    -0.407 C  
HETATM    6  O   UNL     1      -8.853   8.835  67.462  1.00  0.00    -0.133 OA 
HETATM    7  C   UNL     1      -7.456  10.343  68.050  1.00  0.00    -0.090 C  
HETATM    8  C   UNL     1      -8.357   9.592  69.537  1.00  0.00    -0.154 C  
HETATM    9  C   UNL     1      -9.984  12.193  67.728  1.00  0.00    -0.198 C  
HETATM   10  C   UNL     1     -12.302  13.108  69.379  1.00  0.00    -0.053 C  
HETATM   11  H   UNL     1      -9.159   8.210  66.815  1.00  0.00     0.000 HD 
HETATM   12  C   UNL     1     -10.023   9.860  69.436  1.00  0.00    -0.227 C  
HETATM   13  C   UNL     1     -10.413  13.680  67.768  1.00  0.00    -0.241 C  
HETATM   14  C   UNL     1     -10.597  11.337  69.123  1.00  0.00    -0.222 C  
HETATM   15  C   UNL     1     -10.771   8.738  69.386  1.00  0.00    -0.180 C  
HETATM   16  C   UNL     1     -12.138  11.600  69.207  1.00  0.00    -0.323 C  
HETATM   17  C   UNL     1     -12.897  10.830  70.311  1.00  0.00    -0.226 C  
HETATM   18  C   UNL     1     -12.936  11.426  71.701  1.00  0.00    -0.523 C  
HETATM   19  C   UNL     1     -13.093  12.913  71.722  1.00  0.00    -0.360 C  
HETATM   20  C   UNL     1     -12.732  13.690  70.515  1.00  0.00    -0.260 C  
HETATM   21  O   UNL     1     -13.454  13.505  72.737  1.00  0.00    -0.621 OA 
ENDROOT
BRANCH   4  22
HETATM   22  C   UNL     1      -8.406  10.304  65.869  1.00  0.00    -0.145 C  
HETATM   23  C   UNL     1      -8.207  10.212  64.692  1.00  0.00    -0.165 C  
ENDBRANCH   4  22
BRANCH   7  24
HETATM   24  C   UNL     1      -6.121   9.736  67.686  1.00  0.00    -0.051 C  
HETATM   25  C   UNL     1      -5.529   8.983  68.874  1.00  0.00    -0.037 C  
ENDBRANCH   7  24
TORSDOF 2
ENDMDL
MODEL       55
REMARK 921   NORMALIZED FREE ENERGY PREDICTED BY IDOCK:   -4.12 KCAL/MOL
REMARK 922        TOTAL FREE ENERGY PREDICTED BY IDOCK:   -4.86 KCAL/MOL
REMARK 923 INTER-LIGAND FREE ENERGY PREDICTED BY IDOCK:   -5.25 KCAL/MOL
REMARK 924 INTRA-LIGAND FREE ENERGY PREDICTED BY IDOCK:    0.39 KCAL/MOL
REMARK 927      BINDING AFFINITY PREDICTED BY RF-SCORE:    0.00 PKD
ROOT
HETATM    1  C   UNL     1      -7.821   9.863  67.911  1.00  0.00    -0.090 C  
HETATM    2  C   UNL     1      -7.703   8.610  67.281  1.00  0.00    -0.097 C  
HETATM    3  C   UNL     1      -9.063   9.179  67.438  1.00  0.00    -0.142 C  
HETATM    4  C   UNL     1      -9.118  11.175  67.929  1.00  0.00    -0.150 C  
HETATM    5  C   UNL     1      -8.221   8.261  71.824  1.00  0.00    -0.186 C  
HETATM    6  O   UNL     1     -10.137  12.182  67.749  1.00  0.00    -0.192 OA 
HETATM    7  C   UNL     1      -9.198  10.564  66.713  1.00  0.00    -0.175 C  
HETATM    8  C   UNL     1     -10.993  10.168  67.168  1.00  0.00    -0.204 C  
HETATM    9  C   UNL     1      -8.485   9.674  69.648  1.00  0.00    -0.181 C  
HETATM   10  C   UNL     1      -9.722   8.087  71.859  1.00  0.00    -0.250 C  
HETATM   11  H   UNL     1     -10.163  13.104  67.976  1.00  0.00     0.000 HD 
HETATM   12  C   UNL     1     -11.214  10.193  68.844  1.00  0.00    -0.220 C  
HETATM   13  C   UNL     1      -7.677   8.610  70.431  1.00  0.00    -0.081 C  
HETATM   14  C   UNL     1     -10.202   9.391  69.814  1.00  0.00    -0.238 C  
HETATM   15  C   UNL     1     -12.108  11.103  69.281  1.00  0.00    -0.377 C  
HETATM   16  C   UNL     1     -10.523   9.280  71.342  1.00  0.00    -0.408 C  
HETATM   17  C   UNL     1     -12.016   9.147  71.713  1.00  0.00    -0.449 C  
HETATM   18  C   UNL     1     -12.636   7.768  71.702  1.00  0.00    -0.357 C  
HETATM   19  C   UNL     1     -11.740   6.693  72.228  1.00  0.00    -0.269 C  
HETATM   20  C   UNL     1     -10.279   6.927  72.254  1.00  0.00    -0.207 C  
HETATM   21  O   UNL     1     -12.185   5.601  72.578  1.00  0.00    -0.173 OA 
ENDROOT
BRANCH   4  22
HETATM   22  C   UNL     1      -7.932  12.173  67.927  1.00  0.00    -0.150 C  
HETATM   23  C   UNL     1      -7.052  12.976  68.039  1.00  0.00    -0.115 C  
ENDBRANCH   4  22
BRANCH   7  24
HETATM   24  C   UNL     1      -8.956  11.134  65.334  1.00  0.00    -0.154 C  
HETATM   25  C   UNL     1     -10.257  11.193  64.539  1.00  0.00    -0.383 C  
ENDBRANCH   7  24
TORSDOF 2
ENDMDL
MODEL       56
REMARK 921   NORMALIZED FREE ENERGY PREDICTED BY IDOCK:   -4.12 KCAL/MOL
REMARK 922        TOTAL FREE ENERGY PREDICTED BY IDOCK:   -4.85 KCAL/MOL
REMARK 923 INTER-LIGAND FREE ENERGY PREDICTED BY IDOCK:   -4.83 KCAL/MOL
REMARK 924 INTRA-LIGAND FREE ENERGY PREDICTED BY IDOCK:   -0.02 KCAL/MOL
REMARK 927      BINDING AFFINITY PREDICTED BY RF-SCORE:    0.00 PKD
ROOT
HETATM    1  C   UNL     1      -8.258  14.921  68.740  1.00  0.00    -0.161 C  
HETATM    2  C   UNL     1      -6.960  15.252  68.310  1.00  0.00    -0.119 C  
HETATM    3  C   UNL     1      -8.018  15.129  67.279  1.00  0.00    -0.234 C  
HETATM    4  C   UNL     1      -9.942  15.107  68.007  1.00  0.00    -0.221 C  
HETATM    5  C   UNL     1      -7.684  10.725  68.413  1.00  0.00    -0.113 C  
HETATM    6  O   UNL     1     -11.206  15.438  67.393  1.00  0.00    -0.328 OA 
HETATM    7  C   UNL     1      -9.191  16.141  67.530  1.00  0.00    -0.210 C  
HETATM    8  C   UNL     1      -9.593  15.473  65.804  1.00  0.00    -0.367 C  
HETATM    9  C   UNL     1      -8.661  13.141  68.330  1.00  0.00    -0.166 C  
HETATM   10  C   UNL     1      -8.098  10.538  66.971  1.00  0.00    -0.118 C  
HETATM   11  H   UNL     1     -12.095  15.428  67.729  1.00  0.00     0.000 HD 
HETATM   12  C   UNL     1     -10.011  13.836  65.868  1.00  0.00    -0.308 C  
HETATM   13  C   UNL     1      -7.536  12.198  68.822  1.00  0.00    -0.056 C  
HETATM   14  C   UNL     1      -9.082  12.786  66.671  1.00  0.00    -0.188 C  
HETATM   15  C   UNL     1     -11.255  13.555  65.431  1.00  0.00    -0.301 C  
HETATM   16  C   UNL     1      -9.387  11.254  66.572  1.00  0.00    -0.201 C  
HETATM   17  C   UNL     1      -9.899  10.752  65.204  1.00  0.00    -0.333 C  
HETATM   18  C   UNL     1      -8.879  10.399  64.144  1.00  0.00    -0.228 C  
HETATM   19  C   UNL     1      -7.663   9.709  64.675  1.00  0.00    -0.130 C  
HETATM   20  C   UNL     1      -7.329   9.846  66.110  1.00  0.00    -0.104 C  
HETATM   21  O   UNL     1      -6.905   9.084  63.934  1.00  0.00    -0.088 OA 
ENDROOT
BRANCH   4  22
HETATM   22  C   UNL     1     -10.399  15.429  69.453  1.00  0.00    -0.258 C  
HETATM   23  C   UNL     1     -10.640  15.727  70.586  1.00  0.00    -0.089 C  
ENDBRANCH   4  22
BRANCH   7  24
HETATM   24  C   UNL     1      -9.360  17.628  67.740  1.00  0.00    -0.255 C  
HETATM   25  C   UNL     1      -8.016  18.342  67.646  1.00  0.00    -0.249 C  
ENDBRANCH   7  24
TORSDOF 2
ENDMDL
MODEL       57
REMARK 921   NORMALIZED FREE ENERGY PREDICTED BY IDOCK:   -4.09 KCAL/MOL
REMARK 922        TOTAL FREE ENERGY PREDICTED BY IDOCK:   -4.83 KCAL/MOL
REMARK 923 INTER-LIGAND FREE ENERGY PREDICTED BY IDOCK:   -4.71 KCAL/MOL
REMARK 924 INTRA-LIGAND FREE ENERGY PREDICTED BY IDOCK:   -0.12 KCAL/MOL
REMARK 927      BINDING AFFINITY PREDICTED BY RF-SCORE:    0.00 PKD
ROOT
HETATM    1  C   UNL     1      -7.078  10.202  66.858  1.00  0.00    -0.091 C  
HETATM    2  C   UNL     1      -7.356   9.663  68.128  1.00  0.00    -0.081 C  
HETATM    3  C   UNL     1      -8.492   9.851  67.194  1.00  0.00    -0.121 C  
HETATM    4  C   UNL     1      -7.961  10.195  65.237  1.00  0.00    -0.145 C  
HETATM    5  C   UNL     1      -7.614  14.241  68.060  1.00  0.00    -0.144 C  
HETATM    6  O   UNL     1      -8.674   9.995  63.998  1.00  0.00    -0.172 OA 
HETATM    7  C   UNL     1      -8.294   9.033  65.869  1.00  0.00    -0.129 C  
HETATM    8  C   UNL     1     -10.091   9.615  65.724  1.00  0.00    -0.274 C  
HETATM    9  C   UNL     1      -7.639  11.983  66.755  1.00  0.00     0.008 C  
HETATM   10  C   UNL     1      -9.098  14.371  67.807  1.00  0.00    -0.192 C  
HETATM   11  H   UNL     1      -8.429  10.154  63.094  1.00  0.00     0.000 HD 
HETATM   12  C   UNL     1     -10.172  11.294  65.543  1.00  0.00    -0.312 C  
HETATM   13  C   UNL     1      -7.099  12.798  67.956  1.00  0.00    -0.111 C  
HETATM   14  C   UNL     1      -9.351  12.264  66.539  1.00  0.00    -0.230 C  
HETATM   15  C   UNL     1     -10.747  11.710  64.396  1.00  0.00    -0.387 C  
HETATM   16  C   UNL     1      -9.576  13.812  66.469  1.00  0.00    -0.295 C  
HETATM   17  C   UNL     1     -11.018  14.272  66.159  1.00  0.00    -0.313 C  
HETATM   18  C   UNL     1     -11.992  14.399  67.309  1.00  0.00    -0.409 C  
HETATM   19  C   UNL     1     -11.388  14.953  68.560  1.00  0.00    -0.298 C  
HETATM   20  C   UNL     1      -9.922  14.882  68.742  1.00  0.00    -0.228 C  
HETATM   21  O   UNL     1     -12.089  15.408  69.463  1.00  0.00    -0.333 OA 
ENDROOT
BRANCH   4  22
HETATM   22  C   UNL     1      -6.550  10.052  64.612  1.00  0.00    -0.128 C  
HETATM   23  C   UNL     1      -5.427   9.884  64.233  1.00  0.00    -0.085 C  
ENDBRANCH   4  22
BRANCH   7  24
HETATM   24  C   UNL     1      -8.008   7.605  65.469  1.00  0.00    -0.120 C  
HETATM   25  C   UNL     1      -8.461   6.637  66.558  1.00  0.00    -0.121 C  
ENDBRANCH   7  24
TORSDOF 2
ENDMDL
MODEL       58
REMARK 921   NORMALIZED FREE ENERGY PREDICTED BY IDOCK:   -4.09 KCAL/MOL
REMARK 922        TOTAL FREE ENERGY PREDICTED BY IDOCK:   -4.82 KCAL/MOL
REMARK 923 INTER-LIGAND FREE ENERGY PREDICTED BY IDOCK:   -4.65 KCAL/MOL
REMARK 924 INTRA-LIGAND FREE ENERGY PREDICTED BY IDOCK:   -0.18 KCAL/MOL
REMARK 927      BINDING AFFINITY PREDICTED BY RF-SCORE:    0.00 PKD
ROOT
HETATM    1  C   UNL     1      -8.974  11.030  65.437  1.00  0.00    -0.192 C  
HETATM    2  C   UNL     1      -9.924  11.055  64.399  1.00  0.00    -0.368 C  
HETATM    3  C   UNL     1     -10.321  10.431  65.684  1.00  0.00    -0.260 C  
HETATM    4  C   UNL     1      -9.077  10.838  67.269  1.00  0.00    -0.144 C  
HETATM    5  C   UNL     1      -7.321   7.281  64.315  1.00  0.00    -0.086 C  
HETATM    6  O   UNL     1      -9.300  10.823  68.696  1.00  0.00    -0.169 OA 
HETATM    7  C   UNL     1     -10.231  11.449  66.875  1.00  0.00    -0.254 C  
HETATM    8  C   UNL     1     -11.130   9.980  67.663  1.00  0.00    -0.222 C  
HETATM    9  C   UNL     1      -8.269   9.311  65.650  1.00  0.00    -0.119 C  
HETATM   10  C   UNL     1      -8.232   6.371  65.107  1.00  0.00    -0.134 C  
HETATM   11  H   UNL     1      -8.725  11.011  69.429  1.00  0.00     0.000 HD 
HETATM   12  C   UNL     1     -10.114   8.633  67.770  1.00  0.00    -0.266 C  
HETATM   13  C   UNL     1      -7.786   8.744  64.292  1.00  0.00    -0.133 C  
HETATM   14  C   UNL     1      -9.265   8.144  66.486  1.00  0.00    -0.237 C  
HETATM   15  C   UNL     1      -9.896   8.191  69.026  1.00  0.00    -0.176 C  
HETATM   16  C   UNL     1      -8.470   6.797  66.554  1.00  0.00    -0.124 C  
HETATM   17  C   UNL     1      -9.131   5.661  67.365  1.00  0.00    -0.110 C  
HETATM   18  C   UNL     1     -10.143   4.779  66.667  1.00  0.00    -0.276 C  
HETATM   19  C   UNL     1      -9.788   4.446  65.253  1.00  0.00    -0.199 C  
HETATM   20  C   UNL     1      -8.831   5.312  64.530  1.00  0.00    -0.015 C  
HETATM   21  O   UNL     1     -10.322   3.508  64.662  1.00  0.00    -0.140 OA 
ENDROOT
BRANCH   4  22
HETATM   22  C   UNL     1      -7.933  11.884  67.317  1.00  0.00    -0.171 C  
HETATM   23  C   UNL     1      -7.137  12.775  67.383  1.00  0.00    -0.134 C  
ENDBRANCH   4  22
BRANCH   7  24
HETATM   24  C   UNL     1     -10.753  12.826  67.212  1.00  0.00    -0.256 C  
HETATM   25  C   UNL     1     -12.004  13.143  66.398  1.00  0.00    -0.462 C  
ENDBRANCH   7  24
TORSDOF 2
ENDMDL
MODEL       59
REMARK 921   NORMALIZED FREE ENERGY PREDICTED BY IDOCK:   -4.08 KCAL/MOL
REMARK 922        TOTAL FREE ENERGY PREDICTED BY IDOCK:   -4.81 KCAL/MOL
REMARK 923 INTER-LIGAND FREE ENERGY PREDICTED BY IDOCK:   -4.66 KCAL/MOL
REMARK 924 INTRA-LIGAND FREE ENERGY PREDICTED BY IDOCK:   -0.15 KCAL/MOL
REMARK 927      BINDING AFFINITY PREDICTED BY RF-SCORE:    0.00 PKD
ROOT
HETATM    1  C   UNL     1      -9.514   7.444  68.836  1.00  0.00    -0.144 C  
HETATM    2  C   UNL     1     -10.782   7.117  68.321  1.00  0.00    -0.202 C  
HETATM    3  C   UNL     1     -10.707   7.587  69.725  1.00  0.00    -0.249 C  
HETATM    4  C   UNL     1      -8.927   8.473  70.251  1.00  0.00    -0.149 C  
HETATM    5  C   UNL     1      -8.694   3.532  70.274  1.00  0.00    -0.120 C  
HETATM    6  O   UNL     1      -8.592   9.415  71.293  1.00  0.00    -0.299 OA 
HETATM    7  C   UNL     1     -10.096   9.029  69.822  1.00  0.00    -0.209 C  
HETATM    8  C   UNL     1     -10.735   8.740  71.581  1.00  0.00    -0.397 C  
HETATM    9  C   UNL     1      -8.910   6.117  70.007  1.00  0.00    -0.144 C  
HETATM   10  C   UNL     1      -9.300   3.652  71.653  1.00  0.00    -0.201 C  
HETATM   11  H   UNL     1      -7.770   9.824  71.536  1.00  0.00     0.000 HD 
HETATM   12  C   UNL     1      -9.857   7.519  72.353  1.00  0.00    -0.219 C  
HETATM   13  C   UNL     1      -9.023   4.717  69.355  1.00  0.00    -0.135 C  
HETATM   14  C   UNL     1      -9.598   6.106  71.614  1.00  0.00    -0.166 C  
HETATM   15  C   UNL     1      -9.212   7.910  73.471  1.00  0.00    -0.340 C  
HETATM   16  C   UNL     1      -8.939   4.929  72.408  1.00  0.00    -0.140 C  
HETATM   17  C   UNL     1      -9.325   4.819  73.900  1.00  0.00    -0.118 C  
HETATM   18  C   UNL     1     -10.588   4.069  74.259  1.00  0.00    -0.277 C  
HETATM   19  C   UNL     1     -10.823   2.843  73.435  1.00  0.00    -0.199 C  
HETATM   20  C   UNL     1     -10.150   2.720  72.123  1.00  0.00    -0.210 C  
HETATM   21  O   UNL     1     -11.609   1.968  73.797  1.00  0.00    -0.206 OA 
ENDROOT
BRANCH   4  22
HETATM   22  C   UNL     1      -7.777   8.898  69.302  1.00  0.00    -0.094 C  
HETATM   23  C   UNL     1      -6.814   9.157  68.640  1.00  0.00    -0.062 C  
ENDBRANCH   4  22
BRANCH   7  24
HETATM   24  C   UNL     1     -10.347  10.393  69.222  1.00  0.00    -0.250 C  
HETATM   25  C   UNL     1     -11.603  10.379  68.357  1.00  0.00    -0.128 C  
ENDBRANCH   7  24
TORSDOF 2
ENDMDL
MODEL       60
REMARK 921   NORMALIZED FREE ENERGY PREDICTED BY IDOCK:   -4.05 KCAL/MOL
REMARK 922        TOTAL FREE ENERGY PREDICTED BY IDOCK:   -4.78 KCAL/MOL
REMARK 923 INTER-LIGAND FREE ENERGY PREDICTED BY IDOCK:   -4.54 KCAL/MOL
REMARK 924 INTRA-LIGAND FREE ENERGY PREDICTED BY IDOCK:   -0.23 KCAL/MOL
REMARK 927      BINDING AFFINITY PREDICTED BY RF-SCORE:    0.00 PKD
ROOT
HETATM    1  C   UNL     1      -8.956   9.811  67.633  1.00  0.00    -0.133 C  
HETATM    2  C   UNL     1      -7.977  10.045  68.616  1.00  0.00    -0.097 C  
HETATM    3  C   UNL     1      -7.799   8.868  67.732  1.00  0.00    -0.102 C  
HETATM    4  C   UNL     1      -8.990   8.854  66.056  1.00  0.00    -0.193 C  
HETATM    5  C   UNL     1     -11.381   7.368  70.123  1.00  0.00    -0.200 C  
HETATM    6  O   UNL     1      -8.846   8.193  64.780  1.00  0.00    -0.397 OA 
HETATM    7  C   UNL     1      -7.707   9.287  66.223  1.00  0.00    -0.096 C  
HETATM    8  C   UNL     1      -7.215   7.459  66.169  1.00  0.00    -0.077 C  
HETATM    9  C   UNL     1     -10.052   8.375  68.118  1.00  0.00    -0.239 C  
HETATM   10  C   UNL     1     -10.748   6.027  69.832  1.00  0.00    -0.393 C  
HETATM   11  H   UNL     1      -9.396   8.187  64.005  1.00  0.00     0.000 HD 
HETATM   12  C   UNL     1      -8.522   6.466  66.576  1.00  0.00    -0.118 C  
HETATM   13  C   UNL     1     -10.587   8.555  69.559  1.00  0.00    -0.215 C  
HETATM   14  C   UNL     1      -9.398   6.769  67.899  1.00  0.00    -0.113 C  
HETATM   15  C   UNL     1      -8.897   5.604  65.609  1.00  0.00    -0.150 C  
HETATM   16  C   UNL     1     -10.488   5.742  68.355  1.00  0.00    -0.283 C  
HETATM   17  C   UNL     1     -10.150   4.252  68.128  1.00  0.00     0.063 C  
HETATM   18  C   UNL     1      -9.339   3.533  69.184  1.00  0.00    -0.242 C  
HETATM   19  C   UNL     1      -9.693   3.913  70.587  1.00  0.00    -0.178 C  
HETATM   20  C   UNL     1     -10.386   5.198  70.829  1.00  0.00    -0.294 C  
HETATM   21  O   UNL     1      -9.365   3.212  71.543  1.00  0.00    -0.109 OA 
ENDROOT
BRANCH   4  22
HETATM   22  C   UNL     1      -9.859  10.018  65.515  1.00  0.00    -0.373 C  
HETATM   23  C   UNL     1     -10.523  10.862  64.986  1.00  0.00    -0.331 C  
ENDBRANCH   4  22
BRANCH   7  24
HETATM   24  C   UNL     1      -6.895  10.235  65.372  1.00  0.00    -0.140 C  
HETATM   25  C   UNL     1      -5.670  10.729  66.134  1.00  0.00    -0.129 C  
ENDBRANCH   7  24
TORSDOF 2
ENDMDL
MODEL       61
REMARK 921   NORMALIZED FREE ENERGY PREDICTED BY IDOCK:   -4.04 KCAL/MOL
REMARK 922        TOTAL FREE ENERGY PREDICTED BY IDOCK:   -4.77 KCAL/MOL
REMARK 923 INTER-LIGAND FREE ENERGY PREDICTED BY IDOCK:   -4.57 KCAL/MOL
REMARK 924 INTRA-LIGAND FREE ENERGY PREDICTED BY IDOCK:   -0.19 KCAL/MOL
REMARK 927      BINDING AFFINITY PREDICTED BY RF-SCORE:    0.00 PKD
ROOT
HETATM    1  C   UNL     1     -10.688  10.114  66.840  1.00  0.00    -0.231 C  
HETATM    2  C   UNL     1     -11.263  10.347  68.103  1.00  0.00    -0.333 C  
HETATM    3  C   UNL     1      -9.786  10.409  67.996  1.00  0.00    -0.166 C  
HETATM    4  C   UNL     1      -9.059  10.521  66.075  1.00  0.00    -0.168 C  
HETATM    5  C   UNL     1     -10.306   5.919  67.392  1.00  0.00    -0.274 C  
HETATM    6  O   UNL     1      -7.811  11.021  65.547  1.00  0.00    -0.352 OA 
HETATM    7  C   UNL     1      -9.325  11.510  66.976  1.00  0.00    -0.185 C  
HETATM    8  C   UNL     1      -7.697  11.020  67.809  1.00  0.00    -0.108 C  
HETATM    9  C   UNL     1      -9.899   8.419  66.772  1.00  0.00    -0.329 C  
HETATM   10  C   UNL     1      -8.940   5.886  68.037  1.00  0.00    -0.118 C  
HETATM   11  H   UNL     1      -7.475  11.073  64.660  1.00  0.00     0.000 HD 
HETATM   12  C   UNL     1      -7.268   9.432  67.417  1.00  0.00    -0.087 C  
HETATM   13  C   UNL     1     -10.888   7.334  67.263  1.00  0.00    -0.354 C  
HETATM   14  C   UNL     1      -8.346   8.236  67.553  1.00  0.00    -0.130 C  
HETATM   15  C   UNL     1      -6.090   9.309  66.772  1.00  0.00    -0.064 C  
HETATM   16  C   UNL     1      -7.883   6.754  67.356  1.00  0.00    -0.110 C  
HETATM   17  C   UNL     1      -6.468   6.412  67.873  1.00  0.00    -0.049 C  
HETATM   18  C   UNL     1      -6.309   6.042  69.331  1.00  0.00    -0.041 C  
HETATM   19  C   UNL     1      -7.418   5.197  69.870  1.00  0.00    -0.061 C  
HETATM   20  C   UNL     1      -8.721   5.190  69.168  1.00  0.00    -0.103 C  
HETATM   21  O   UNL     1      -7.290   4.560  70.914  1.00  0.00    -0.049 OA 
ENDROOT
BRANCH   4  22
HETATM   22  C   UNL     1      -9.872  10.773  64.780  1.00  0.00    -0.358 C  
HETATM   23  C   UNL     1     -10.472  11.089  63.793  1.00  0.00    -0.408 C  
ENDBRANCH   4  22
BRANCH   7  24
HETATM   24  C   UNL     1      -9.553  12.985  66.743  1.00  0.00    -0.248 C  
HETATM   25  C   UNL     1     -10.076  13.656  68.010  1.00  0.00    -0.250 C  
ENDBRANCH   7  24
TORSDOF 2
ENDMDL
MODEL       62
REMARK 921   NORMALIZED FREE ENERGY PREDICTED BY IDOCK:   -3.97 KCAL/MOL
REMARK 922        TOTAL FREE ENERGY PREDICTED BY IDOCK:   -4.69 KCAL/MOL
REMARK 923 INTER-LIGAND FREE ENERGY PREDICTED BY IDOCK:   -4.49 KCAL/MOL
REMARK 924 INTRA-LIGAND FREE ENERGY PREDICTED BY IDOCK:   -0.19 KCAL/MOL
REMARK 927      BINDING AFFINITY PREDICTED BY RF-SCORE:    0.00 PKD
ROOT
HETATM    1  C   UNL     1      -8.538   4.783  69.593  1.00  0.00    -0.100 C  
HETATM    2  C   UNL     1      -9.783   4.128  69.559  1.00  0.00    -0.254 C  
HETATM    3  C   UNL     1      -9.569   5.253  68.617  1.00  0.00    -0.183 C  
HETATM    4  C   UNL     1      -7.611   5.844  68.401  1.00  0.00    -0.090 C  
HETATM    5  C   UNL     1      -9.723   7.654  72.491  1.00  0.00    -0.238 C  
HETATM    6  O   UNL     1      -6.928   6.537  67.334  1.00  0.00    -0.073 OA 
HETATM    7  C   UNL     1      -8.359   4.980  67.656  1.00  0.00    -0.105 C  
HETATM    8  C   UNL     1      -9.149   6.521  66.889  1.00  0.00    -0.144 C  
HETATM    9  C   UNL     1      -8.688   6.453  70.420  1.00  0.00    -0.147 C  
HETATM   10  C   UNL     1     -10.272   8.715  71.566  1.00  0.00    -0.345 C  
HETATM   11  H   UNL     1      -6.024   6.810  67.233  1.00  0.00     0.000 HD 
HETATM   12  C   UNL     1      -8.987   7.859  67.910  1.00  0.00    -0.129 C  
HETATM   13  C   UNL     1      -9.410   6.327  71.784  1.00  0.00    -0.155 C  
HETATM   14  C   UNL     1      -9.383   7.748  69.472  1.00  0.00    -0.149 C  
HETATM   15  C   UNL     1      -8.292   8.888  67.384  1.00  0.00    -0.108 C  
HETATM   16  C   UNL     1      -9.394   9.037  70.359  1.00  0.00    -0.244 C  
HETATM   17  C   UNL     1      -9.863  10.334  69.662  1.00  0.00    -0.230 C  
HETATM   18  C   UNL     1     -11.347  10.619  69.606  1.00  0.00    -0.360 C  
HETATM   19  C   UNL     1     -12.086  10.248  70.852  1.00  0.00    -0.368 C  
HETATM   20  C   UNL     1     -11.483   9.265  71.778  1.00  0.00    -0.448 C  
HETATM   21  O   UNL     1     -13.208  10.695  71.089  1.00  0.00    -0.345 OA 
ENDROOT
BRANCH   4  22
HETATM   22  C   UNL     1      -6.349   5.111  68.923  1.00  0.00    -0.031 C  
HETATM   23  C   UNL     1      -5.374   4.627  69.421  1.00  0.00    -0.008 C  
ENDBRANCH   4  22
BRANCH   7  24
HETATM   24  C   UNL     1      -7.910   3.899  66.700  1.00  0.00    -0.089 C  
HETATM   25  C   UNL     1      -9.095   3.047  66.255  1.00  0.00    -0.150 C  
ENDBRANCH   7  24
TORSDOF 2
ENDMDL
MODEL       63
REMARK 921   NORMALIZED FREE ENERGY PREDICTED BY IDOCK:   -3.85 KCAL/MOL
REMARK 922        TOTAL FREE ENERGY PREDICTED BY IDOCK:   -4.56 KCAL/MOL
REMARK 923 INTER-LIGAND FREE ENERGY PREDICTED BY IDOCK:   -4.51 KCAL/MOL
REMARK 924 INTRA-LIGAND FREE ENERGY PREDICTED BY IDOCK:   -0.05 KCAL/MOL
REMARK 927      BINDING AFFINITY PREDICTED BY RF-SCORE:    0.00 PKD
ROOT
HETATM    1  C   UNL     1      -9.399   9.442  70.872  1.00  0.00    -0.263 C  
HETATM    2  C   UNL     1      -8.154   9.761  70.300  1.00  0.00    -0.181 C  
HETATM    3  C   UNL     1      -8.768   8.462  69.935  1.00  0.00    -0.136 C  
HETATM    4  C   UNL     1     -10.756   8.273  70.427  1.00  0.00    -0.232 C  
HETATM    5  C   UNL     1      -7.744   7.512  74.276  1.00  0.00    -0.178 C  
HETATM    6  O   UNL     1     -11.802   7.431  69.896  1.00  0.00    -0.497 OA 
HETATM    7  C   UNL     1     -10.170   8.656  69.256  1.00  0.00    -0.215 C  
HETATM    8  C   UNL     1      -9.830   6.815  68.969  1.00  0.00    -0.152 C  
HETATM    9  C   UNL     1      -9.204   8.151  72.211  1.00  0.00    -0.266 C  
HETATM   10  C   UNL     1      -7.623   6.111  73.721  1.00  0.00    -0.091 C  
HETATM   11  H   UNL     1     -12.721   7.344  70.123  1.00  0.00     0.000 HD 
HETATM   12  C   UNL     1      -9.834   5.962  70.429  1.00  0.00    -0.231 C  
HETATM   13  C   UNL     1      -8.098   8.563  73.213  1.00  0.00    -0.073 C  
HETATM   14  C   UNL     1      -8.979   6.497  71.691  1.00  0.00    -0.143 C  
HETATM   15  C   UNL     1     -10.768   4.993  70.513  1.00  0.00    -0.027 C  
HETATM   16  C   UNL     1      -8.854   5.606  72.971  1.00  0.00    -0.123 C  
HETATM   17  C   UNL     1      -8.768   4.082  72.730  1.00  0.00    -0.105 C  
HETATM   18  C   UNL     1      -7.412   3.479  72.439  1.00  0.00    -0.053 C  
HETATM   19  C   UNL     1      -6.297   4.073  73.238  1.00  0.00    -0.032 C  
HETATM   20  C   UNL     1      -6.477   5.414  73.835  1.00  0.00    -0.073 C  
HETATM   21  O   UNL     1      -5.215   3.498  73.355  1.00  0.00     0.000 OA 
ENDROOT
BRANCH   4  22
HETATM   22  C   UNL     1     -11.710   9.394  70.913  1.00  0.00    -0.378 C  
HETATM   23  C   UNL     1     -12.539  10.176  71.280  1.00  0.00    -0.508 C  
ENDBRANCH   4  22
BRANCH   7  24
HETATM   24  C   UNL     1     -10.755   9.428  68.097  1.00  0.00    -0.230 C  
HETATM   25  C   UNL     1      -9.951   9.181  66.824  1.00  0.00    -0.322 C  
ENDBRANCH   7  24
TORSDOF 2
ENDMDL
MODEL       64
REMARK 921   NORMALIZED FREE ENERGY PREDICTED BY IDOCK:   -3.83 KCAL/MOL
REMARK 922        TOTAL FREE ENERGY PREDICTED BY IDOCK:   -4.53 KCAL/MOL
REMARK 923 INTER-LIGAND FREE ENERGY PREDICTED BY IDOCK:   -4.34 KCAL/MOL
REMARK 924 INTRA-LIGAND FREE ENERGY PREDICTED BY IDOCK:   -0.19 KCAL/MOL
REMARK 927      BINDING AFFINITY PREDICTED BY RF-SCORE:    0.00 PKD
ROOT
HETATM    1  C   UNL     1      -9.592  10.084  69.240  1.00  0.00    -0.227 C  
HETATM    2  C   UNL     1      -8.600   9.826  70.204  1.00  0.00    -0.214 C  
HETATM    3  C   UNL     1      -8.244   9.629  68.778  1.00  0.00    -0.106 C  
HETATM    4  C   UNL     1      -9.562  10.455  67.433  1.00  0.00    -0.154 C  
HETATM    5  C   UNL     1     -11.123   6.122  69.237  1.00  0.00    -0.463 C  
HETATM    6  O   UNL     1      -9.398  10.875  66.061  1.00  0.00    -0.177 OA 
HETATM    7  C   UNL     1      -8.404  10.954  67.953  1.00  0.00    -0.119 C  
HETATM    8  C   UNL     1      -7.510   9.818  66.729  1.00  0.00    -0.095 C  
HETATM    9  C   UNL     1     -10.272   8.487  68.544  1.00  0.00    -0.225 C  
HETATM   10  C   UNL     1     -10.229   5.521  68.177  1.00  0.00    -0.232 C  
HETATM   11  H   UNL     1     -10.006  11.257  65.439  1.00  0.00     0.000 HD 
HETATM   12  C   UNL     1      -8.504   8.534  66.256  1.00  0.00    -0.130 C  
HETATM   13  C   UNL     1     -10.686   7.524  69.683  1.00  0.00    -0.236 C  
HETATM   14  C   UNL     1      -9.288   7.656  67.361  1.00  0.00    -0.166 C  
HETATM   15  C   UNL     1      -8.765   8.483  64.933  1.00  0.00    -0.090 C  
HETATM   16  C   UNL     1     -10.060   6.368  66.918  1.00  0.00    -0.244 C  
HETATM   17  C   UNL     1      -9.411   5.548  65.781  1.00  0.00    -0.071 C  
HETATM   18  C   UNL     1      -8.354   4.530  66.146  1.00  0.00    -0.113 C  
HETATM   19  C   UNL     1      -8.643   3.777  67.405  1.00  0.00    -0.103 C  
HETATM   20  C   UNL     1      -9.586   4.356  68.387  1.00  0.00    -0.203 C  
HETATM   21  O   UNL     1      -8.067   2.722  67.668  1.00  0.00    -0.073 OA 
ENDROOT
BRANCH   4  22
HETATM   22  C   UNL     1     -10.726  11.430  67.741  1.00  0.00    -0.254 C  
HETATM   23  C   UNL     1     -11.700  12.085  67.977  1.00  0.00    -0.398 C  
ENDBRANCH   4  22
BRANCH   7  24
HETATM   24  C   UNL     1      -7.923  12.384  68.029  1.00  0.00    -0.155 C  
HETATM   25  C   UNL     1      -6.641  12.479  68.850  1.00  0.00    -0.095 C  
ENDBRANCH   7  24
TORSDOF 2
ENDMDL
MODEL       65
REMARK 921   NORMALIZED FREE ENERGY PREDICTED BY IDOCK:   -3.78 KCAL/MOL
REMARK 922        TOTAL FREE ENERGY PREDICTED BY IDOCK:   -4.48 KCAL/MOL
REMARK 923 INTER-LIGAND FREE ENERGY PREDICTED BY IDOCK:   -4.23 KCAL/MOL
REMARK 924 INTRA-LIGAND FREE ENERGY PREDICTED BY IDOCK:   -0.25 KCAL/MOL
REMARK 927      BINDING AFFINITY PREDICTED BY RF-SCORE:    0.00 PKD
ROOT
HETATM    1  C   UNL     1      -9.366   7.579  67.246  1.00  0.00    -0.168 C  
HETATM    2  C   UNL     1     -10.767   7.602  67.117  1.00  0.00    -0.361 C  
HETATM    3  C   UNL     1     -10.165   8.354  68.244  1.00  0.00    -0.244 C  
HETATM    4  C   UNL     1      -8.136   8.657  68.101  1.00  0.00    -0.115 C  
HETATM    5  C   UNL     1      -9.291   4.129  69.723  1.00  0.00    -0.237 C  
HETATM    6  O   UNL     1      -7.269   9.652  68.688  1.00  0.00    -0.071 OA 
HETATM    7  C   UNL     1      -9.176   9.462  67.739  1.00  0.00    -0.141 C  
HETATM    8  C   UNL     1      -9.339   9.872  69.581  1.00  0.00    -0.247 C  
HETATM    9  C   UNL     1      -8.846   6.467  68.656  1.00  0.00    -0.121 C  
HETATM   10  C   UNL     1      -9.419   4.800  71.071  1.00  0.00    -0.227 C  
HETATM   11  H   UNL     1      -6.332   9.792  68.622  1.00  0.00     0.000 HD 
HETATM   12  C   UNL     1      -8.653   8.657  70.536  1.00  0.00    -0.170 C  
HETATM   13  C   UNL     1      -9.526   5.081  68.541  1.00  0.00    -0.185 C  
HETATM   14  C   UNL     1      -9.020   7.106  70.275  1.00  0.00    -0.152 C  
HETATM   15  C   UNL     1      -7.632   9.065  71.318  1.00  0.00    -0.104 C  
HETATM   16  C   UNL     1      -8.516   6.014  71.276  1.00  0.00    -0.128 C  
HETATM   17  C   UNL     1      -8.473   6.428  72.764  1.00  0.00    -0.121 C  
HETATM   18  C   UNL     1      -9.738   6.288  73.582  1.00  0.00    -0.182 C  
HETATM   19  C   UNL     1     -10.530   5.058  73.273  1.00  0.00    -0.213 C  
HETATM   20  C   UNL     1     -10.322   4.378  71.975  1.00  0.00    -0.189 C  
HETATM   21  O   UNL     1     -11.390   4.638  74.046  1.00  0.00    -0.232 OA 
ENDROOT
BRANCH   4  22
HETATM   22  C   UNL     1      -7.235   8.395  66.868  1.00  0.00    -0.079 C  
HETATM   23  C   UNL     1      -6.452   8.259  65.972  1.00  0.00    -0.049 C  
ENDBRANCH   4  22
BRANCH   7  24
HETATM   24  C   UNL     1      -9.198  10.628  66.778  1.00  0.00    -0.174 C  
HETATM   25  C   UNL     1     -10.627  11.116  66.556  1.00  0.00    -0.314 C  
ENDBRANCH   7  24
TORSDOF 2
ENDMDL
MODEL       66
REMARK 921   NORMALIZED FREE ENERGY PREDICTED BY IDOCK:   -3.72 KCAL/MOL
REMARK 922        TOTAL FREE ENERGY PREDICTED BY IDOCK:   -4.41 KCAL/MOL
REMARK 923 INTER-LIGAND FREE ENERGY PREDICTED BY IDOCK:   -4.29 KCAL/MOL
REMARK 924 INTRA-LIGAND FREE ENERGY PREDICTED BY IDOCK:   -0.12 KCAL/MOL
REMARK 927      BINDING AFFINITY PREDICTED BY RF-SCORE:    0.00 PKD
ROOT
HETATM    1  C   UNL     1     -10.430   6.632  70.716  1.00  0.00    -0.251 C  
HETATM    2  C   UNL     1      -9.939   5.367  71.088  1.00  0.00    -0.257 C  
HETATM    3  C   UNL     1      -8.950   6.428  70.781  1.00  0.00    -0.144 C  
HETATM    4  C   UNL     1      -9.718   8.335  70.705  1.00  0.00    -0.171 C  
HETATM    5  C   UNL     1     -10.542   5.765  66.559  1.00  0.00    -0.294 C  
HETATM    6  O   UNL     1      -9.099   9.628  70.879  1.00  0.00    -0.304 OA 
HETATM    7  C   UNL     1      -9.116   7.666  71.731  1.00  0.00    -0.161 C  
HETATM    8  C   UNL     1      -7.481   8.044  70.853  1.00  0.00    -0.069 C  
HETATM    9  C   UNL     1     -10.222   6.913  68.879  1.00  0.00    -0.184 C  
HETATM   10  C   UNL     1      -9.138   6.185  66.190  1.00  0.00    -0.158 C  
HETATM   11  H   UNL     1      -9.454  10.509  70.843  1.00  0.00     0.000 HD 
HETATM   12  C   UNL     1      -7.730   8.343  69.208  1.00  0.00    -0.098 C  
HETATM   13  C   UNL     1     -10.787   5.717  68.075  1.00  0.00    -0.251 C  
HETATM   14  C   UNL     1      -8.619   7.331  68.318  1.00  0.00    -0.123 C  
HETATM   15  C   UNL     1      -7.352   9.571  68.796  1.00  0.00    -0.074 C  
HETATM   16  C   UNL     1      -8.692   7.527  66.767  1.00  0.00    -0.138 C  
HETATM   17  C   UNL     1      -7.397   8.021  66.085  1.00  0.00    -0.074 C  
HETATM   18  C   UNL     1      -6.360   6.993  65.691  1.00  0.00    -0.046 C  
HETATM   19  C   UNL     1      -6.935   5.725  65.148  1.00  0.00    -0.059 C  
HETATM   20  C   UNL     1      -8.340   5.381  65.463  1.00  0.00    -0.133 C  
HETATM   21  O   UNL     1      -6.249   4.934  64.501  1.00  0.00    -0.028 OA 
ENDROOT
BRANCH   4  22
HETATM   22  C   UNL     1     -11.130   8.793  71.149  1.00  0.00    -0.340 C  
HETATM   23  C   UNL     1     -12.213   9.063  71.582  1.00  0.00    -0.418 C  
ENDBRANCH   4  22
BRANCH   7  24
HETATM   24  C   UNL     1      -9.170   7.938  73.216  1.00  0.00    -0.346 C  
HETATM   25  C   UNL     1      -8.625   6.749  74.002  1.00  0.00    -0.165 C  
ENDBRANCH   7  24
TORSDOF 2
ENDMDL
MODEL       67
REMARK 921   NORMALIZED FREE ENERGY PREDICTED BY IDOCK:   -3.66 KCAL/MOL
REMARK 922        TOTAL FREE ENERGY PREDICTED BY IDOCK:   -4.34 KCAL/MOL
REMARK 923 INTER-LIGAND FREE ENERGY PREDICTED BY IDOCK:   -4.23 KCAL/MOL
REMARK 924 INTRA-LIGAND FREE ENERGY PREDICTED BY IDOCK:   -0.11 KCAL/MOL
REMARK 927      BINDING AFFINITY PREDICTED BY RF-SCORE:    0.00 PKD
ROOT
HETATM    1  C   UNL     1      -9.745   8.878  70.802  1.00  0.00    -0.281 C  
HETATM    2  C   UNL     1     -10.804   9.797  70.682  1.00  0.00    -0.396 C  
HETATM    3  C   UNL     1     -10.806   8.620  69.781  1.00  0.00    -0.185 C  
HETATM    4  C   UNL     1      -9.515   7.112  70.318  1.00  0.00    -0.162 C  
HETATM    5  C   UNL     1      -7.253  10.833  67.972  1.00  0.00    -0.086 C  
HETATM    6  O   UNL     1      -9.511   5.699  70.022  1.00  0.00    -0.150 OA 
HETATM    7  C   UNL     1     -10.842   7.274  70.587  1.00  0.00    -0.261 C  
HETATM    8  C   UNL     1     -11.146   6.692  68.810  1.00  0.00    -0.297 C  
HETATM    9  C   UNL     1      -8.544   9.058  69.380  1.00  0.00    -0.137 C  
HETATM   10  C   UNL     1      -7.730  10.141  66.715  1.00  0.00    -0.105 C  
HETATM   11  H   UNL     1      -8.914   5.002  70.270  1.00  0.00     0.000 HD 
HETATM   12  C   UNL     1      -9.776   6.935  67.850  1.00  0.00    -0.136 C  
HETATM   13  C   UNL     1      -8.124  10.537  69.201  1.00  0.00    -0.152 C  
HETATM   14  C   UNL     1      -9.021   8.363  67.848  1.00  0.00    -0.138 C  
HETATM   15  C   UNL     1      -9.255   5.811  67.317  1.00  0.00    -0.110 C  
HETATM   16  C   UNL     1      -7.865   8.624  66.825  1.00  0.00    -0.094 C  
HETATM   17  C   UNL     1      -8.037   7.981  65.431  1.00  0.00    -0.135 C  
HETATM   18  C   UNL     1      -8.838   8.732  64.390  1.00  0.00     0.021 C  
HETATM   19  C   UNL     1      -8.615  10.210  64.400  1.00  0.00    -0.191 C  
HETATM   20  C   UNL     1      -8.071  10.846  65.620  1.00  0.00    -0.060 C  
HETATM   21  O   UNL     1      -8.932  10.912  63.441  1.00  0.00    -0.193 OA 
ENDROOT
BRANCH   4  22
HETATM   22  C   UNL     1      -8.734   6.979  71.650  1.00  0.00    -0.116 C  
HETATM   23  C   UNL     1      -8.080   6.987  72.653  1.00  0.00    -0.115 C  
ENDBRANCH   4  22
BRANCH   7  24
HETATM   24  C   UNL     1     -11.689   6.637  71.664  1.00  0.00    -0.362 C  
HETATM   25  C   UNL     1     -13.150   7.050  71.517  1.00  0.00    -0.395 C  
ENDBRANCH   7  24
TORSDOF 2
ENDMDL
MODEL       68
REMARK 921   NORMALIZED FREE ENERGY PREDICTED BY IDOCK:   -3.62 KCAL/MOL
REMARK 922        TOTAL FREE ENERGY PREDICTED BY IDOCK:   -4.30 KCAL/MOL
REMARK 923 INTER-LIGAND FREE ENERGY PREDICTED BY IDOCK:   -4.10 KCAL/MOL
REMARK 924 INTRA-LIGAND FREE ENERGY PREDICTED BY IDOCK:   -0.20 KCAL/MOL
REMARK 927      BINDING AFFINITY PREDICTED BY RF-SCORE:    0.00 PKD
ROOT
HETATM    1  C   UNL     1      -8.767   8.162  70.176  1.00  0.00    -0.130 C  
HETATM    2  C   UNL     1      -9.564   8.763  69.184  1.00  0.00    -0.162 C  
HETATM    3  C   UNL     1     -10.075   7.528  69.826  1.00  0.00    -0.194 C  
HETATM    4  C   UNL     1      -9.103   6.980  71.553  1.00  0.00    -0.139 C  
HETATM    5  C   UNL     1      -6.639   5.677  67.467  1.00  0.00    -0.053 C  
HETATM    6  O   UNL     1      -9.518   6.171  72.675  1.00  0.00    -0.147 OA 
HETATM    7  C   UNL     1     -10.243   7.707  71.375  1.00  0.00    -0.208 C  
HETATM    8  C   UNL     1     -11.103   6.049  71.062  1.00  0.00    -0.348 C  
HETATM    9  C   UNL     1      -7.943   6.617  69.520  1.00  0.00    -0.117 C  
HETATM   10  C   UNL     1      -7.562   4.481  67.464  1.00  0.00    -0.078 C  
HETATM   11  H   UNL     1      -9.069   5.918  73.473  1.00  0.00     0.000 HD 
HETATM   12  C   UNL     1      -9.992   4.871  70.577  1.00  0.00    -0.311 C  
HETATM   13  C   UNL     1      -7.229   6.904  68.177  1.00  0.00    -0.091 C  
HETATM   14  C   UNL     1      -8.934   5.182  69.397  1.00  0.00    -0.127 C  
HETATM   15  C   UNL     1      -9.909   3.803  71.397  1.00  0.00    -0.226 C  
HETATM   16  C   UNL     1      -8.035   4.026  68.843  1.00  0.00    -0.067 C  
HETATM   17  C   UNL     1      -8.694   2.631  68.771  1.00  0.00    -0.131 C  
HETATM   18  C   UNL     1      -9.515   2.290  67.547  1.00  0.00    -0.071 C  
HETATM   19  C   UNL     1      -8.940   2.803  66.266  1.00  0.00    -0.143 C  
HETATM   20  C   UNL     1      -7.976   3.924  66.310  1.00  0.00    -0.094 C  
HETATM   21  O   UNL     1      -9.298   2.355  65.177  1.00  0.00    -0.137 OA 
ENDROOT
BRANCH   4  22
HETATM   22  C   UNL     1      -8.078   7.821  72.357  1.00  0.00    -0.150 C  
HETATM   23  C   UNL     1      -7.204   8.381  72.952  1.00  0.00    -0.105 C  
ENDBRANCH   4  22
BRANCH   7  24
HETATM   24  C   UNL     1     -10.931   8.662  72.323  1.00  0.00    -0.392 C  
HETATM   25  C   UNL     1     -11.948   9.522  71.579  1.00  0.00    -0.475 C  
ENDBRANCH   7  24
TORSDOF 2
ENDMDL
MODEL       69
REMARK 921   NORMALIZED FREE ENERGY PREDICTED BY IDOCK:   -3.60 KCAL/MOL
REMARK 922        TOTAL FREE ENERGY PREDICTED BY IDOCK:   -4.28 KCAL/MOL
REMARK 923 INTER-LIGAND FREE ENERGY PREDICTED BY IDOCK:   -4.05 KCAL/MOL
REMARK 924 INTRA-LIGAND FREE ENERGY PREDICTED BY IDOCK:   -0.23 KCAL/MOL
REMARK 927      BINDING AFFINITY PREDICTED BY RF-SCORE:    0.00 PKD
ROOT
HETATM    1  C   UNL     1      -7.392   5.501  67.198  1.00  0.00    -0.080 C  
HETATM    2  C   UNL     1      -7.726   4.239  67.722  1.00  0.00    -0.080 C  
HETATM    3  C   UNL     1      -8.826   5.207  67.499  1.00  0.00    -0.105 C  
HETATM    4  C   UNL     1      -8.339   6.821  66.322  1.00  0.00    -0.126 C  
HETATM    5  C   UNL     1      -6.786   7.314  70.992  1.00  0.00    -0.055 C  
HETATM    6  O   UNL     1      -9.151   7.708  65.523  1.00  0.00    -0.384 OA 
HETATM    7  C   UNL     1      -8.926   5.634  65.993  1.00  0.00    -0.158 C  
HETATM    8  C   UNL     1     -10.514   6.359  66.727  1.00  0.00    -0.304 C  
HETATM    9  C   UNL     1      -7.474   6.815  68.526  1.00  0.00    -0.092 C  
HETATM   10  C   UNL     1      -8.198   7.783  71.261  1.00  0.00    -0.105 C  
HETATM   11  H   UNL     1      -8.925   8.454  64.979  1.00  0.00     0.000 HD 
HETATM   12  C   UNL     1     -10.166   7.602  67.820  1.00  0.00    -0.259 C  
HETATM   13  C   UNL     1      -6.672   6.381  69.778  1.00  0.00    -0.053 C  
HETATM   14  C   UNL     1      -9.064   7.385  68.980  1.00  0.00    -0.133 C  
HETATM   15  C   UNL     1     -10.679   8.804  67.487  1.00  0.00    -0.213 C  
HETATM   16  C   UNL     1      -8.882   8.477  70.086  1.00  0.00    -0.138 C  
HETATM   17  C   UNL     1     -10.169   9.199  70.542  1.00  0.00    -0.288 C  
HETATM   18  C   UNL     1     -11.008   8.552  71.622  1.00  0.00    -0.362 C  
HETATM   19  C   UNL     1     -10.209   7.903  72.706  1.00  0.00    -0.314 C  
HETATM   20  C   UNL     1      -8.804   7.528  72.436  1.00  0.00    -0.162 C  
HETATM   21  O   UNL     1     -10.714   7.618  73.792  1.00  0.00    -0.275 OA 
ENDROOT
BRANCH   4  22
HETATM   22  C   UNL     1      -7.052   7.008  65.477  1.00  0.00    -0.068 C  
HETATM   23  C   UNL     1      -6.064   7.273  64.857  1.00  0.00    -0.038 C  
ENDBRANCH   4  22
BRANCH   7  24
HETATM   24  C   UNL     1      -9.045   4.962  64.645  1.00  0.00    -0.077 C  
HETATM   25  C   UNL     1      -9.704   3.594  64.781  1.00  0.00    -0.178 C  
ENDBRANCH   7  24
TORSDOF 2
ENDMDL
MODEL       70
REMARK 921   NORMALIZED FREE ENERGY PREDICTED BY IDOCK:   -3.59 KCAL/MOL
REMARK 922        TOTAL FREE ENERGY PREDICTED BY IDOCK:   -4.26 KCAL/MOL
REMARK 923 INTER-LIGAND FREE ENERGY PREDICTED BY IDOCK:   -4.02 KCAL/MOL
REMARK 924 INTRA-LIGAND FREE ENERGY PREDICTED BY IDOCK:   -0.24 KCAL/MOL
REMARK 927      BINDING AFFINITY PREDICTED BY RF-SCORE:    0.00 PKD
ROOT
HETATM    1  C   UNL     1      -9.946   9.699  66.878  1.00  0.00    -0.272 C  
HETATM    2  C   UNL     1     -11.114  10.337  67.335  1.00  0.00    -0.261 C  
HETATM    3  C   UNL     1      -9.922  10.367  68.216  1.00  0.00    -0.168 C  
HETATM    4  C   UNL     1      -8.156   9.836  67.307  1.00  0.00    -0.117 C  
HETATM    5  C   UNL     1     -10.908   5.930  68.584  1.00  0.00    -0.333 C  
HETATM    6  O   UNL     1      -6.781  10.138  67.627  1.00  0.00    -0.073 OA 
HETATM    7  C   UNL     1      -8.703  11.067  67.518  1.00  0.00    -0.128 C  
HETATM    8  C   UNL     1      -8.102  10.891  69.305  1.00  0.00    -0.062 C  
HETATM    9  C   UNL     1      -9.676   8.083  67.779  1.00  0.00    -0.191 C  
HETATM   10  C   UNL     1     -10.289   6.120  69.950  1.00  0.00    -0.272 C  
HETATM   11  H   UNL     1      -5.964   9.893  67.207  1.00  0.00     0.000 HD 
HETATM   12  C   UNL     1      -7.879   9.265  69.713  1.00  0.00    -0.100 C  
HETATM   13  C   UNL     1     -10.961   7.219  67.751  1.00  0.00    -0.141 C  
HETATM   14  C   UNL     1      -9.033   8.178  69.402  1.00  0.00    -0.147 C  
HETATM   15  C   UNL     1      -6.617   8.940  70.063  1.00  0.00    -0.042 C  
HETATM   16  C   UNL     1      -8.883   6.717  69.943  1.00  0.00    -0.141 C  
HETATM   17  C   UNL     1      -8.213   6.574  71.328  1.00  0.00    -0.121 C  
HETATM   18  C   UNL     1      -9.081   6.712  72.560  1.00  0.00    -0.140 C  
HETATM   19  C   UNL     1     -10.433   6.088  72.425  1.00  0.00    -0.201 C  
HETATM   20  C   UNL     1     -10.978   5.842  71.072  1.00  0.00    -0.300 C  
HETATM   21  O   UNL     1     -11.124   5.836  73.411  1.00  0.00    -0.254 OA 
ENDROOT
BRANCH   4  22
HETATM   22  C   UNL     1      -7.907   9.639  65.789  1.00  0.00    -0.106 C  
HETATM   23  C   UNL     1      -7.598   9.524  64.639  1.00  0.00    -0.113 C  
ENDBRANCH   4  22
BRANCH   7  24
HETATM   24  C   UNL     1      -8.411  12.380  66.829  1.00  0.00    -0.095 C  
HETATM   25  C   UNL     1      -9.498  13.405  67.138  1.00  0.00    -0.244 C  
ENDBRANCH   7  24
TORSDOF 2
ENDMDL
MODEL       71
REMARK 921   NORMALIZED FREE ENERGY PREDICTED BY IDOCK:   -3.58 KCAL/MOL
REMARK 922        TOTAL FREE ENERGY PREDICTED BY IDOCK:   -4.25 KCAL/MOL
REMARK 923 INTER-LIGAND FREE ENERGY PREDICTED BY IDOCK:   -4.14 KCAL/MOL
REMARK 924 INTRA-LIGAND FREE ENERGY PREDICTED BY IDOCK:   -0.11 KCAL/MOL
REMARK 927      BINDING AFFINITY PREDICTED BY RF-SCORE:    0.00 PKD
ROOT
HETATM    1  C   UNL     1      -9.204   9.322  67.426  1.00  0.00    -0.145 C  
HETATM    2  C   UNL     1     -10.492   8.938  67.009  1.00  0.00    -0.326 C  
HETATM    3  C   UNL     1     -10.224   8.988  68.467  1.00  0.00    -0.224 C  
HETATM    4  C   UNL     1      -8.507   9.985  69.001  1.00  0.00    -0.147 C  
HETATM    5  C   UNL     1      -7.643   5.371  67.441  1.00  0.00    -0.088 C  
HETATM    6  O   UNL     1      -8.112  10.630  70.231  1.00  0.00    -0.323 OA 
HETATM    7  C   UNL     1      -9.795  10.426  68.928  1.00  0.00    -0.206 C  
HETATM    8  C   UNL     1     -10.063   9.532  70.577  1.00  0.00    -0.347 C  
HETATM    9  C   UNL     1      -8.233   7.842  68.030  1.00  0.00    -0.127 C  
HETATM   10  C   UNL     1      -8.000   4.979  68.856  1.00  0.00    -0.081 C  
HETATM   11  H   UNL     1      -7.318  11.090  70.478  1.00  0.00     0.000 HD 
HETATM   12  C   UNL     1      -8.910   8.316  70.801  1.00  0.00    -0.162 C  
HETATM   13  C   UNL     1      -8.283   6.693  66.993  1.00  0.00    -0.113 C  
HETATM   14  C   UNL     1      -8.611   7.246  69.629  1.00  0.00    -0.137 C  
HETATM   15  C   UNL     1      -8.128   8.475  71.889  1.00  0.00    -0.185 C  
HETATM   16  C   UNL     1      -7.674   6.026  69.919  1.00  0.00    -0.092 C  
HETATM   17  C   UNL     1      -7.765   5.423  71.338  1.00  0.00    -0.108 C  
HETATM   18  C   UNL     1      -8.836   4.390  71.609  1.00  0.00    -0.147 C  
HETATM   19  C   UNL     1      -9.057   3.432  70.482  1.00  0.00    -0.124 C  
HETATM   20  C   UNL     1      -8.623   3.815  69.120  1.00  0.00    -0.115 C  
HETATM   21  O   UNL     1      -9.646   2.366  70.653  1.00  0.00    -0.138 OA 
ENDROOT
BRANCH   4  22
HETATM   22  C   UNL     1      -7.612  10.862  68.088  1.00  0.00    -0.094 C  
HETATM   23  C   UNL     1      -6.974  11.483  67.287  1.00  0.00    -0.125 C  
ENDBRANCH   4  22
BRANCH   7  24
HETATM   24  C   UNL     1     -10.324  11.838  68.826  1.00  0.00    -0.198 C  
HETATM   25  C   UNL     1     -11.778  11.837  68.366  1.00  0.00    -0.389 C  
ENDBRANCH   7  24
TORSDOF 2
ENDMDL
MODEL       72
REMARK 921   NORMALIZED FREE ENERGY PREDICTED BY IDOCK:   -3.50 KCAL/MOL
REMARK 922        TOTAL FREE ENERGY PREDICTED BY IDOCK:   -4.16 KCAL/MOL
REMARK 923 INTER-LIGAND FREE ENERGY PREDICTED BY IDOCK:   -4.63 KCAL/MOL
REMARK 924 INTRA-LIGAND FREE ENERGY PREDICTED BY IDOCK:    0.47 KCAL/MOL
REMARK 927      BINDING AFFINITY PREDICTED BY RF-SCORE:    0.00 PKD
ROOT
HETATM    1  C   UNL     1      -9.836   6.538  68.191  1.00  0.00    -0.131 C  
HETATM    2  C   UNL     1     -11.086   6.346  67.573  1.00  0.00    -0.401 C  
HETATM    3  C   UNL     1     -10.115   7.244  66.903  1.00  0.00    -0.317 C  
HETATM    4  C   UNL     1      -8.185   7.113  67.599  1.00  0.00    -0.114 C  
HETATM    5  C   UNL     1     -11.087   9.879  70.496  1.00  0.00    -0.398 C  
HETATM    6  O   UNL     1      -6.918   7.437  66.987  1.00  0.00    -0.077 OA 
HETATM    7  C   UNL     1      -8.785   6.494  66.542  1.00  0.00    -0.135 C  
HETATM    8  C   UNL     1      -8.585   8.140  65.626  1.00  0.00    -0.181 C  
HETATM    9  C   UNL     1      -9.744   8.224  68.993  1.00  0.00    -0.167 C  
HETATM   10  C   UNL     1     -10.783  10.980  69.506  1.00  0.00    -0.231 C  
HETATM   11  H   UNL     1      -6.026   7.376  67.309  1.00  0.00     0.000 HD 
HETATM   12  C   UNL     1      -8.431   9.425  66.713  1.00  0.00    -0.129 C  
HETATM   13  C   UNL     1     -10.977   8.470  69.897  1.00  0.00    -0.165 C  
HETATM   14  C   UNL     1      -9.471   9.591  67.937  1.00  0.00    -0.149 C  
HETATM   15  C   UNL     1      -7.271  10.107  66.617  1.00  0.00    -0.105 C  
HETATM   16  C   UNL     1      -9.420  10.879  68.825  1.00  0.00    -0.196 C  
HETATM   17  C   UNL     1      -9.066  12.192  68.093  1.00  0.00    -0.196 C  
HETATM   18  C   UNL     1     -10.183  12.960  67.422  1.00  0.00    -0.230 C  
HETATM   19  C   UNL     1     -11.464  12.972  68.194  1.00  0.00    -0.319 C  
HETATM   20  C   UNL     1     -11.696  11.925  69.214  1.00  0.00    -0.389 C  
HETATM   21  O   UNL     1     -12.349  13.792  67.955  1.00  0.00    -0.245 OA 
ENDROOT
BRANCH   4  22
HETATM   22  C   UNL     1      -7.608   6.042  68.560  1.00  0.00    -0.091 C  
HETATM   23  C   UNL     1      -7.071   5.296  69.327  1.00  0.00    -0.057 C  
ENDBRANCH   4  22
BRANCH   7  24
HETATM   24  C   UNL     1      -8.371   5.246  65.797  1.00  0.00    -0.123 C  
HETATM   25  C   UNL     1      -7.606   5.606  64.527  1.00  0.00    -0.082 C  
ENDBRANCH   7  24
TORSDOF 2
ENDMDL
MODEL       73
REMARK 921   NORMALIZED FREE ENERGY PREDICTED BY IDOCK:   -3.48 KCAL/MOL
REMARK 922        TOTAL FREE ENERGY PREDICTED BY IDOCK:   -4.14 KCAL/MOL
REMARK 923 INTER-LIGAND FREE ENERGY PREDICTED BY IDOCK:   -4.09 KCAL/MOL
REMARK 924 INTRA-LIGAND FREE ENERGY PREDICTED BY IDOCK:   -0.05 KCAL/MOL
REMARK 927      BINDING AFFINITY PREDICTED BY RF-SCORE:    0.00 PKD
ROOT
HETATM    1  C   UNL     1      -7.865   8.219  68.874  1.00  0.00    -0.111 C  
HETATM    2  C   UNL     1      -6.914   7.236  68.543  1.00  0.00    -0.079 C  
HETATM    3  C   UNL     1      -8.336   6.823  68.619  1.00  0.00    -0.120 C  
HETATM    4  C   UNL     1      -9.690   8.371  68.645  1.00  0.00    -0.164 C  
HETATM    5  C   UNL     1      -7.619   7.557  73.062  1.00  0.00    -0.110 C  
HETATM    6  O   UNL     1     -11.086   8.433  68.280  1.00  0.00    -0.433 OA 
HETATM    7  C   UNL     1      -9.227   7.622  67.603  1.00  0.00    -0.144 C  
HETATM    8  C   UNL     1     -10.410   6.273  68.209  1.00  0.00    -0.233 C  
HETATM    9  C   UNL     1      -8.458   8.003  70.634  1.00  0.00    -0.125 C  
HETATM   10  C   UNL     1      -8.668   6.477  73.196  1.00  0.00    -0.128 C  
HETATM   11  H   UNL     1     -11.711   9.148  68.292  1.00  0.00     0.000 HD 
HETATM   12  C   UNL     1     -10.790   6.487  69.842  1.00  0.00    -0.341 C  
HETATM   13  C   UNL     1      -7.259   7.884  71.606  1.00  0.00    -0.069 C  
HETATM   14  C   UNL     1      -9.620   6.731  70.929  1.00  0.00    -0.173 C  
HETATM   15  C   UNL     1     -12.101   6.681  70.095  1.00  0.00    -0.121 C  
HETATM   16  C   UNL     1      -9.974   6.750  72.453  1.00  0.00    -0.184 C  
HETATM   17  C   UNL     1     -11.082   5.773  72.903  1.00  0.00    -0.321 C  
HETATM   18  C   UNL     1     -10.691   4.349  73.232  1.00  0.00    -0.307 C  
HETATM   19  C   UNL     1      -9.386   4.227  73.953  1.00  0.00    -0.101 C  
HETATM   20  C   UNL     1      -8.413   5.338  73.867  1.00  0.00    -0.113 C  
HETATM   21  O   UNL     1      -9.083   3.202  74.560  1.00  0.00    -0.081 OA 
ENDROOT
BRANCH   4  22
HETATM   22  C   UNL     1      -9.404   9.869  68.367  1.00  0.00    -0.135 C  
HETATM   23  C   UNL     1      -9.063  10.999  68.169  1.00  0.00    -0.155 C  
ENDBRANCH   4  22
BRANCH   7  24
HETATM   24  C   UNL     1      -9.239   7.923  66.123  1.00  0.00    -0.208 C  
HETATM   25  C   UNL     1      -8.132   7.156  65.407  1.00  0.00    -0.137 C  
ENDBRANCH   7  24
TORSDOF 2
ENDMDL
MODEL       74
REMARK 921   NORMALIZED FREE ENERGY PREDICTED BY IDOCK:   -3.46 KCAL/MOL
REMARK 922        TOTAL FREE ENERGY PREDICTED BY IDOCK:   -4.12 KCAL/MOL
REMARK 923 INTER-LIGAND FREE ENERGY PREDICTED BY IDOCK:   -4.75 KCAL/MOL
REMARK 924 INTRA-LIGAND FREE ENERGY PREDICTED BY IDOCK:    0.63 KCAL/MOL
REMARK 927      BINDING AFFINITY PREDICTED BY RF-SCORE:    0.00 PKD
ROOT
HETATM    1  C   UNL     1     -10.453  12.413  66.044  1.00  0.00    -0.281 C  
HETATM    2  C   UNL     1      -9.421  13.214  66.568  1.00  0.00    -0.246 C  
HETATM    3  C   UNL     1      -9.123  11.784  66.311  1.00  0.00    -0.209 C  
HETATM    4  C   UNL     1     -10.499  10.808  65.135  1.00  0.00    -0.229 C  
HETATM    5  C   UNL     1     -11.961  11.247  69.840  1.00  0.00    -0.440 C  
HETATM    6  O   UNL     1     -10.394   9.627  64.311  1.00  0.00    -0.074 OA 
HETATM    7  C   UNL     1      -9.324  11.413  64.800  1.00  0.00    -0.118 C  
HETATM    8  C   UNL     1      -8.474   9.867  65.489  1.00  0.00    -0.148 C  
HETATM    9  C   UNL     1     -11.152  11.285  67.361  1.00  0.00    -0.358 C  
HETATM   10  C   UNL     1     -11.108  10.022  70.070  1.00  0.00    -0.350 C  
HETATM   11  H   UNL     1     -11.029   9.176  63.768  1.00  0.00     0.000 HD 
HETATM   12  C   UNL     1      -9.479   9.058  66.582  1.00  0.00    -0.251 C  
HETATM   13  C   UNL     1     -11.514  12.087  68.635  1.00  0.00    -0.350 C  
HETATM   14  C   UNL     1     -10.213   9.868  67.771  1.00  0.00    -0.241 C  
HETATM   15  C   UNL     1      -9.794   7.795  66.229  1.00  0.00    -0.111 C  
HETATM   16  C   UNL     1     -10.995   9.079  68.874  1.00  0.00     0.019 C  
HETATM   17  C   UNL     1     -10.389   7.722  69.293  1.00  0.00    -0.220 C  
HETATM   18  C   UNL     1      -9.313   7.716  70.356  1.00  0.00    -0.160 C  
HETATM   19  C   UNL     1      -9.546   8.692  71.464  1.00  0.00    -0.257 C  
HETATM   20  C   UNL     1     -10.451   9.839  71.231  1.00  0.00    -0.050 C  
HETATM   21  O   UNL     1      -8.954   8.596  72.538  1.00  0.00    -0.337 OA 
ENDROOT
BRANCH   4  22
HETATM   22  C   UNL     1     -11.655  11.445  64.323  1.00  0.00    -0.097 C  
HETATM   23  C   UNL     1     -12.535  11.842  63.615  1.00  0.00    -0.583 C  
ENDBRANCH   4  22
BRANCH   7  24
HETATM   24  C   UNL     1      -8.848  11.907  63.454  1.00  0.00     0.648 C  
HETATM   25  C   UNL     1      -8.571  10.736  62.516  1.00  0.00    -0.301 C  
ENDBRANCH   7  24
TORSDOF 2
ENDMDL
MODEL       75
REMARK 921   NORMALIZED FREE ENERGY PREDICTED BY IDOCK:   -3.45 KCAL/MOL
REMARK 922        TOTAL FREE ENERGY PREDICTED BY IDOCK:   -4.10 KCAL/MOL
REMARK 923 INTER-LIGAND FREE ENERGY PREDICTED BY IDOCK:   -4.78 KCAL/MOL
REMARK 924 INTRA-LIGAND FREE ENERGY PREDICTED BY IDOCK:    0.68 KCAL/MOL
REMARK 927      BINDING AFFINITY PREDICTED BY RF-SCORE:    0.00 PKD
ROOT
HETATM    1  C   UNL     1      -7.379   8.255  64.906  1.00  0.00    -0.087 C  
HETATM    2  C   UNL     1      -6.227   9.050  64.766  1.00  0.00    -0.066 C  
HETATM    3  C   UNL     1      -7.033   9.215  65.999  1.00  0.00    -0.085 C  
HETATM    4  C   UNL     1      -8.408   7.726  66.344  1.00  0.00    -0.131 C  
HETATM    5  C   UNL     1      -9.971  11.052  63.034  1.00  0.00    -0.333 C  
HETATM    6  O   UNL     1      -9.043   7.265  67.557  1.00  0.00    -0.124 OA 
HETATM    7  C   UNL     1      -7.135   7.875  66.809  1.00  0.00    -0.077 C  
HETATM    8  C   UNL     1      -7.858   9.138  68.021  1.00  0.00    -0.100 C  
HETATM    9  C   UNL     1      -8.924   9.271  64.625  1.00  0.00    -0.202 C  
HETATM   10  C   UNL     1     -10.364  11.863  64.247  1.00  0.00    -0.362 C  
HETATM   11  H   UNL     1      -9.679   6.577  67.716  1.00  0.00     0.000 HD 
HETATM   12  C   UNL     1      -9.321   9.761  67.447  1.00  0.00    -0.155 C  
HETATM   13  C   UNL     1      -8.823  10.068  63.301  1.00  0.00    -0.246 C  
HETATM   14  C   UNL     1      -9.439  10.310  65.933  1.00  0.00    -0.241 C  
HETATM   15  C   UNL     1     -10.384   9.529  68.246  1.00  0.00    -0.244 C  
HETATM   16  C   UNL     1     -10.745  11.042  65.477  1.00  0.00    -0.218 C  
HETATM   17  C   UNL     1     -11.434  11.924  66.541  1.00  0.00    -0.381 C  
HETATM   18  C   UNL     1     -10.952  13.348  66.711  1.00  0.00    -0.298 C  
HETATM   19  C   UNL     1     -10.607  14.031  65.426  1.00  0.00    -0.341 C  
HETATM   20  C   UNL     1     -10.304  13.208  64.234  1.00  0.00    -0.361 C  
HETATM   21  O   UNL     1     -10.508  15.255  65.357  1.00  0.00    -0.336 OA 
ENDROOT
BRANCH   4  22
HETATM   22  C   UNL     1      -8.527   6.371  65.600  1.00  0.00    -0.147 C  
HETATM   23  C   UNL     1      -8.529   5.284  65.099  1.00  0.00    -0.149 C  
ENDBRANCH   4  22
BRANCH   7  24
HETATM   24  C   UNL     1      -6.195   6.842  67.384  1.00  0.00    -0.040 C  
HETATM   25  C   UNL     1      -6.649   6.415  68.777  1.00  0.00    -0.051 C  
ENDBRANCH   7  24
TORSDOF 2
ENDMDL
MODEL       76
REMARK 921   NORMALIZED FREE ENERGY PREDICTED BY IDOCK:   -3.40 KCAL/MOL
REMARK 922        TOTAL FREE ENERGY PREDICTED BY IDOCK:   -4.05 KCAL/MOL
REMARK 923 INTER-LIGAND FREE ENERGY PREDICTED BY IDOCK:   -4.40 KCAL/MOL
REMARK 924 INTRA-LIGAND FREE ENERGY PREDICTED BY IDOCK:    0.35 KCAL/MOL
REMARK 927      BINDING AFFINITY PREDICTED BY RF-SCORE:    0.00 PKD
ROOT
HETATM    1  C   UNL     1     -10.652   7.466  69.997  1.00  0.00    -0.241 C  
HETATM    2  C   UNL     1     -11.557   6.675  69.264  1.00  0.00    -0.147 C  
HETATM    3  C   UNL     1     -10.131   6.646  68.859  1.00  0.00    -0.178 C  
HETATM    4  C   UNL     1      -8.822   7.439  70.233  1.00  0.00    -0.147 C  
HETATM    5  C   UNL     1     -11.110  10.901  67.540  1.00  0.00    -0.375 C  
HETATM    6  O   UNL     1      -7.410   7.226  70.450  1.00  0.00    -0.075 OA 
HETATM    7  C   UNL     1      -9.208   6.147  70.026  1.00  0.00    -0.158 C  
HETATM    8  C   UNL     1      -8.024   6.161  68.547  1.00  0.00    -0.108 C  
HETATM    9  C   UNL     1     -10.151   8.979  69.020  1.00  0.00    -0.204 C  
HETATM   10  C   UNL     1     -10.042  10.604  66.513  1.00  0.00    -0.275 C  
HETATM   11  H   UNL     1      -6.805   7.592  71.084  1.00  0.00     0.000 HD 
HETATM   12  C   UNL     1      -7.740   7.740  68.012  1.00  0.00    -0.126 C  
HETATM   13  C   UNL     1     -11.398   9.722  68.481  1.00  0.00     0.025 C  
HETATM   14  C   UNL     1      -8.974   8.748  67.748  1.00  0.00    -0.140 C  
HETATM   15  C   UNL     1      -6.451   8.132  68.072  1.00  0.00    -0.056 C  
HETATM   16  C   UNL     1      -8.705  10.141  67.086  1.00  0.00    -0.131 C  
HETATM   17  C   UNL     1      -7.597  10.176  66.010  1.00  0.00    -0.118 C  
HETATM   18  C   UNL     1      -7.969   9.814  64.589  1.00  0.00    -0.139 C  
HETATM   19  C   UNL     1      -9.307  10.325  64.160  1.00  0.00    -0.287 C  
HETATM   20  C   UNL     1     -10.303  10.683  65.194  1.00  0.00    -0.331 C  
HETATM   21  O   UNL     1      -9.617  10.394  62.972  1.00  0.00    -0.313 OA 
ENDROOT
BRANCH   4  22
HETATM   22  C   UNL     1      -9.131   7.839  71.698  1.00  0.00    -0.163 C  
HETATM   23  C   UNL     1      -9.259   8.101  72.859  1.00  0.00    -0.343 C  
ENDBRANCH   4  22
BRANCH   7  24
HETATM   24  C   UNL     1      -9.122   4.959  70.955  1.00  0.00    -0.184 C  
HETATM   25  C   UNL     1     -10.418   4.796  71.743  1.00  0.00    -0.182 C  
ENDBRANCH   7  24
TORSDOF 2
ENDMDL
MODEL       77
REMARK 921   NORMALIZED FREE ENERGY PREDICTED BY IDOCK:   -3.40 KCAL/MOL
REMARK 922        TOTAL FREE ENERGY PREDICTED BY IDOCK:   -4.05 KCAL/MOL
REMARK 923 INTER-LIGAND FREE ENERGY PREDICTED BY IDOCK:   -4.34 KCAL/MOL
REMARK 924 INTRA-LIGAND FREE ENERGY PREDICTED BY IDOCK:    0.29 KCAL/MOL
REMARK 927      BINDING AFFINITY PREDICTED BY RF-SCORE:    0.00 PKD
ROOT
HETATM    1  C   UNL     1      -9.938  12.052  65.419  1.00  0.00    -0.279 C  
HETATM    2  C   UNL     1     -11.035  11.817  64.570  1.00  0.00    -0.382 C  
HETATM    3  C   UNL     1     -10.846  10.903  65.721  1.00  0.00    -0.120 C  
HETATM    4  C   UNL     1      -9.529  11.570  67.153  1.00  0.00    -0.177 C  
HETATM    5  C   UNL     1      -7.260   9.584  63.231  1.00  0.00    -0.105 C  
HETATM    6  O   UNL     1      -9.390  11.253  68.554  1.00  0.00    -0.176 OA 
HETATM    7  C   UNL     1     -10.887  11.675  67.087  1.00  0.00    -0.306 C  
HETATM    8  C   UNL     1     -10.930   9.865  67.642  1.00  0.00    -0.263 C  
HETATM    9  C   UNL     1      -8.588  10.792  65.123  1.00  0.00    -0.133 C  
HETATM   10  C   UNL     1      -7.531   8.267  63.921  1.00  0.00    -0.114 C  
HETATM   11  H   UNL     1      -8.781  11.561  69.216  1.00  0.00     0.000 HD 
HETATM   12  C   UNL     1      -9.473   9.086  67.284  1.00  0.00    -0.189 C  
HETATM   13  C   UNL     1      -8.253  10.692  63.615  1.00  0.00    -0.006 C  
HETATM   14  C   UNL     1      -8.824   9.201  65.809  1.00  0.00    -0.210 C  
HETATM   15  C   UNL     1      -8.814   8.602  68.357  1.00  0.00    -0.142 C  
HETATM   16  C   UNL     1      -7.573   8.333  65.446  1.00  0.00    -0.096 C  
HETATM   17  C   UNL     1      -7.529   6.918  66.064  1.00  0.00    -0.080 C  
HETATM   18  C   UNL     1      -8.247   5.800  65.343  1.00  0.00    -0.138 C  
HETATM   19  C   UNL     1      -8.129   5.861  63.853  1.00  0.00    -0.098 C  
HETATM   20  C   UNL     1      -7.784   7.150  63.213  1.00  0.00    -0.116 C  
HETATM   21  O   UNL     1      -8.375   4.882  63.149  1.00  0.00    -0.102 OA 
ENDROOT
BRANCH   4  22
HETATM   22  C   UNL     1      -8.909  12.986  67.267  1.00  0.00    -0.208 C  
HETATM   23  C   UNL     1      -8.347  14.043  67.270  1.00  0.00    -0.209 C  
ENDBRANCH   4  22
BRANCH   7  24
HETATM   24  C   UNL     1     -11.812  12.629  67.806  1.00  0.00    -0.381 C  
HETATM   25  C   UNL     1     -12.337  13.695  66.849  1.00  0.00    -0.309 C  
ENDBRANCH   7  24
TORSDOF 2
ENDMDL
MODEL       78
REMARK 921   NORMALIZED FREE ENERGY PREDICTED BY IDOCK:   -3.40 KCAL/MOL
REMARK 922        TOTAL FREE ENERGY PREDICTED BY IDOCK:   -4.05 KCAL/MOL
REMARK 923 INTER-LIGAND FREE ENERGY PREDICTED BY IDOCK:   -3.91 KCAL/MOL
REMARK 924 INTRA-LIGAND FREE ENERGY PREDICTED BY IDOCK:   -0.13 KCAL/MOL
REMARK 927      BINDING AFFINITY PREDICTED BY RF-SCORE:    0.00 PKD
ROOT
HETATM    1  C   UNL     1     -10.314   6.917  71.341  1.00  0.00    -0.219 C  
HETATM    2  C   UNL     1     -11.589   6.493  70.925  1.00  0.00    -0.417 C  
HETATM    3  C   UNL     1     -10.478   5.515  70.848  1.00  0.00    -0.319 C  
HETATM    4  C   UNL     1      -8.784   6.041  71.888  1.00  0.00    -0.137 C  
HETATM    5  C   UNL     1      -9.132   8.310  67.506  1.00  0.00    -0.148 C  
HETATM    6  O   UNL     1      -7.705   5.250  72.431  1.00  0.00    -0.097 OA 
HETATM    7  C   UNL     1      -9.836   5.256  72.256  1.00  0.00    -0.209 C  
HETATM    8  C   UNL     1      -9.041   3.906  71.193  1.00  0.00    -0.184 C  
HETATM    9  C   UNL     1      -9.198   7.209  69.869  1.00  0.00    -0.141 C  
HETATM   10  C   UNL     1      -8.544   7.031  66.958  1.00  0.00    -0.122 C  
HETATM   11  H   UNL     1      -6.922   5.493  72.912  1.00  0.00     0.000 HD 
HETATM   12  C   UNL     1      -8.013   4.576  70.030  1.00  0.00    -0.063 C  
HETATM   13  C   UNL     1      -9.893   8.118  68.826  1.00  0.00    -0.181 C  
HETATM   14  C   UNL     1      -8.516   5.796  69.099  1.00  0.00    -0.107 C  
HETATM   15  C   UNL     1      -6.724   4.189  70.128  1.00  0.00    -0.033 C  
HETATM   16  C   UNL     1      -7.617   6.284  67.914  1.00  0.00    -0.102 C  
HETATM   17  C   UNL     1      -6.822   5.188  67.171  1.00  0.00    -0.060 C  
HETATM   18  C   UNL     1      -7.511   4.435  66.055  1.00  0.00    -0.085 C  
HETATM   19  C   UNL     1      -8.394   5.287  65.201  1.00  0.00    -0.145 C  
HETATM   20  C   UNL     1      -8.888   6.574  65.739  1.00  0.00    -0.097 C  
HETATM   21  O   UNL     1      -8.767   4.912  64.090  1.00  0.00    -0.143 OA 
ENDROOT
BRANCH   4  22
HETATM   22  C   UNL     1      -8.631   7.204  72.901  1.00  0.00    -0.139 C  
HETATM   23  C   UNL     1      -8.486   8.175  73.586  1.00  0.00    -0.308 C  
ENDBRANCH   4  22
BRANCH   7  24
HETATM   24  C   UNL     1     -10.295   4.851  73.638  1.00  0.00    -0.259 C  
HETATM   25  C   UNL     1     -11.464   3.874  73.554  1.00  0.00    -0.195 C  
ENDBRANCH   7  24
TORSDOF 2
ENDMDL
MODEL       79
REMARK 921   NORMALIZED FREE ENERGY PREDICTED BY IDOCK:   -3.34 KCAL/MOL
REMARK 922        TOTAL FREE ENERGY PREDICTED BY IDOCK:   -3.98 KCAL/MOL
REMARK 923 INTER-LIGAND FREE ENERGY PREDICTED BY IDOCK:   -3.83 KCAL/MOL
REMARK 924 INTRA-LIGAND FREE ENERGY PREDICTED BY IDOCK:   -0.15 KCAL/MOL
REMARK 927      BINDING AFFINITY PREDICTED BY RF-SCORE:    0.00 PKD
ROOT
HETATM    1  C   UNL     1      -7.329   8.068  66.969  1.00  0.00    -0.091 C  
HETATM    2  C   UNL     1      -6.151   7.332  67.195  1.00  0.00    -0.042 C  
HETATM    3  C   UNL     1      -7.446   6.669  67.486  1.00  0.00    -0.097 C  
HETATM    4  C   UNL     1      -9.098   7.613  66.706  1.00  0.00    -0.151 C  
HETATM    5  C   UNL     1      -7.480   9.712  70.883  1.00  0.00     0.040 C  
HETATM    6  O   UNL     1     -10.415   7.126  66.371  1.00  0.00    -0.489 OA 
HETATM    7  C   UNL     1      -8.353   6.586  66.208  1.00  0.00    -0.124 C  
HETATM    8  C   UNL     1      -9.279   5.482  67.437  1.00  0.00    -0.110 C  
HETATM    9  C   UNL     1      -8.080   8.633  68.585  1.00  0.00    -0.117 C  
HETATM   10  C   UNL     1      -8.275   8.624  71.568  1.00  0.00    -0.209 C  
HETATM   11  H   UNL     1     -11.179   7.561  66.011  1.00  0.00     0.000 HD 
HETATM   12  C   UNL     1      -9.901   6.391  68.719  1.00  0.00    -0.152 C  
HETATM   13  C   UNL     1      -7.018   9.333  69.468  1.00  0.00    -0.052 C  
HETATM   14  C   UNL     1      -8.962   7.440  69.510  1.00  0.00    -0.144 C  
HETATM   15  C   UNL     1     -11.244   6.347  68.841  1.00  0.00    -0.385 C  
HETATM   16  C   UNL     1      -9.503   8.140  70.801  1.00  0.00    -0.180 C  
HETATM   17  C   UNL     1     -10.418   7.283  71.703  1.00  0.00    -0.218 C  
HETATM   18  C   UNL     1      -9.769   6.377  72.726  1.00  0.00    -0.163 C  
HETATM   19  C   UNL     1      -8.572   6.974  73.395  1.00  0.00    -0.131 C  
HETATM   20  C   UNL     1      -7.864   8.092  72.735  1.00  0.00    -0.197 C  
HETATM   21  O   UNL     1      -8.131   6.515  74.448  1.00  0.00    -0.114 OA 
ENDROOT
BRANCH   4  22
HETATM   22  C   UNL     1      -9.115   8.778  65.683  1.00  0.00    -0.247 C  
HETATM   23  C   UNL     1      -9.066   9.744  64.978  1.00  0.00    -0.280 C  
ENDBRANCH   4  22
BRANCH   7  24
HETATM   24  C   UNL     1      -8.242   6.079  64.788  1.00  0.00    -0.123 C  
HETATM   25  C   UNL     1      -7.121   5.051  64.668  1.00  0.00    -0.054 C  
ENDBRANCH   7  24
TORSDOF 2
ENDMDL
MODEL       80
REMARK 921   NORMALIZED FREE ENERGY PREDICTED BY IDOCK:   -3.17 KCAL/MOL
REMARK 922        TOTAL FREE ENERGY PREDICTED BY IDOCK:   -3.79 KCAL/MOL
REMARK 923 INTER-LIGAND FREE ENERGY PREDICTED BY IDOCK:   -3.73 KCAL/MOL
REMARK 924 INTRA-LIGAND FREE ENERGY PREDICTED BY IDOCK:   -0.07 KCAL/MOL
REMARK 927      BINDING AFFINITY PREDICTED BY RF-SCORE:    0.00 PKD
ROOT
HETATM    1  C   UNL     1      -8.897   8.620  67.333  1.00  0.00    -0.140 C  
HETATM    2  C   UNL     1     -10.041   9.137  66.698  1.00  0.00    -0.343 C  
HETATM    3  C   UNL     1     -10.162   7.823  67.374  1.00  0.00    -0.320 C  
HETATM    4  C   UNL     1      -8.619   7.359  68.651  1.00  0.00    -0.129 C  
HETATM    5  C   UNL     1      -7.493   6.542  63.905  1.00  0.00    -0.085 C  
HETATM    6  O   UNL     1      -8.543   6.465  69.783  1.00  0.00    -0.135 OA 
HETATM    7  C   UNL     1      -9.833   7.927  68.904  1.00  0.00    -0.174 C  
HETATM    8  C   UNL     1     -10.542   6.177  68.759  1.00  0.00    -0.330 C  
HETATM    9  C   UNL     1      -8.155   7.226  66.333  1.00  0.00    -0.119 C  
HETATM   10  C   UNL     1      -8.216   5.231  64.107  1.00  0.00    -0.132 C  
HETATM   11  H   UNL     1      -7.830   6.250  70.373  1.00  0.00     0.000 HD 
HETATM   12  C   UNL     1      -9.519   5.180  67.855  1.00  0.00    -0.155 C  
HETATM   13  C   UNL     1      -7.960   7.652  64.857  1.00  0.00    -0.135 C  
HETATM   14  C   UNL     1      -8.951   5.672  66.426  1.00  0.00    -0.134 C  
HETATM   15  C   UNL     1      -9.044   4.108  68.522  1.00  0.00    -0.182 C  
HETATM   16  C   UNL     1      -8.152   4.671  65.526  1.00  0.00    -0.107 C  
HETATM   17  C   UNL     1      -8.626   3.201  65.564  1.00  0.00    -0.112 C  
HETATM   18  C   UNL     1      -9.755   2.789  64.646  1.00  0.00    -0.065 C  
HETATM   19  C   UNL     1      -9.698   3.418  63.291  1.00  0.00    -0.117 C  
HETATM   20  C   UNL     1      -8.915   4.660  63.108  1.00  0.00    -0.117 C  
HETATM   21  O   UNL     1     -10.338   2.961  62.344  1.00  0.00    -0.107 OA 
ENDROOT
BRANCH   4  22
HETATM   22  C   UNL     1      -7.495   8.306  69.145  1.00  0.00    -0.086 C  
HETATM   23  C   UNL     1      -6.573   8.937  69.575  1.00  0.00    -0.044 C  
ENDBRANCH   4  22
BRANCH   7  24
HETATM   24  C   UNL     1     -10.281   8.746  70.092  1.00  0.00    -0.207 C  
HETATM   25  C   UNL     1     -11.233   9.855  69.654  1.00  0.00    -0.251 C  
ENDBRANCH   7  24
TORSDOF 2
ENDMDL
MODEL       81
REMARK 921   NORMALIZED FREE ENERGY PREDICTED BY IDOCK:   -2.96 KCAL/MOL
REMARK 922        TOTAL FREE ENERGY PREDICTED BY IDOCK:   -3.55 KCAL/MOL
REMARK 923 INTER-LIGAND FREE ENERGY PREDICTED BY IDOCK:   -3.32 KCAL/MOL
REMARK 924 INTRA-LIGAND FREE ENERGY PREDICTED BY IDOCK:   -0.24 KCAL/MOL
REMARK 927      BINDING AFFINITY PREDICTED BY RF-SCORE:    0.00 PKD
ROOT
HETATM    1  C   UNL     1      -9.451   5.427  71.184  1.00  0.00    -0.200 C  
HETATM    2  C   UNL     1     -10.331   4.347  71.380  1.00  0.00    -0.080 C  
HETATM    3  C   UNL     1      -9.024   4.065  70.738  1.00  0.00    -0.152 C  
HETATM    4  C   UNL     1      -7.632   5.569  70.907  1.00  0.00    -0.090 C  
HETATM    5  C   UNL     1     -10.945   6.412  67.332  1.00  0.00    -0.463 C  
HETATM    6  O   UNL     1      -6.189   5.556  70.841  1.00  0.00    -0.028 OA 
HETATM    7  C   UNL     1      -7.825   4.456  71.671  1.00  0.00    -0.080 C  
HETATM    8  C   UNL     1      -6.963   3.503  70.279  1.00  0.00    -0.034 C  
HETATM    9  C   UNL     1      -9.409   5.933  69.385  1.00  0.00    -0.150 C  
HETATM   10  C   UNL     1     -10.057   5.519  66.496  1.00  0.00    -0.241 C  
HETATM   11  H   UNL     1      -5.546   6.251  70.918  1.00  0.00     0.000 HD 
HETATM   12  C   UNL     1      -7.060   4.346  68.817  1.00  0.00    -0.052 C  
HETATM   13  C   UNL     1     -10.844   6.137  68.839  1.00  0.00    -0.406 C  
HETATM   14  C   UNL     1      -8.474   4.930  68.301  1.00  0.00    -0.098 C  
HETATM   15  C   UNL     1      -5.868   4.687  68.284  1.00  0.00    -0.025 C  
HETATM   16  C   UNL     1      -8.576   5.550  66.867  1.00  0.00    -0.110 C  
HETATM   17  C   UNL     1      -7.717   4.876  65.775  1.00  0.00    -0.091 C  
HETATM   18  C   UNL     1      -8.284   3.670  65.060  1.00  0.00    -0.097 C  
HETATM   19  C   UNL     1      -9.747   3.770  64.765  1.00  0.00    -0.184 C  
HETATM   20  C   UNL     1     -10.574   4.714  65.549  1.00  0.00    -0.208 C  
HETATM   21  O   UNL     1     -10.284   3.042  63.931  1.00  0.00    -0.167 OA 
ENDROOT
BRANCH   4  22
HETATM   22  C   UNL     1      -7.720   6.830  71.804  1.00  0.00    -0.096 C  
HETATM   23  C   UNL     1      -7.727   7.863  72.408  1.00  0.00    -0.134 C  
ENDBRANCH   4  22
BRANCH   7  24
HETATM   24  C   UNL     1      -7.363   4.167  73.080  1.00  0.00    -0.070 C  
HETATM   25  C   UNL     1      -7.979   2.869  73.594  1.00  0.00    -0.064 C  
ENDBRANCH   7  24
TORSDOF 2
ENDMDL
MODEL       82
REMARK 921   NORMALIZED FREE ENERGY PREDICTED BY IDOCK:   -2.87 KCAL/MOL
REMARK 922        TOTAL FREE ENERGY PREDICTED BY IDOCK:   -3.46 KCAL/MOL
REMARK 923 INTER-LIGAND FREE ENERGY PREDICTED BY IDOCK:   -3.33 KCAL/MOL
REMARK 924 INTRA-LIGAND FREE ENERGY PREDICTED BY IDOCK:   -0.13 KCAL/MOL
REMARK 927      BINDING AFFINITY PREDICTED BY RF-SCORE:    0.00 PKD
ROOT
HETATM    1  C   UNL     1      -9.022   8.162  65.833  1.00  0.00    -0.195 C  
HETATM    2  C   UNL     1      -8.293   8.370  64.647  1.00  0.00    -0.137 C  
HETATM    3  C   UNL     1      -7.532   8.255  65.914  1.00  0.00    -0.081 C  
HETATM    4  C   UNL     1      -8.598   7.502  67.503  1.00  0.00    -0.122 C  
HETATM    5  C   UNL     1      -9.500  12.296  66.686  1.00  0.00    -0.227 C  
HETATM    6  O   UNL     1      -8.178   6.838  68.714  1.00  0.00    -0.118 OA 
HETATM    7  C   UNL     1      -7.777   6.872  66.614  1.00  0.00    -0.105 C  
HETATM    8  C   UNL     1      -6.342   7.589  67.621  1.00  0.00    -0.053 C  
HETATM    9  C   UNL     1      -9.087   9.727  66.855  1.00  0.00    -0.162 C  
HETATM   10  C   UNL     1      -8.237  12.523  67.484  1.00  0.00    -0.175 C  
HETATM   11  H   UNL     1      -8.670   6.490  69.449  1.00  0.00     0.000 HD 
HETATM   12  C   UNL     1      -6.834   8.951  68.495  1.00  0.00    -0.064 C  
HETATM   13  C   UNL     1      -9.548  10.927  65.992  1.00  0.00    -0.248 C  
HETATM   14  C   UNL     1      -7.653  10.138  67.767  1.00  0.00    -0.090 C  
HETATM   15  C   UNL     1      -6.711   8.836  69.833  1.00  0.00    -0.045 C  
HETATM   16  C   UNL     1      -7.945  11.464  68.545  1.00  0.00    -0.143 C  
HETATM   17  C   UNL     1      -6.838  11.939  69.512  1.00  0.00    -0.004 C  
HETATM   18  C   UNL     1      -5.706  12.770  68.951  1.00  0.00    -0.072 C  
HETATM   19  C   UNL     1      -6.133  13.762  67.917  1.00  0.00    -0.150 C  
HETATM   20  C   UNL     1      -7.415  13.553  67.208  1.00  0.00    -0.056 C  
HETATM   21  O   UNL     1      -5.413  14.708  67.600  1.00  0.00    -0.309 OA 
ENDROOT
BRANCH   4  22
HETATM   22  C   UNL     1     -10.001   6.844  67.461  1.00  0.00    -0.190 C  
HETATM   23  C   UNL     1     -11.027   6.230  67.399  1.00  0.00    -0.447 C  
ENDBRANCH   4  22
BRANCH   7  24
HETATM   24  C   UNL     1      -7.691   5.407  66.257  1.00  0.00    -0.099 C  
HETATM   25  C   UNL     1      -6.534   5.152  65.296  1.00  0.00    -0.036 C  
ENDBRANCH   7  24
TORSDOF 2
ENDMDL
MODEL       83
REMARK 921   NORMALIZED FREE ENERGY PREDICTED BY IDOCK:   -2.82 KCAL/MOL
REMARK 922        TOTAL FREE ENERGY PREDICTED BY IDOCK:   -3.41 KCAL/MOL
REMARK 923 INTER-LIGAND FREE ENERGY PREDICTED BY IDOCK:   -3.94 KCAL/MOL
REMARK 924 INTRA-LIGAND FREE ENERGY PREDICTED BY IDOCK:    0.53 KCAL/MOL
REMARK 927      BINDING AFFINITY PREDICTED BY RF-SCORE:    0.00 PKD
ROOT
HETATM    1  C   UNL     1     -10.553   8.165  72.165  1.00  0.00    -0.358 C  
HETATM    2  C   UNL     1      -9.285   8.636  72.551  1.00  0.00    -0.204 C  
HETATM    3  C   UNL     1      -9.551   8.481  71.101  1.00  0.00    -0.248 C  
HETATM    4  C   UNL     1     -11.532   8.242  70.603  1.00  0.00    -0.225 C  
HETATM    5  C   UNL     1      -9.445   4.064  72.233  1.00  0.00    -0.186 C  
HETATM    6  O   UNL     1     -12.253   8.493  69.377  1.00  0.00     0.889 OA 
HETATM    7  C   UNL     1     -10.761   9.366  70.637  1.00  0.00    -0.353 C  
HETATM    8  C   UNL     1     -10.038   8.769  68.991  1.00  0.00    -0.206 C  
HETATM    9  C   UNL     1     -10.457   6.384  71.603  1.00  0.00    -0.251 C  
HETATM   10  C   UNL     1      -8.946   3.928  70.813  1.00  0.00    -0.153 C  
HETATM   11  H   UNL     1     -13.168   8.383  69.147  1.00  0.00     0.000 HD 
HETATM   12  C   UNL     1     -10.239   7.100  68.810  1.00  0.00    -0.184 C  
HETATM   13  C   UNL     1      -9.715   5.517  72.650  1.00  0.00    -0.170 C  
HETATM   14  C   UNL     1      -9.822   6.092  70.000  1.00  0.00    -0.207 C  
HETATM   15  C   UNL     1     -10.977   6.735  67.741  1.00  0.00    -0.321 C  
HETATM   16  C   UNL     1      -9.849   4.547  69.749  1.00  0.00    -0.295 C  
HETATM   17  C   UNL     1      -9.437   4.084  68.334  1.00  0.00    -0.211 C  
HETATM   18  C   UNL     1      -7.965   3.888  68.046  1.00  0.00    -0.080 C  
HETATM   19  C   UNL     1      -7.199   3.280  69.176  1.00  0.00    -0.049 C  
HETATM   20  C   UNL     1      -7.755   3.361  70.545  1.00  0.00    -0.043 C  
HETATM   21  O   UNL     1      -6.092   2.772  69.001  1.00  0.00    -0.024 OA 
ENDROOT
BRANCH   4  22
HETATM   22  C   UNL     1     -12.760   8.434  71.530  1.00  0.00    -0.330 C  
HETATM   23  C   UNL     1     -13.736   8.681  72.177  1.00  0.00    -0.462 C  
ENDBRANCH   4  22
BRANCH   7  24
HETATM   24  C   UNL     1     -11.179  10.816  70.710  1.00  0.00     0.077 C  
HETATM   25  C   UNL     1     -11.275  11.421  69.312  1.00  0.00    -0.342 C  
ENDBRANCH   7  24
TORSDOF 2
ENDMDL
MODEL       84
REMARK 921   NORMALIZED FREE ENERGY PREDICTED BY IDOCK:   -2.69 KCAL/MOL
REMARK 922        TOTAL FREE ENERGY PREDICTED BY IDOCK:   -3.26 KCAL/MOL
REMARK 923 INTER-LIGAND FREE ENERGY PREDICTED BY IDOCK:   -3.61 KCAL/MOL
REMARK 924 INTRA-LIGAND FREE ENERGY PREDICTED BY IDOCK:    0.35 KCAL/MOL
REMARK 927      BINDING AFFINITY PREDICTED BY RF-SCORE:    0.00 PKD
ROOT
HETATM    1  C   UNL     1      -7.114   7.128  64.150  1.00  0.00    -0.063 C  
HETATM    2  C   UNL     1      -5.885   7.750  64.439  1.00  0.00    -0.041 C  
HETATM    3  C   UNL     1      -6.749   7.364  65.581  1.00  0.00    -0.048 C  
HETATM    4  C   UNL     1      -8.277   6.068  65.114  1.00  0.00    -0.142 C  
HETATM    5  C   UNL     1      -9.308  10.759  63.932  1.00  0.00    -0.284 C  
HETATM    6  O   UNL     1      -9.027   5.137  65.922  1.00  0.00    -0.135 OA 
HETATM    7  C   UNL     1      -7.027   5.819  65.600  1.00  0.00    -0.068 C  
HETATM    8  C   UNL     1      -7.703   6.375  67.279  1.00  0.00    -0.100 C  
HETATM    9  C   UNL     1      -8.536   8.315  64.410  1.00  0.00    -0.022 C  
HETATM   10  C   UNL     1      -9.699  10.890  65.386  1.00  0.00    -0.287 C  
HETATM   11  H   UNL     1      -9.733   4.538  65.707  1.00  0.00     0.000 HD 
HETATM   12  C   UNL     1      -9.062   7.363  67.089  1.00  0.00    -0.146 C  
HETATM   13  C   UNL     1      -8.277   9.651  63.673  1.00  0.00    -0.162 C  
HETATM   14  C   UNL     1      -9.032   8.607  66.060  1.00  0.00    -0.227 C  
HETATM   15  C   UNL     1     -10.190   6.883  67.653  1.00  0.00    -0.235 C  
HETATM   16  C   UNL     1     -10.232   9.611  66.028  1.00  0.00    -0.255 C  
HETATM   17  C   UNL     1     -10.901   9.911  67.388  1.00  0.00    -0.293 C  
HETATM   18  C   UNL     1     -10.299  10.992  68.258  1.00  0.00    -0.197 C  
HETATM   19  C   UNL     1      -9.811  12.184  67.498  1.00  0.00    -0.191 C  
HETATM   20  C   UNL     1      -9.512  12.042  66.056  1.00  0.00    -0.229 C  
HETATM   21  O   UNL     1      -9.593  13.257  68.059  1.00  0.00    -0.207 OA 
ENDROOT
BRANCH   4  22
HETATM   22  C   UNL     1      -8.475   5.295  63.786  1.00  0.00    -0.096 C  
HETATM   23  C   UNL     1      -8.662   4.600  62.829  1.00  0.00    -0.122 C  
ENDBRANCH   4  22
BRANCH   7  24
HETATM   24  C   UNL     1      -6.226   4.538  65.580  1.00  0.00    -0.031 C  
HETATM   25  C   UNL     1      -5.985   4.030  66.998  1.00  0.00    -0.024 C  
ENDBRANCH   7  24
TORSDOF 2
ENDMDL
MODEL       85
REMARK 921   NORMALIZED FREE ENERGY PREDICTED BY IDOCK:   -2.67 KCAL/MOL
REMARK 922        TOTAL FREE ENERGY PREDICTED BY IDOCK:   -3.23 KCAL/MOL
REMARK 923 INTER-LIGAND FREE ENERGY PREDICTED BY IDOCK:   -3.38 KCAL/MOL
REMARK 924 INTRA-LIGAND FREE ENERGY PREDICTED BY IDOCK:    0.15 KCAL/MOL
REMARK 927      BINDING AFFINITY PREDICTED BY RF-SCORE:    0.00 PKD
ROOT
HETATM    1  C   UNL     1      -7.590   8.476  70.637  1.00  0.00    -0.076 C  
HETATM    2  C   UNL     1      -7.894   8.921  71.936  1.00  0.00     0.022 C  
HETATM    3  C   UNL     1      -8.963   8.999  70.912  1.00  0.00    -0.300 C  
HETATM    4  C   UNL     1      -8.604   7.921  69.198  1.00  0.00    -0.138 C  
HETATM    5  C   UNL     1      -6.235  12.263  69.270  1.00  0.00    -0.098 C  
HETATM    6  O   UNL     1      -9.495   7.375  68.201  1.00  0.00    -0.138 OA 
HETATM    7  C   UNL     1      -9.302   7.585  70.320  1.00  0.00    -0.161 C  
HETATM    8  C   UNL     1     -10.697   8.662  69.625  1.00  0.00    -0.204 C  
HETATM    9  C   UNL     1      -7.369   9.923  69.473  1.00  0.00    -0.102 C  
HETATM   10  C   UNL     1      -7.550  12.827  68.784  1.00  0.00    -0.025 C  
HETATM   11  H   UNL     1      -9.329   6.878  67.409  1.00  0.00     0.000 HD 
HETATM   12  C   UNL     1     -10.097   9.794  68.522  1.00  0.00    -0.185 C  
HETATM   13  C   UNL     1      -6.384  10.959  70.068  1.00  0.00    -0.142 C  
HETATM   14  C   UNL     1      -8.822  10.710  68.902  1.00  0.00    -0.160 C  
HETATM   15  C   UNL     1     -10.595   9.683  67.273  1.00  0.00    -0.315 C  
HETATM   16  C   UNL     1      -8.391  11.870  67.943  1.00  0.00    -0.152 C  
HETATM   17  C   UNL     1      -9.539  12.620  67.231  1.00  0.00    -0.203 C  
HETATM   18  C   UNL     1     -10.209  13.762  67.962  1.00  0.00    -0.248 C  
HETATM   19  C   UNL     1      -9.268  14.614  68.753  1.00  0.00    -0.184 C  
HETATM   20  C   UNL     1      -7.954  14.059  69.144  1.00  0.00     0.146 C  
HETATM   21  O   UNL     1      -9.590  15.738  69.136  1.00  0.00    -0.220 OA 
ENDROOT
BRANCH   4  22
HETATM   22  C   UNL     1      -7.477   6.883  68.964  1.00  0.00    -0.095 C  
HETATM   23  C   UNL     1      -6.668   6.047  68.681  1.00  0.00    -0.061 C  
ENDBRANCH   4  22
BRANCH   7  24
HETATM   24  C   UNL     1      -9.691   6.220  70.837  1.00  0.00    -0.197 C  
HETATM   25  C   UNL     1      -8.996   5.927  72.164  1.00  0.00    -0.143 C  
ENDBRANCH   7  24
TORSDOF 2
ENDMDL
MODEL       86
REMARK 921   NORMALIZED FREE ENERGY PREDICTED BY IDOCK:   -2.60 KCAL/MOL
REMARK 922        TOTAL FREE ENERGY PREDICTED BY IDOCK:   -3.16 KCAL/MOL
REMARK 923 INTER-LIGAND FREE ENERGY PREDICTED BY IDOCK:   -2.93 KCAL/MOL
REMARK 924 INTRA-LIGAND FREE ENERGY PREDICTED BY IDOCK:   -0.23 KCAL/MOL
REMARK 927      BINDING AFFINITY PREDICTED BY RF-SCORE:    0.00 PKD
ROOT
HETATM    1  C   UNL     1      -8.769   5.184  67.038  1.00  0.00    -0.103 C  
HETATM    2  C   UNL     1     -10.126   5.555  67.025  1.00  0.00    -0.226 C  
HETATM    3  C   UNL     1      -9.238   6.221  68.008  1.00  0.00    -0.116 C  
HETATM    4  C   UNL     1      -7.225   5.979  67.663  1.00  0.00    -0.076 C  
HETATM    5  C   UNL     1      -9.280   2.057  69.867  1.00  0.00    -0.178 C  
HETATM    6  O   UNL     1      -6.080   6.764  68.061  1.00  0.00    -0.029 OA 
HETATM    7  C   UNL     1      -8.066   6.990  67.301  1.00  0.00    -0.115 C  
HETATM    8  C   UNL     1      -7.921   7.584  69.094  1.00  0.00    -0.121 C  
HETATM    9  C   UNL     1      -8.390   4.101  68.515  1.00  0.00    -0.092 C  
HETATM   10  C   UNL     1      -9.090   2.851  71.139  1.00  0.00    -0.182 C  
HETATM   11  H   UNL     1      -5.150   6.652  67.901  1.00  0.00     0.000 HD 
HETATM   12  C   UNL     1      -7.456   6.321  70.116  1.00  0.00    -0.094 C  
HETATM   13  C   UNL     1      -9.400   2.932  68.611  1.00  0.00    -0.239 C  
HETATM   14  C   UNL     1      -8.222   4.900  70.061  1.00  0.00    -0.073 C  
HETATM   15  C   UNL     1      -6.288   6.518  70.761  1.00  0.00    -0.044 C  
HETATM   16  C   UNL     1      -7.898   3.806  71.132  1.00  0.00    -0.059 C  
HETATM   17  C   UNL     1      -7.592   4.321  72.555  1.00  0.00    -0.079 C  
HETATM   18  C   UNL     1      -8.755   4.582  73.487  1.00  0.00    -0.099 C  
HETATM   19  C   UNL     1      -9.855   3.575  73.384  1.00  0.00    -0.111 C  
HETATM   20  C   UNL     1      -9.965   2.755  72.157  1.00  0.00    -0.238 C  
HETATM   21  O   UNL     1     -10.703   3.459  74.268  1.00  0.00    -0.195 OA 
ENDROOT
BRANCH   4  22
HETATM   22  C   UNL     1      -6.557   5.389  66.394  1.00  0.00    -0.056 C  
HETATM   23  C   UNL     1      -5.957   4.883  65.491  1.00  0.00    -0.022 C  
ENDBRANCH   4  22
BRANCH   7  24
HETATM   24  C   UNL     1      -7.904   8.035  66.223  1.00  0.00    -0.099 C  
HETATM   25  C   UNL     1      -9.231   8.736  65.947  1.00  0.00    -0.282 C  
ENDBRANCH   7  24
TORSDOF 2
ENDMDL
MODEL       87
REMARK 921   NORMALIZED FREE ENERGY PREDICTED BY IDOCK:   -2.43 KCAL/MOL
REMARK 922        TOTAL FREE ENERGY PREDICTED BY IDOCK:   -2.97 KCAL/MOL
REMARK 923 INTER-LIGAND FREE ENERGY PREDICTED BY IDOCK:   -2.93 KCAL/MOL
REMARK 924 INTRA-LIGAND FREE ENERGY PREDICTED BY IDOCK:   -0.03 KCAL/MOL
REMARK 927      BINDING AFFINITY PREDICTED BY RF-SCORE:    0.00 PKD
ROOT
HETATM    1  C   UNL     1      -7.466  10.801  66.373  1.00  0.00    -0.142 C  
HETATM    2  C   UNL     1      -6.075  11.008  66.412  1.00  0.00    -0.141 C  
HETATM    3  C   UNL     1      -6.563   9.680  65.966  1.00  0.00    -0.079 C  
HETATM    4  C   UNL     1      -8.564   9.604  65.497  1.00  0.00    -0.147 C  
HETATM    5  C   UNL     1      -7.723   9.373  70.366  1.00  0.00    -0.163 C  
HETATM    6  O   UNL     1      -9.319   8.711  64.650  1.00  0.00    -0.292 OA 
HETATM    7  C   UNL     1      -7.477   9.796  64.696  1.00  0.00    -0.134 C  
HETATM    8  C   UNL     1      -7.202   7.927  64.831  1.00  0.00    -0.066 C  
HETATM    9  C   UNL     1      -8.016   9.722  67.798  1.00  0.00    -0.101 C  
HETATM   10  C   UNL     1      -7.483   7.903  70.110  1.00  0.00    -0.078 C  
HETATM   11  H   UNL     1     -10.243   8.675  64.433  1.00  0.00     0.000 HD 
HETATM   12  C   UNL     1      -7.946   7.303  66.215  1.00  0.00    -0.110 C  
HETATM   13  C   UNL     1      -7.460  10.259  69.140  1.00  0.00    -0.105 C  
HETATM   14  C   UNL     1      -7.721   8.005  67.652  1.00  0.00    -0.110 C  
HETATM   15  C   UNL     1      -8.895   6.374  65.974  1.00  0.00    -0.160 C  
HETATM   16  C   UNL     1      -8.272   7.313  68.944  1.00  0.00    -0.125 C  
HETATM   17  C   UNL     1      -8.217   5.770  68.961  1.00  0.00    -0.101 C  
HETATM   18  C   UNL     1      -6.935   5.105  69.411  1.00  0.00    -0.055 C  
HETATM   19  C   UNL     1      -6.262   5.791  70.557  1.00  0.00    -0.031 C  
HETATM   20  C   UNL     1      -6.580   7.210  70.830  1.00  0.00    -0.048 C  
HETATM   21  O   UNL     1      -5.408   5.221  71.234  1.00  0.00    -0.004 OA 
ENDROOT
BRANCH   4  22
HETATM   22  C   UNL     1      -9.535  10.802  65.341  1.00  0.00    -0.258 C  
HETATM   23  C   UNL     1     -10.371  11.655  65.273  1.00  0.00    -0.316 C  
ENDBRANCH   4  22
BRANCH   7  24
HETATM   24  C   UNL     1      -7.398  10.396  63.312  1.00  0.00    -0.057 C  
HETATM   25  C   UNL     1      -6.122   9.952  62.603  1.00  0.00    -0.111 C  
ENDBRANCH   7  24
TORSDOF 2
ENDMDL
MODEL       88
REMARK 921   NORMALIZED FREE ENERGY PREDICTED BY IDOCK:   -2.06 KCAL/MOL
REMARK 922        TOTAL FREE ENERGY PREDICTED BY IDOCK:   -2.55 KCAL/MOL
REMARK 923 INTER-LIGAND FREE ENERGY PREDICTED BY IDOCK:   -2.88 KCAL/MOL
REMARK 924 INTRA-LIGAND FREE ENERGY PREDICTED BY IDOCK:    0.33 KCAL/MOL
REMARK 927      BINDING AFFINITY PREDICTED BY RF-SCORE:    0.00 PKD
ROOT
HETATM    1  C   UNL     1      -6.317   4.976  71.431  1.00  0.00    -0.030 C  
HETATM    2  C   UNL     1      -5.234   4.966  70.532  1.00  0.00    -0.004 C  
HETATM    3  C   UNL     1      -6.246   6.040  70.382  1.00  0.00    -0.031 C  
HETATM    4  C   UNL     1      -7.517   6.264  71.983  1.00  0.00    -0.094 C  
HETATM    5  C   UNL     1      -8.806   2.521  69.018  1.00  0.00    -0.150 C  
HETATM    6  O   UNL     1      -8.300   7.388  72.439  1.00  0.00    -0.102 OA 
HETATM    7  C   UNL     1      -6.358   6.915  71.680  1.00  0.00    -0.042 C  
HETATM    8  C   UNL     1      -7.385   7.904  70.433  1.00  0.00    -0.068 C  
HETATM    9  C   UNL     1      -7.880   4.380  70.595  1.00  0.00    -0.056 C  
HETATM   10  C   UNL     1      -9.468   3.595  68.187  1.00  0.00    -0.215 C  
HETATM   11  H   UNL     1      -8.887   7.492  73.179  1.00  0.00     0.000 HD 
HETATM   12  C   UNL     1      -8.783   7.061  69.995  1.00  0.00    -0.142 C  
HETATM   13  C   UNL     1      -7.633   3.037  69.865  1.00  0.00    -0.044 C  
HETATM   14  C   UNL     1      -8.697   5.513  69.543  1.00  0.00    -0.105 C  
HETATM   15  C   UNL     1      -9.938   7.693  70.290  1.00  0.00    -0.189 C  
HETATM   16  C   UNL     1      -9.971   4.803  68.974  1.00  0.00    -0.213 C  
HETATM   17  C   UNL     1     -10.905   5.679  68.110  1.00  0.00    -0.161 C  
HETATM   18  C   UNL     1     -10.590   5.823  66.637  1.00  0.00    -0.347 C  
HETATM   19  C   UNL     1     -10.100   4.565  65.993  1.00  0.00    -0.259 C  
HETATM   20  C   UNL     1      -9.530   3.498  66.845  1.00  0.00    -0.198 C  
HETATM   21  O   UNL     1     -10.104   4.427  64.771  1.00  0.00    -0.162 OA 
ENDROOT
BRANCH   4  22
HETATM   22  C   UNL     1      -7.387   5.607  73.381  1.00  0.00    -0.091 C  
HETATM   23  C   UNL     1      -7.372   5.018  74.423  1.00  0.00    -0.086 C  
ENDBRANCH   4  22
BRANCH   7  24
HETATM   24  C   UNL     1      -5.436   7.705  72.580  1.00  0.00    -0.036 C  
HETATM   25  C   UNL     1      -5.244   9.121  72.046  1.00  0.00    -0.058 C  
ENDBRANCH   7  24
TORSDOF 2
ENDMDL
MODEL       89
REMARK 921   NORMALIZED FREE ENERGY PREDICTED BY IDOCK:   -2.03 KCAL/MOL
REMARK 922        TOTAL FREE ENERGY PREDICTED BY IDOCK:   -2.52 KCAL/MOL
REMARK 923 INTER-LIGAND FREE ENERGY PREDICTED BY IDOCK:   -2.30 KCAL/MOL
REMARK 924 INTRA-LIGAND FREE ENERGY PREDICTED BY IDOCK:   -0.22 KCAL/MOL
REMARK 927      BINDING AFFINITY PREDICTED BY RF-SCORE:    0.00 PKD
ROOT
HETATM    1  C   UNL     1      -6.863   5.381  67.095  1.00  0.00    -0.063 C  
HETATM    2  C   UNL     1      -6.058   4.235  66.967  1.00  0.00    -0.028 C  
HETATM    3  C   UNL     1      -7.375   4.082  67.631  1.00  0.00    -0.068 C  
HETATM    4  C   UNL     1      -8.666   5.661  67.370  1.00  0.00    -0.107 C  
HETATM    5  C   UNL     1      -5.276   6.512  70.870  1.00  0.00    -0.018 C  
HETATM    6  O   UNL     1     -10.106   5.748  67.443  1.00  0.00    -0.143 OA 
HETATM    7  C   UNL     1      -8.554   4.491  66.679  1.00  0.00    -0.111 C  
HETATM    8  C   UNL     1      -9.464   3.688  68.133  1.00  0.00    -0.215 C  
HETATM    9  C   UNL     1      -6.856   6.004  68.859  1.00  0.00    -0.066 C  
HETATM   10  C   UNL     1      -6.213   5.735  71.766  1.00  0.00    -0.040 C  
HETATM   11  H   UNL     1     -10.703   6.477  67.323  1.00  0.00     0.000 HD 
HETATM   12  C   UNL     1      -9.301   4.616  69.538  1.00  0.00    -0.208 C  
HETATM   13  C   UNL     1      -5.407   6.147  69.384  1.00  0.00    -0.012 C  
HETATM   14  C   UNL     1      -7.846   5.137  70.009  1.00  0.00    -0.078 C  
HETATM   15  C   UNL     1     -10.463   5.068  70.052  1.00  0.00    -0.226 C  
HETATM   16  C   UNL     1      -7.692   5.840  71.399  1.00  0.00    -0.107 C  
HETATM   17  C   UNL     1      -8.585   5.296  72.536  1.00  0.00    -0.121 C  
HETATM   18  C   UNL     1      -8.092   4.104  73.325  1.00  0.00    -0.090 C  
HETATM   19  C   UNL     1      -6.623   4.126  73.608  1.00  0.00    -0.051 C  
HETATM   20  C   UNL     1      -5.742   4.960  72.761  1.00  0.00    -0.013 C  
HETATM   21  O   UNL     1      -6.128   3.419  74.485  1.00  0.00    -0.015 OA 
ENDROOT
BRANCH   4  22
HETATM   22  C   UNL     1      -8.503   6.853  66.393  1.00  0.00    -0.130 C  
HETATM   23  C   UNL     1      -8.481   7.734  65.583  1.00  0.00    -0.153 C  
ENDBRANCH   4  22
BRANCH   7  24
HETATM   24  C   UNL     1      -9.045   4.142  65.293  1.00  0.00    -0.140 C  
HETATM   25  C   UNL     1      -8.490   2.793  64.848  1.00  0.00    -0.094 C  
ENDBRANCH   7  24
TORSDOF 2
ENDMDL
MODEL       90
REMARK 921   NORMALIZED FREE ENERGY PREDICTED BY IDOCK:   -1.96 KCAL/MOL
REMARK 922        TOTAL FREE ENERGY PREDICTED BY IDOCK:   -2.44 KCAL/MOL
REMARK 923 INTER-LIGAND FREE ENERGY PREDICTED BY IDOCK:   -2.82 KCAL/MOL
REMARK 924 INTRA-LIGAND FREE ENERGY PREDICTED BY IDOCK:    0.38 KCAL/MOL
REMARK 927      BINDING AFFINITY PREDICTED BY RF-SCORE:    0.00 PKD
ROOT
HETATM    1  C   UNL     1      -6.220  15.886  67.686  1.00  0.00    -0.182 C  
HETATM    2  C   UNL     1      -5.767  15.891  66.354  1.00  0.00     1.757 C  
HETATM    3  C   UNL     1      -7.167  16.306  66.608  1.00  0.00    -0.160 C  
HETATM    4  C   UNL     1      -7.608  16.716  68.574  1.00  0.00    -0.212 C  
HETATM    5  C   UNL     1      -7.604  11.871  67.578  1.00  0.00    -0.140 C  
HETATM    6  O   UNL     1      -8.635  17.531  69.179  1.00  0.00    -0.087 OA 
HETATM    7  C   UNL     1      -7.238  17.551  67.561  1.00  0.00    -0.184 C  
HETATM    8  C   UNL     1      -9.025  17.402  66.952  1.00  0.00    -0.260 C  
HETATM    9  C   UNL     1      -7.356  14.434  67.996  1.00  0.00    -0.148 C  
HETATM   10  C   UNL     1      -9.011  12.117  67.084  1.00  0.00    -0.189 C  
HETATM   11  H   UNL     1      -8.839  17.720  70.088  1.00  0.00     0.000 HD 
HETATM   12  C   UNL     1      -9.750  15.990  67.535  1.00  0.00    -0.228 C  
HETATM   13  C   UNL     1      -6.706  13.115  67.510  1.00  0.00    -0.159 C  
HETATM   14  C   UNL     1      -8.995  14.568  67.402  1.00  0.00    -0.207 C  
HETATM   15  C   UNL     1     -10.837  16.192  68.308  1.00  0.00    -0.326 C  
HETATM   16  C   UNL     1      -9.752  13.253  67.786  1.00  0.00    -0.217 C  
HETATM   17  C   UNL     1     -11.261  13.220  67.454  1.00  0.00    -0.316 C  
HETATM   18  C   UNL     1     -11.678  12.799  66.062  1.00  0.00    -0.470 C  
HETATM   19  C   UNL     1     -10.864  11.682  65.494  1.00  0.00    -0.279 C  
HETATM   20  C   UNL     1      -9.520  11.416  66.054  1.00  0.00    -0.245 C  
HETATM   21  O   UNL     1     -11.260  11.023  64.533  1.00  0.00    -0.129 OA 
ENDROOT
BRANCH   4  22
HETATM   22  C   UNL     1      -6.606  16.858  69.748  1.00  0.00    -0.030 C  
HETATM   23  C   UNL     1      -5.754  17.020  70.573  1.00  0.00    -0.033 C  
ENDBRANCH   4  22
BRANCH   7  24
HETATM   24  C   UNL     1      -6.656  18.944  67.627  1.00  0.00    -0.212 C  
HETATM   25  C   UNL     1      -5.147  18.908  67.408  1.00  0.00    -0.160 C  
ENDBRANCH   7  24
TORSDOF 2
ENDMDL
MODEL       91
REMARK 921   NORMALIZED FREE ENERGY PREDICTED BY IDOCK:   -1.96 KCAL/MOL
REMARK 922        TOTAL FREE ENERGY PREDICTED BY IDOCK:   -2.44 KCAL/MOL
REMARK 923 INTER-LIGAND FREE ENERGY PREDICTED BY IDOCK:   -3.06 KCAL/MOL
REMARK 924 INTRA-LIGAND FREE ENERGY PREDICTED BY IDOCK:    0.62 KCAL/MOL
REMARK 927      BINDING AFFINITY PREDICTED BY RF-SCORE:    0.00 PKD
ROOT
HETATM    1  C   UNL     1      -9.990   5.404  70.235  1.00  0.00    -0.298 C  
HETATM    2  C   UNL     1     -10.815   5.371  69.096  1.00  0.00    -0.044 C  
HETATM    3  C   UNL     1      -9.370   5.638  68.895  1.00  0.00    -0.144 C  
HETATM    4  C   UNL     1      -8.175   5.215  70.514  1.00  0.00    -0.102 C  
HETATM    5  C   UNL     1     -10.493   9.566  70.921  1.00  0.00    -0.382 C  
HETATM    6  O   UNL     1      -6.768   4.909  70.617  1.00  0.00    -0.033 OA 
HETATM    7  C   UNL     1      -8.484   4.456  69.424  1.00  0.00    -0.091 C  
HETATM    8  C   UNL     1      -7.228   5.516  68.484  1.00  0.00    -0.074 C  
HETATM    9  C   UNL     1      -9.516   7.162  70.662  1.00  0.00    -0.161 C  
HETATM   10  C   UNL     1      -9.360  10.088  70.067  1.00  0.00    -0.165 C  
HETATM   11  H   UNL     1      -6.216   4.714  71.365  1.00  0.00     0.000 HD 
HETATM   12  C   UNL     1      -6.997   7.006  69.250  1.00  0.00    -0.074 C  
HETATM   13  C   UNL     1     -10.769   8.069  70.722  1.00  0.00    -0.236 C  
HETATM   14  C   UNL     1      -8.265   7.903  69.692  1.00  0.00    -0.122 C  
HETATM   15  C   UNL     1      -5.734   7.236  69.664  1.00  0.00    -0.023 C  
HETATM   16  C   UNL     1      -8.032   9.352  70.237  1.00  0.00    -0.172 C  
HETATM   17  C   UNL     1      -6.874  10.142  69.588  1.00  0.00    -0.087 C  
HETATM   18  C   UNL     1      -7.153  10.899  68.309  1.00  0.00    -0.075 C  
HETATM   19  C   UNL     1      -8.491  11.565  68.275  1.00  0.00    -0.159 C  
HETATM   20  C   UNL     1      -9.556  11.082  69.181  1.00  0.00    -0.081 C  
HETATM   21  O   UNL     1      -8.742  12.460  67.468  1.00  0.00    -0.161 OA 
ENDROOT
BRANCH   4  22
HETATM   22  C   UNL     1      -8.580   4.453  71.802  1.00  0.00    -0.124 C  
HETATM   23  C   UNL     1      -9.004   3.917  72.785  1.00  0.00    -0.118 C  
ENDBRANCH   4  22
BRANCH   7  24
HETATM   24  C   UNL     1      -8.387   2.959  69.237  1.00  0.00    -0.087 C  
HETATM   25  C   UNL     1      -7.038   2.578  68.635  1.00  0.00    -0.044 C  
ENDBRANCH   7  24
TORSDOF 2
ENDMDL
MODEL       92
REMARK 921   NORMALIZED FREE ENERGY PREDICTED BY IDOCK:   -1.75 KCAL/MOL
REMARK 922        TOTAL FREE ENERGY PREDICTED BY IDOCK:   -2.21 KCAL/MOL
REMARK 923 INTER-LIGAND FREE ENERGY PREDICTED BY IDOCK:   -2.55 KCAL/MOL
REMARK 924 INTRA-LIGAND FREE ENERGY PREDICTED BY IDOCK:    0.35 KCAL/MOL
REMARK 927      BINDING AFFINITY PREDICTED BY RF-SCORE:    0.00 PKD
ROOT
HETATM    1  C   UNL     1      -9.125   9.044  66.572  1.00  0.00    -0.202 C  
HETATM    2  C   UNL     1      -9.785   9.329  65.363  1.00  0.00    -0.170 C  
HETATM    3  C   UNL     1      -8.732  10.271  65.813  1.00  0.00    -0.169 C  
HETATM    4  C   UNL     1      -7.514   9.561  67.310  1.00  0.00    -0.091 C  
HETATM    5  C   UNL     1     -11.864  11.208  68.993  1.00  0.00    -0.418 C  
HETATM    6  O   UNL     1      -6.175   9.922  67.712  1.00  0.00    -0.054 OA 
HETATM    7  C   UNL     1      -7.342   9.559  65.957  1.00  0.00    -0.097 C  
HETATM    8  C   UNL     1      -6.883  11.387  66.138  1.00  0.00     0.146 C  
HETATM    9  C   UNL     1      -9.713  10.183  67.934  1.00  0.00    -0.166 C  
HETATM   10  C   UNL     1     -11.208  12.569  68.938  1.00  0.00    -0.330 C  
HETATM   11  H   UNL     1      -5.613   9.594  68.404  1.00  0.00     0.000 HD 
HETATM   12  C   UNL     1      -7.525  12.037  67.561  1.00  0.00    -0.140 C  
HETATM   13  C   UNL     1     -11.259  10.197  68.008  1.00  0.00    -0.247 C  
HETATM   14  C   UNL     1      -9.080  11.813  67.933  1.00  0.00    -0.181 C  
HETATM   15  C   UNL     1      -6.606  12.509  68.428  1.00  0.00    -0.070 C  
HETATM   16  C   UNL     1      -9.697  12.566  69.158  1.00  0.00     0.480 C  
HETATM   17  C   UNL     1      -9.171  13.997  69.408  1.00  0.00     0.573 C  
HETATM   18  C   UNL     1      -9.816  15.138  68.655  1.00  0.00    -0.218 C  
HETATM   19  C   UNL     1     -11.299  15.009  68.506  1.00  0.00    -0.303 C  
HETATM   20  C   UNL     1     -11.920  13.673  68.645  1.00  0.00    -0.395 C  
HETATM   21  O   UNL     1     -12.000  15.975  68.211  1.00  0.00    -0.163 OA 
ENDROOT
BRANCH   4  22
HETATM   22  C   UNL     1      -7.434   8.107  67.840  1.00  0.00    -0.098 C  
HETATM   23  C   UNL     1      -7.493   6.974  68.223  1.00  0.00    -0.099 C  
ENDBRANCH   4  22
BRANCH   7  24
HETATM   24  C   UNL     1      -6.426   8.709  65.107  1.00  0.00    -0.064 C  
HETATM   25  C   UNL     1      -7.216   7.618  64.389  1.00  0.00    -0.077 C  
ENDBRANCH   7  24
TORSDOF 2
ENDMDL
MODEL       93
REMARK 921   NORMALIZED FREE ENERGY PREDICTED BY IDOCK:   -1.59 KCAL/MOL
REMARK 922        TOTAL FREE ENERGY PREDICTED BY IDOCK:   -2.03 KCAL/MOL
REMARK 923 INTER-LIGAND FREE ENERGY PREDICTED BY IDOCK:   -1.83 KCAL/MOL
REMARK 924 INTRA-LIGAND FREE ENERGY PREDICTED BY IDOCK:   -0.20 KCAL/MOL
REMARK 927      BINDING AFFINITY PREDICTED BY RF-SCORE:    0.00 PKD
ROOT
HETATM    1  C   UNL     1      -7.221   9.495  69.179  1.00  0.00    -0.067 C  
HETATM    2  C   UNL     1      -5.844   9.756  69.063  1.00  0.00    -0.035 C  
HETATM    3  C   UNL     1      -6.661   9.794  67.826  1.00  0.00    -0.068 C  
HETATM    4  C   UNL     1      -8.693   9.865  68.130  1.00  0.00    -0.122 C  
HETATM    5  C   UNL     1      -6.840   5.304  68.602  1.00  0.00    -0.055 C  
HETATM    6  O   UNL     1      -9.774  10.338  67.297  1.00  0.00    -0.159 OA 
HETATM    7  C   UNL     1      -7.798  10.872  67.916  1.00  0.00    -0.109 C  
HETATM    8  C   UNL     1      -7.857  10.369  66.091  1.00  0.00    -0.135 C  
HETATM    9  C   UNL     1      -7.631   7.788  68.535  1.00  0.00    -0.105 C  
HETATM   10  C   UNL     1      -6.945   5.259  67.095  1.00  0.00    -0.065 C  
HETATM   11  H   UNL     1     -10.713  10.371  67.437  1.00  0.00     0.000 HD 
HETATM   12  C   UNL     1      -8.376   8.769  65.918  1.00  0.00    -0.131 C  
HETATM   13  C   UNL     1      -6.697   6.725  69.164  1.00  0.00    -0.056 C  
HETATM   14  C   UNL     1      -7.705   7.593  66.799  1.00  0.00    -0.102 C  
HETATM   15  C   UNL     1      -9.512   8.619  65.206  1.00  0.00     0.195 C  
HETATM   16  C   UNL     1      -8.072   6.101  66.501  1.00  0.00    -0.110 C  
HETATM   17  C   UNL     1      -8.306   5.745  65.016  1.00  0.00    -0.138 C  
HETATM   18  C   UNL     1      -7.105   5.395  64.166  1.00  0.00    -0.049 C  
HETATM   19  C   UNL     1      -6.075   4.575  64.875  1.00  0.00    -0.026 C  
HETATM   20  C   UNL     1      -6.051   4.577  66.355  1.00  0.00    -0.031 C  
HETATM   21  O   UNL     1      -5.214   3.952  64.256  1.00  0.00    -0.008 OA 
ENDROOT
BRANCH   4  22
HETATM   22  C   UNL     1      -9.431  10.111  69.471  1.00  0.00    -0.235 C  
HETATM   23  C   UNL     1     -10.052  10.188  70.491  1.00  0.00     0.044 C  
ENDBRANCH   4  22
BRANCH   7  24
HETATM   24  C   UNL     1      -7.920  12.347  68.220  1.00  0.00    -0.160 C  
HETATM   25  C   UNL     1      -6.550  13.018  68.196  1.00  0.00    -0.103 C  
ENDBRANCH   7  24
TORSDOF 2
ENDMDL
MODEL       94
REMARK 921   NORMALIZED FREE ENERGY PREDICTED BY IDOCK:   -1.56 KCAL/MOL
REMARK 922        TOTAL FREE ENERGY PREDICTED BY IDOCK:   -2.00 KCAL/MOL
REMARK 923 INTER-LIGAND FREE ENERGY PREDICTED BY IDOCK:   -2.50 KCAL/MOL
REMARK 924 INTRA-LIGAND FREE ENERGY PREDICTED BY IDOCK:    0.50 KCAL/MOL
REMARK 927      BINDING AFFINITY PREDICTED BY RF-SCORE:    0.00 PKD
ROOT
HETATM    1  C   UNL     1      -8.271   8.419  68.079  1.00  0.00    -0.127 C  
HETATM    2  C   UNL     1      -6.981   8.578  68.618  1.00  0.00    -0.064 C  
HETATM    3  C   UNL     1      -7.089   8.221  67.183  1.00  0.00    -0.079 C  
HETATM    4  C   UNL     1      -8.962   8.460  66.368  1.00  0.00    -0.171 C  
HETATM    5  C   UNL     1      -8.517   4.271  68.961  1.00  0.00    -0.099 C  
HETATM    6  O   UNL     1      -9.400   8.657  65.007  1.00  0.00    -0.417 OA 
HETATM    7  C   UNL     1      -7.890   9.302  66.376  1.00  0.00    -0.103 C  
HETATM    8  C   UNL     1      -7.180   8.211  65.001  1.00  0.00    -0.076 C  
HETATM    9  C   UNL     1      -8.662   6.609  67.816  1.00  0.00    -0.116 C  
HETATM   10  C   UNL     1      -7.903   3.720  67.694  1.00  0.00    -0.081 C  
HETATM   11  H   UNL     1     -10.265   8.767  64.630  1.00  0.00     0.000 HD 
HETATM   12  C   UNL     1      -7.866   6.667  65.036  1.00  0.00    -0.113 C  
HETATM   13  C   UNL     1      -8.372   5.793  69.099  1.00  0.00    -0.105 C  
HETATM   14  C   UNL     1      -7.945   5.838  66.420  1.00  0.00    -0.102 C  
HETATM   15  C   UNL     1      -8.534   6.321  63.916  1.00  0.00     0.211 C  
HETATM   16  C   UNL     1      -8.420   4.347  66.401  1.00  0.00    -0.112 C  
HETATM   17  C   UNL     1      -7.990   3.515  65.172  1.00  0.00    -0.086 C  
HETATM   18  C   UNL     1      -6.629   2.857  65.194  1.00  0.00    -0.035 C  
HETATM   19  C   UNL     1      -6.246   2.292  66.525  1.00  0.00    -0.024 C  
HETATM   20  C   UNL     1      -6.924   2.797  67.740  1.00  0.00    -0.049 C  
HETATM   21  O   UNL     1      -5.341   1.467  66.635  1.00  0.00    -0.008 OA 
ENDROOT
BRANCH   4  22
HETATM   22  C   UNL     1     -10.179   9.171  67.012  1.00  0.00    -0.333 C  
HETATM   23  C   UNL     1     -11.053   9.725  67.615  1.00  0.00    -0.118 C  
ENDBRANCH   4  22
BRANCH   7  24
HETATM   24  C   UNL     1      -7.840  10.796  66.154  1.00  0.00    -0.155 C  
HETATM   25  C   UNL     1      -7.948  11.543  67.480  1.00  0.00    -0.133 C  
ENDBRANCH   7  24
TORSDOF 2
ENDMDL
MODEL       95
REMARK 921   NORMALIZED FREE ENERGY PREDICTED BY IDOCK:   -1.55 KCAL/MOL
REMARK 922        TOTAL FREE ENERGY PREDICTED BY IDOCK:   -1.98 KCAL/MOL
REMARK 923 INTER-LIGAND FREE ENERGY PREDICTED BY IDOCK:   -2.55 KCAL/MOL
REMARK 924 INTRA-LIGAND FREE ENERGY PREDICTED BY IDOCK:    0.57 KCAL/MOL
REMARK 927      BINDING AFFINITY PREDICTED BY RF-SCORE:    0.00 PKD
ROOT
HETATM    1  C   UNL     1      -8.331   8.416  68.786  1.00  0.00    -0.116 C  
HETATM    2  C   UNL     1      -7.188   8.974  69.389  1.00  0.00    -0.057 C  
HETATM    3  C   UNL     1      -7.048   7.650  68.738  1.00  0.00    -0.080 C  
HETATM    4  C   UNL     1      -8.602   7.121  67.499  1.00  0.00    -0.122 C  
HETATM    5  C   UNL     1      -9.619   6.376  72.282  1.00  0.00    -0.155 C  
HETATM    6  O   UNL     1      -8.676   6.202  66.388  1.00  0.00    -0.128 OA 
HETATM    7  C   UNL     1      -7.407   7.714  67.211  1.00  0.00    -0.091 C  
HETATM    8  C   UNL     1      -6.651   5.985  67.379  1.00  0.00    -0.056 C  
HETATM    9  C   UNL     1      -9.020   7.025  69.828  1.00  0.00    -0.141 C  
HETATM   10  C   UNL     1      -8.868   5.079  72.092  1.00  0.00    -0.137 C  
HETATM   11  H   UNL     1      -9.394   5.958  65.816  1.00  0.00     0.000 HD 
HETATM   12  C   UNL     1      -7.633   4.982  68.322  1.00  0.00    -0.079 C  
HETATM   13  C   UNL     1      -9.198   7.477  71.298  1.00  0.00    -0.155 C  
HETATM   14  C   UNL     1      -8.186   5.490  69.752  1.00  0.00    -0.101 C  
HETATM   15  C   UNL     1      -8.092   3.885  67.686  1.00  0.00    -0.090 C  
HETATM   16  C   UNL     1      -8.943   4.488  70.686  1.00  0.00    -0.155 C  
HETATM   17  C   UNL     1      -8.434   3.030  70.669  1.00  0.00    -0.095 C  
HETATM   18  C   UNL     1      -7.277   2.665  71.574  1.00  0.00    -0.032 C  
HETATM   19  C   UNL     1      -7.325   3.320  72.917  1.00  0.00    -0.050 C  
HETATM   20  C   UNL     1      -8.136   4.546  73.089  1.00  0.00    -0.096 C  
HETATM   21  O   UNL     1      -6.657   2.899  73.860  1.00  0.00    -0.027 OA 
ENDROOT
BRANCH   4  22
HETATM   22  C   UNL     1      -9.757   8.030  67.007  1.00  0.00    -0.275 C  
HETATM   23  C   UNL     1     -10.577   8.829  66.657  1.00  0.00    -0.141 C  
ENDBRANCH   4  22
BRANCH   7  24
HETATM   24  C   UNL     1      -7.002   8.519  65.999  1.00  0.00    -0.068 C  
HETATM   25  C   UNL     1      -7.308   9.999  66.207  1.00  0.00    -0.106 C  
ENDBRANCH   7  24
TORSDOF 2
ENDMDL
MODEL       96
REMARK 921   NORMALIZED FREE ENERGY PREDICTED BY IDOCK:   -0.99 KCAL/MOL
REMARK 922        TOTAL FREE ENERGY PREDICTED BY IDOCK:   -1.36 KCAL/MOL
REMARK 923 INTER-LIGAND FREE ENERGY PREDICTED BY IDOCK:   -1.75 KCAL/MOL
REMARK 924 INTRA-LIGAND FREE ENERGY PREDICTED BY IDOCK:    0.39 KCAL/MOL
REMARK 927      BINDING AFFINITY PREDICTED BY RF-SCORE:    0.00 PKD
ROOT
HETATM    1  C   UNL     1      -9.683  10.105  66.156  1.00  0.00    -0.275 C  
HETATM    2  C   UNL     1     -10.914   9.721  65.592  1.00  0.00     1.220 C  
HETATM    3  C   UNL     1     -10.235   8.756  66.490  1.00  0.00    -0.314 C  
HETATM    4  C   UNL     1      -8.712   9.547  67.623  1.00  0.00    -0.122 C  
HETATM    5  C   UNL     1      -7.334   8.548  62.978  1.00  0.00    -0.099 C  
HETATM    6  O   UNL     1      -8.121   9.123  68.870  1.00  0.00    -0.097 OA 
HETATM    7  C   UNL     1     -10.027   9.351  67.927  1.00  0.00    -0.220 C  
HETATM    8  C   UNL     1      -9.570   7.529  68.171  1.00  0.00    -0.155 C  
HETATM    9  C   UNL     1      -8.264   9.220  65.320  1.00  0.00    -0.136 C  
HETATM   10  C   UNL     1      -7.144   7.139  63.489  1.00  0.00    -0.069 C  
HETATM   11  H   UNL     1      -7.417   9.488  69.393  1.00  0.00     0.000 HD 
HETATM   12  C   UNL     1      -8.158   7.139  67.326  1.00  0.00    -0.115 C  
HETATM   13  C   UNL     1      -8.363   9.358  63.781  1.00  0.00    -0.183 C  
HETATM   14  C   UNL     1      -7.993   7.553  65.774  1.00  0.00    -0.117 C  
HETATM   15  C   UNL     1      -7.141   6.706  68.099  1.00  0.00    -0.083 C  
HETATM   16  C   UNL     1      -6.759   7.032  64.963  1.00  0.00    -0.047 C  
HETATM   17  C   UNL     1      -6.276   5.606  65.308  1.00  0.00    -0.030 C  
HETATM   18  C   UNL     1      -6.949   4.437  64.623  1.00  0.00    -0.050 C  
HETATM   19  C   UNL     1      -7.277   4.681  63.184  1.00  0.00    -0.048 C  
HETATM   20  C   UNL     1      -7.376   6.075  62.697  1.00  0.00    -0.056 C  
HETATM   21  O   UNL     1      -7.526   3.752  62.417  1.00  0.00    -0.043 OA 
ENDROOT
BRANCH   4  22
HETATM   22  C   UNL     1      -8.361  11.046  67.803  1.00  0.00    -0.118 C  
HETATM   23  C   UNL     1      -7.977  12.166  67.979  1.00  0.00    -0.152 C  
ENDBRANCH   4  22
BRANCH   7  24
HETATM   24  C   UNL     1     -10.869   9.991  69.007  1.00  0.00    -0.253 C  
HETATM   25  C   UNL     1     -11.184   8.987  70.111  1.00  0.00    -0.191 C  
ENDBRANCH   7  24
TORSDOF 2
ENDMDL
MODEL       97
REMARK 921   NORMALIZED FREE ENERGY PREDICTED BY IDOCK:   -0.89 KCAL/MOL
REMARK 922        TOTAL FREE ENERGY PREDICTED BY IDOCK:   -1.24 KCAL/MOL
REMARK 923 INTER-LIGAND FREE ENERGY PREDICTED BY IDOCK:   -1.93 KCAL/MOL
REMARK 924 INTRA-LIGAND FREE ENERGY PREDICTED BY IDOCK:    0.69 KCAL/MOL
REMARK 927      BINDING AFFINITY PREDICTED BY RF-SCORE:    0.00 PKD
ROOT
HETATM    1  C   UNL     1     -10.447  18.335  68.122  1.00  0.00    -0.359 C  
HETATM    2  C   UNL     1     -10.393  18.273  69.527  1.00  0.00     0.401 C  
HETATM    3  C   UNL     1      -9.184  17.867  68.771  1.00  0.00    -0.227 C  
HETATM    4  C   UNL     1      -9.174  18.416  66.789  1.00  0.00    -0.293 C  
HETATM    5  C   UNL     1     -11.879  14.365  67.645  1.00  0.00    -0.412 C  
HETATM    6  O   UNL     1      -8.094  18.621  65.853  1.00  0.00    -0.483 OA 
HETATM    7  C   UNL     1      -8.638  19.037  67.879  1.00  0.00    -0.333 C  
HETATM    8  C   UNL     1      -7.246  17.758  67.768  1.00  0.00    -0.207 C  
HETATM    9  C   UNL     1     -10.601  16.623  67.387  1.00  0.00    -0.295 C  
HETATM   10  C   UNL     1     -10.555  13.640  67.576  1.00  0.00    -0.243 C  
HETATM   11  H   UNL     1      -8.089  18.875  64.938  1.00  0.00     0.000 HD 
HETATM   12  C   UNL     1      -7.755  16.378  66.935  1.00  0.00    -0.276 C  
HETATM   13  C   UNL     1     -11.750  15.837  68.063  1.00  0.00    -0.116 C  
HETATM   14  C   UNL     1      -9.146  15.655  67.323  1.00  0.00    -0.217 C  
HETATM   15  C   UNL     1      -7.056  16.108  65.813  1.00  0.00     2.531 C  
HETATM   16  C   UNL     1      -9.513  14.283  66.664  1.00  0.00    -0.302 C  
HETATM   17  C   UNL     1      -8.334  13.320  66.403  1.00  0.00     0.578 C  
HETATM   18  C   UNL     1      -7.887  12.415  67.529  1.00  0.00    -0.169 C  
HETATM   19  C   UNL     1      -9.009  11.860  68.346  1.00  0.00    -0.163 C  
HETATM   20  C   UNL     1     -10.318  12.550  68.329  1.00  0.00    -0.241 C  
HETATM   21  O   UNL     1      -8.848  10.884  69.077  1.00  0.00    -0.158 OA 
ENDROOT
BRANCH   4  22
HETATM   22  C   UNL     1     -10.159  19.381  66.081  1.00  0.00    -0.533 C  
HETATM   23  C   UNL     1     -10.919  20.193  65.638  1.00  0.00    -0.016 C  
ENDBRANCH   4  22
BRANCH   7  24
HETATM   24  C   UNL     1      -8.225  20.480  68.056  1.00  0.00     0.011 C  
HETATM   25  C   UNL     1      -6.868  20.735  67.406  1.00  0.00    -0.411 C  
ENDBRANCH   7  24
TORSDOF 2
ENDMDL
MODEL       98
REMARK 921   NORMALIZED FREE ENERGY PREDICTED BY IDOCK:   -0.85 KCAL/MOL
REMARK 922        TOTAL FREE ENERGY PREDICTED BY IDOCK:   -1.20 KCAL/MOL
REMARK 923 INTER-LIGAND FREE ENERGY PREDICTED BY IDOCK:   -1.99 KCAL/MOL
REMARK 924 INTRA-LIGAND FREE ENERGY PREDICTED BY IDOCK:    0.79 KCAL/MOL
REMARK 927      BINDING AFFINITY PREDICTED BY RF-SCORE:    0.00 PKD
ROOT
HETATM    1  C   UNL     1     -10.312  13.169  66.535  1.00  0.00    -0.284 C  
HETATM    2  C   UNL     1     -10.862  12.069  67.218  1.00  0.00    -0.290 C  
HETATM    3  C   UNL     1     -10.673  13.328  67.977  1.00  0.00    -0.254 C  
HETATM    4  C   UNL     1     -10.312  14.992  66.823  1.00  0.00    -0.270 C  
HETATM    5  C   UNL     1      -6.285  12.192  67.470  1.00  0.00    -0.130 C  
HETATM    6  O   UNL     1     -10.505  16.400  67.079  1.00  0.00    -0.299 OA 
HETATM    7  C   UNL     1     -11.480  14.515  67.342  1.00  0.00    -0.385 C  
HETATM    8  C   UNL     1     -10.905  15.251  68.989  1.00  0.00    -0.244 C  
HETATM    9  C   UNL     1      -8.533  13.443  67.041  1.00  0.00    -0.137 C  
HETATM   10  C   UNL     1      -6.160  12.928  68.784  1.00  0.00    -0.075 C  
HETATM   11  H   UNL     1     -10.338  17.168  66.546  1.00  0.00     0.000 HD 
HETATM   12  C   UNL     1      -9.225  15.438  69.017  1.00  0.00    -0.235 C  
HETATM   13  C   UNL     1      -7.725  12.126  66.940  1.00  0.00    -0.049 C  
HETATM   14  C   UNL     1      -8.258  14.219  68.583  1.00  0.00    -0.139 C  
HETATM   15  C   UNL     1      -8.802  16.710  69.177  1.00  0.00    -0.136 C  
HETATM   16  C   UNL     1      -6.711  14.352  68.782  1.00  0.00    -0.093 C  
HETATM   17  C   UNL     1      -6.255  15.124  70.040  1.00  0.00    -0.152 C  
HETATM   18  C   UNL     1      -6.141  14.366  71.344  1.00  0.00     0.038 C  
HETATM   19  C   UNL     1      -5.594  12.982  71.198  1.00  0.00    -0.120 C  
HETATM   20  C   UNL     1      -5.660  12.320  69.876  1.00  0.00    -0.112 C  
HETATM   21  O   UNL     1      -5.149  12.364  72.164  1.00  0.00    -0.348 OA 
ENDROOT
BRANCH   4  22
HETATM   22  C   UNL     1     -10.443  15.109  65.283  1.00  0.00    -0.434 C  
HETATM   23  C   UNL     1     -10.663  15.234  64.113  1.00  0.00     0.847 C  
ENDBRANCH   4  22
BRANCH   7  24
HETATM   24  C   UNL     1     -12.904  14.804  66.927  1.00  0.00     1.279 C  
HETATM   25  C   UNL     1     -13.271  14.018  65.672  1.00  0.00     0.034 C  
ENDBRANCH   7  24
TORSDOF 2
ENDMDL
MODEL       99
REMARK 921   NORMALIZED FREE ENERGY PREDICTED BY IDOCK:   -0.79 KCAL/MOL
REMARK 922        TOTAL FREE ENERGY PREDICTED BY IDOCK:   -1.13 KCAL/MOL
REMARK 923 INTER-LIGAND FREE ENERGY PREDICTED BY IDOCK:   -1.62 KCAL/MOL
REMARK 924 INTRA-LIGAND FREE ENERGY PREDICTED BY IDOCK:    0.49 KCAL/MOL
REMARK 927      BINDING AFFINITY PREDICTED BY RF-SCORE:    0.00 PKD
ROOT
HETATM    1  C   UNL     1      -9.531  14.420  67.818  1.00  0.00    -0.211 C  
HETATM    2  C   UNL     1      -9.558  14.539  66.416  1.00  0.00    -0.324 C  
HETATM    3  C   UNL     1     -10.228  13.363  67.022  1.00  0.00    -0.249 C  
HETATM    4  C   UNL     1     -10.548  13.495  69.049  1.00  0.00    -0.098 C  
HETATM    5  C   UNL     1      -5.911  12.199  67.917  1.00  0.00    -0.069 C  
HETATM    6  O   UNL     1     -11.501  12.843  69.917  1.00  0.00    -0.484 OA 
HETATM    7  C   UNL     1     -11.374  13.793  68.005  1.00  0.00    -0.318 C  
HETATM    8  C   UNL     1     -11.649  11.925  67.852  1.00  0.00    -0.393 C  
HETATM    9  C   UNL     1      -8.321  13.096  68.349  1.00  0.00    -0.122 C  
HETATM   10  C   UNL     1      -6.482  10.805  67.795  1.00  0.00    -0.059 C  
HETATM   11  H   UNL     1     -11.648  12.904  70.853  1.00  0.00     0.000 HD 
HETATM   12  C   UNL     1     -10.370  11.065  68.547  1.00  0.00    -0.204 C  
HETATM   13  C   UNL     1      -6.945  13.308  67.673  1.00  0.00    -0.164 C  
HETATM   14  C   UNL     1      -8.841  11.435  68.183  1.00  0.00    -0.162 C  
HETATM   15  C   UNL     1     -10.724  10.260  69.571  1.00  0.00    -0.280 C  
HETATM   16  C   UNL     1      -7.681  10.518  68.696  1.00  0.00    -0.106 C  
HETATM   17  C   UNL     1      -7.987   9.004  68.746  1.00  0.00    -0.101 C  
HETATM   18  C   UNL     1      -7.783   8.191  67.487  1.00  0.00    -0.102 C  
HETATM   19  C   UNL     1      -6.576   8.584  66.697  1.00  0.00    -0.060 C  
HETATM   20  C   UNL     1      -5.993   9.929  66.898  1.00  0.00    -0.055 C  
HETATM   21  O   UNL     1      -6.099   7.839  65.842  1.00  0.00    -0.038 OA 
ENDROOT
BRANCH   4  22
HETATM   22  C   UNL     1     -10.379  14.750  69.944  1.00  0.00     0.017 C  
HETATM   23  C   UNL     1     -10.291  15.650  70.728  1.00  0.00     0.254 C  
ENDBRANCH   4  22
BRANCH   7  24
HETATM   24  C   UNL     1     -12.606  14.667  67.973  1.00  0.00     0.580 C  
HETATM   25  C   UNL     1     -12.222  16.136  67.826  1.00  0.00     1.124 C  
ENDBRANCH   7  24
TORSDOF 2
ENDMDL
MODEL      100
REMARK 921   NORMALIZED FREE ENERGY PREDICTED BY IDOCK:   -0.75 KCAL/MOL
REMARK 922        TOTAL FREE ENERGY PREDICTED BY IDOCK:   -1.09 KCAL/MOL
REMARK 923 INTER-LIGAND FREE ENERGY PREDICTED BY IDOCK:   -1.82 KCAL/MOL
REMARK 924 INTRA-LIGAND FREE ENERGY PREDICTED BY IDOCK:    0.72 KCAL/MOL
REMARK 927      BINDING AFFINITY PREDICTED BY RF-SCORE:    0.00 PKD
ROOT
HETATM    1  C   UNL     1      -7.247   8.776  70.831  1.00  0.00    -0.083 C  
HETATM    2  C   UNL     1      -8.046   9.597  71.647  1.00  0.00     1.205 C  
HETATM    3  C   UNL     1      -8.719   8.825  70.575  1.00  0.00    -0.196 C  
HETATM    4  C   UNL     1      -7.587   7.323  69.745  1.00  0.00    -0.098 C  
HETATM    5  C   UNL     1      -6.469  11.791  67.941  1.00  0.00    -0.068 C  
HETATM    6  O   UNL     1      -7.955   6.114  69.047  1.00  0.00    -0.105 OA 
HETATM    7  C   UNL     1      -8.505   7.281  70.753  1.00  0.00    -0.132 C  
HETATM    8  C   UNL     1      -9.819   7.354  69.391  1.00  0.00    -0.168 C  
HETATM    9  C   UNL     1      -7.018   9.540  69.140  1.00  0.00    -0.057 C  
HETATM   10  C   UNL     1      -7.656  11.563  67.033  1.00  0.00    -0.154 C  
HETATM   11  H   UNL     1      -7.432   5.420  68.663  1.00  0.00     0.000 HD 
HETATM   12  C   UNL     1      -9.186   8.024  67.973  1.00  0.00    -0.139 C  
HETATM   13  C   UNL     1      -6.551  11.012  69.262  1.00  0.00    -0.091 C  
HETATM   14  C   UNL     1      -8.356   9.409  68.022  1.00  0.00    -0.119 C  
HETATM   15  C   UNL     1      -9.219   7.207  66.900  1.00  0.00    -0.174 C  
HETATM   16  C   UNL     1      -7.931  10.102  66.685  1.00  0.00    -0.116 C  
HETATM   17  C   UNL     1      -8.936   9.991  65.516  1.00  0.00    -0.206 C  
HETATM   18  C   UNL     1     -10.056  11.004  65.436  1.00  0.00    -0.326 C  
HETATM   19  C   UNL     1      -9.648  12.393  65.811  1.00  0.00    -0.156 C  
HETATM   20  C   UNL     1      -8.435  12.587  66.636  1.00  0.00    -0.006 C  
HETATM   21  O   UNL     1     -10.333  13.368  65.503  1.00  0.00    -0.283 OA 
ENDROOT
BRANCH   4  22
HETATM   22  C   UNL     1      -6.231   6.778  70.263  1.00  0.00    -0.031 C  
HETATM   23  C   UNL     1      -5.200   6.262  70.584  1.00  0.00    -0.014 C  
ENDBRANCH   4  22
BRANCH   7  24
HETATM   24  C   UNL     1      -8.701   6.240  71.831  1.00  0.00    -0.136 C  
HETATM   25  C   UNL     1      -8.925   4.862  71.216  1.00  0.00    -0.163 C  
ENDBRANCH   7  24
TORSDOF 2
ENDMDL
MODEL      101
REMARK 921   NORMALIZED FREE ENERGY PREDICTED BY IDOCK:   -0.73 KCAL/MOL
REMARK 922        TOTAL FREE ENERGY PREDICTED BY IDOCK:   -1.07 KCAL/MOL
REMARK 923 INTER-LIGAND FREE ENERGY PREDICTED BY IDOCK:   -1.63 KCAL/MOL
REMARK 924 INTRA-LIGAND FREE ENERGY PREDICTED BY IDOCK:    0.56 KCAL/MOL
REMARK 927      BINDING AFFINITY PREDICTED BY RF-SCORE:    0.00 PKD
ROOT
HETATM    1  C   UNL     1      -6.675   4.442  70.654  1.00  0.00    -0.036 C  
HETATM    2  C   UNL     1      -5.269   4.416  70.602  1.00  0.00     0.000 C  
HETATM    3  C   UNL     1      -5.975   5.385  69.728  1.00  0.00    -0.017 C  
HETATM    4  C   UNL     1      -7.956   5.687  70.190  1.00  0.00    -0.099 C  
HETATM    5  C   UNL     1      -7.200   1.548  67.590  1.00  0.00    -0.042 C  
HETATM    6  O   UNL     1      -8.847   6.792  69.924  1.00  0.00    -0.140 OA 
HETATM    7  C   UNL     1      -6.846   6.388  70.562  1.00  0.00    -0.062 C  
HETATM    8  C   UNL     1      -6.897   7.149  68.829  1.00  0.00    -0.076 C  
HETATM    9  C   UNL     1      -7.412   3.638  69.135  1.00  0.00    -0.053 C  
HETATM   10  C   UNL     1      -7.214   2.468  66.391  1.00  0.00    -0.065 C  
HETATM   11  H   UNL     1      -9.762   6.932  70.137  1.00  0.00     0.000 HD 
HETATM   12  C   UNL     1      -7.746   6.157  67.755  1.00  0.00    -0.098 C  
HETATM   13  C   UNL     1      -6.781   2.245  68.892  1.00  0.00    -0.033 C  
HETATM   14  C   UNL     1      -7.414   4.579  67.662  1.00  0.00    -0.074 C  
HETATM   15  C   UNL     1      -8.838   6.727  67.205  1.00  0.00    -0.118 C  
HETATM   16  C   UNL     1      -8.084   3.714  66.543  1.00  0.00    -0.096 C  
HETATM   17  C   UNL     1      -8.294   4.413  65.182  1.00  0.00    -0.116 C  
HETATM   18  C   UNL     1      -7.148   4.415  64.194  1.00  0.00    -0.046 C  
HETATM   19  C   UNL     1      -6.376   3.135  64.154  1.00  0.00    -0.023 C  
HETATM   20  C   UNL     1      -6.448   2.217  65.313  1.00  0.00    -0.024 C  
HETATM   21  O   UNL     1      -5.636   2.862  63.210  1.00  0.00    -0.008 OA 
ENDROOT
BRANCH   4  22
HETATM   22  C   UNL     1      -8.706   5.202  71.456  1.00  0.00    -0.141 C  
HETATM   23  C   UNL     1      -9.182   4.766  72.464  1.00  0.00    -0.146 C  
ENDBRANCH   4  22
BRANCH   7  24
HETATM   24  C   UNL     1      -6.656   7.342  71.719  1.00  0.00    -0.043 C  
HETATM   25  C   UNL     1      -6.684   8.789  71.234  1.00  0.00    -0.078 C  
ENDBRANCH   7  24
TORSDOF 2
ENDMDL
MODEL      102
REMARK 921   NORMALIZED FREE ENERGY PREDICTED BY IDOCK:   -0.69 KCAL/MOL
REMARK 922        TOTAL FREE ENERGY PREDICTED BY IDOCK:   -1.03 KCAL/MOL
REMARK 923 INTER-LIGAND FREE ENERGY PREDICTED BY IDOCK:   -1.73 KCAL/MOL
REMARK 924 INTRA-LIGAND FREE ENERGY PREDICTED BY IDOCK:    0.70 KCAL/MOL
REMARK 927      BINDING AFFINITY PREDICTED BY RF-SCORE:    0.00 PKD
ROOT
HETATM    1  C   UNL     1     -10.296  15.330  66.295  1.00  0.00    -0.303 C  
HETATM    2  C   UNL     1     -11.681  15.090  66.346  1.00  0.00    -0.110 C  
HETATM    3  C   UNL     1     -10.915  14.982  67.611  1.00  0.00    -0.305 C  
HETATM    4  C   UNL     1      -9.024  15.787  67.552  1.00  0.00    -0.194 C  
HETATM    5  C   UNL     1      -9.260  11.285  65.516  1.00  0.00    -0.220 C  
HETATM    6  O   UNL     1      -8.156  16.281  68.595  1.00  0.00    -0.188 OA 
HETATM    7  C   UNL     1     -10.201  16.332  67.972  1.00  0.00    -0.256 C  
HETATM    8  C   UNL     1      -9.966  15.313  69.551  1.00  0.00    -0.247 C  
HETATM    9  C   UNL     1      -9.339  13.729  66.423  1.00  0.00    -0.215 C  
HETATM   10  C   UNL     1      -9.137  10.791  66.939  1.00  0.00    -0.160 C  
HETATM   11  H   UNL     1      -7.282  16.653  68.568  1.00  0.00     0.000 HD 
HETATM   12  C   UNL     1      -8.945  13.994  69.275  1.00  0.00     0.438 C  
HETATM   13  C   UNL     1      -9.871  12.689  65.406  1.00  0.00    -0.157 C  
HETATM   14  C   UNL     1      -9.192  13.017  68.013  1.00  0.00    -0.212 C  
HETATM   15  C   UNL     1      -7.819  13.988  70.018  1.00  0.00     1.101 C  
HETATM   16  C   UNL     1      -8.349  11.706  67.874  1.00  0.00    -0.143 C  
HETATM   17  C   UNL     1      -8.000  10.983  69.194  1.00  0.00    -0.081 C  
HETATM   18  C   UNL     1      -9.011  10.016  69.769  1.00  0.00    -0.209 C  
HETATM   19  C   UNL     1      -9.715   9.188  68.741  1.00  0.00    -0.162 C  
HETATM   20  C   UNL     1      -9.749   9.661  67.339  1.00  0.00    -0.198 C  
HETATM   21  O   UNL     1     -10.316   8.160  69.048  1.00  0.00    -0.214 OA 
ENDROOT
BRANCH   4  22
HETATM   22  C   UNL     1      -8.418  16.672  66.433  1.00  0.00    -0.348 C  
HETATM   23  C   UNL     1      -8.038  17.311  65.495  1.00  0.00     0.949 C  
ENDBRANCH   4  22
BRANCH   7  24
HETATM   24  C   UNL     1     -10.578  17.784  68.150  1.00  0.00    -0.350 C  
HETATM   25  C   UNL     1      -9.992  18.338  69.445  1.00  0.00     0.055 C  
ENDBRANCH   7  24
TORSDOF 2
ENDMDL
MODEL      103
REMARK 921   NORMALIZED FREE ENERGY PREDICTED BY IDOCK:   -0.44 KCAL/MOL
REMARK 922        TOTAL FREE ENERGY PREDICTED BY IDOCK:   -0.74 KCAL/MOL
REMARK 923 INTER-LIGAND FREE ENERGY PREDICTED BY IDOCK:   -0.62 KCAL/MOL
REMARK 924 INTRA-LIGAND FREE ENERGY PREDICTED BY IDOCK:   -0.12 KCAL/MOL
REMARK 927      BINDING AFFINITY PREDICTED BY RF-SCORE:    0.00 PKD
ROOT
HETATM    1  C   UNL     1      -7.509   8.578  69.550  1.00  0.00    -0.080 C  
HETATM    2  C   UNL     1      -7.036   7.617  68.639  1.00  0.00    -0.075 C  
HETATM    3  C   UNL     1      -8.276   7.305  69.388  1.00  0.00    -0.131 C  
HETATM    4  C   UNL     1      -9.148   8.911  70.331  1.00  0.00    -0.190 C  
HETATM    5  C   UNL     1      -5.325   7.046  72.855  1.00  0.00    -0.038 C  
HETATM    6  O   UNL     1     -10.505   9.153  70.762  1.00  0.00    -0.217 OA 
HETATM    7  C   UNL     1      -9.402   8.362  69.109  1.00  0.00    -0.151 C  
HETATM    8  C   UNL     1     -10.338   7.010  70.050  1.00  0.00    -0.217 C  
HETATM    9  C   UNL     1      -7.172   8.048  71.311  1.00  0.00    -0.062 C  
HETATM   10  C   UNL     1      -6.334   6.043  73.365  1.00  0.00    -0.064 C  
HETATM   11  H   UNL     1     -10.908   9.895  71.198  1.00  0.00     0.000 HD 
HETATM   12  C   UNL     1      -9.808   6.908  71.652  1.00  0.00    -0.173 C  
HETATM   13  C   UNL     1      -5.689   7.639  71.486  1.00  0.00    -0.035 C  
HETATM   14  C   UNL     1      -8.231   6.833  71.989  1.00  0.00    -0.104 C  
HETATM   15  C   UNL     1     -10.762   7.144  72.576  1.00  0.00    -0.285 C  
HETATM   16  C   UNL     1      -7.768   6.562  73.460  1.00  0.00    -0.091 C  
HETATM   17  C   UNL     1      -8.652   5.599  74.282  1.00  0.00    -0.112 C  
HETATM   18  C   UNL     1      -8.400   4.113  74.157  1.00  0.00    -0.094 C  
HETATM   19  C   UNL     1      -6.953   3.746  74.065  1.00  0.00    -0.051 C  
HETATM   20  C   UNL     1      -5.978   4.774  73.639  1.00  0.00    -0.025 C  
HETATM   21  O   UNL     1      -6.568   2.597  74.275  1.00  0.00    -0.026 OA 
ENDROOT
BRANCH   4  22
HETATM   22  C   UNL     1      -8.787  10.408  70.156  1.00  0.00     0.438 C  
HETATM   23  C   UNL     1      -8.442  11.530  69.921  1.00  0.00     1.741 C  
ENDBRANCH   4  22
BRANCH   7  24
HETATM   24  C   UNL     1     -10.100   8.964  67.912  1.00  0.00    -0.255 C  
HETATM   25  C   UNL     1      -9.948   8.063  66.690  1.00  0.00    -0.326 C  
ENDBRANCH   7  24
TORSDOF 2
ENDMDL
MODEL      104
REMARK 921   NORMALIZED FREE ENERGY PREDICTED BY IDOCK:   -0.41 KCAL/MOL
REMARK 922        TOTAL FREE ENERGY PREDICTED BY IDOCK:   -0.71 KCAL/MOL
REMARK 923 INTER-LIGAND FREE ENERGY PREDICTED BY IDOCK:   -1.82 KCAL/MOL
REMARK 924 INTRA-LIGAND FREE ENERGY PREDICTED BY IDOCK:    1.11 KCAL/MOL
REMARK 927      BINDING AFFINITY PREDICTED BY RF-SCORE:    0.00 PKD
ROOT
HETATM    1  C   UNL     1     -11.394  15.196  69.403  1.00  0.00    -0.307 C  
HETATM    2  C   UNL     1     -11.963  15.568  68.171  1.00  0.00    -0.007 C  
HETATM    3  C   UNL     1     -12.266  14.213  68.691  1.00  0.00    -0.216 C  
HETATM    4  C   UNL     1     -11.796  13.916  70.670  1.00  0.00    -0.218 C  
HETATM    5  C   UNL     1      -7.863  13.570  67.690  1.00  0.00    -0.178 C  
HETATM    6  O   UNL     1     -12.296  12.978  71.647  1.00  0.00    -0.127 OA 
HETATM    7  C   UNL     1     -12.976  14.274  70.088  1.00  0.00     0.012 C  
HETATM    8  C   UNL     1     -13.156  12.447  69.621  1.00  0.00     1.491 C  
HETATM    9  C   UNL     1      -9.983  13.996  69.149  1.00  0.00     0.063 C  
HETATM   10  C   UNL     1      -8.337  12.153  67.465  1.00  0.00    -0.166 C  
HETATM   11  H   UNL     1     -12.079  12.840  72.562  1.00  0.00     0.000 HD 
HETATM   12  C   UNL     1     -11.651  11.676  69.596  1.00  0.00    -0.401 C  
HETATM   13  C   UNL     1      -8.988  14.536  68.092  1.00  0.00    -0.182 C  
HETATM   14  C   UNL     1     -10.408  12.335  68.804  1.00  0.00    -0.156 C  
HETATM   15  C   UNL     1     -11.529  10.652  70.465  1.00  0.00    -0.407 C  
HETATM   16  C   UNL     1      -9.078  11.525  68.644  1.00  0.00    -0.124 C  
HETATM   17  C   UNL     1      -9.233  10.000  68.452  1.00  0.00    -0.131 C  
HETATM   18  C   UNL     1      -9.469   9.476  67.053  1.00  0.00    -0.197 C  
HETATM   19  C   UNL     1      -8.686  10.186  65.996  1.00  0.00    -0.140 C  
HETATM   20  C   UNL     1      -8.167  11.543  66.278  1.00  0.00    -0.044 C  
HETATM   21  O   UNL     1      -8.520   9.694  64.881  1.00  0.00    -0.132 OA 
ENDROOT
BRANCH   4  22
HETATM   22  C   UNL     1     -11.387  14.994  71.707  1.00  0.00    -0.302 C  
HETATM   23  C   UNL     1     -11.185  15.875  72.492  1.00  0.00     0.226 C  
ENDBRANCH   4  22
BRANCH   7  24
HETATM   24  C   UNL     1     -14.186  14.941  70.701  1.00  0.00     0.423 C  
HETATM   25  C   UNL     1     -14.407  14.452  72.129  1.00  0.00    -0.604 C  
ENDBRANCH   7  24
TORSDOF 2
ENDMDL
MODEL      105
REMARK 921   NORMALIZED FREE ENERGY PREDICTED BY IDOCK:    0.63 KCAL/MOL
REMARK 922        TOTAL FREE ENERGY PREDICTED BY IDOCK:    0.46 KCAL/MOL
REMARK 923 INTER-LIGAND FREE ENERGY PREDICTED BY IDOCK:   -1.37 KCAL/MOL
REMARK 924 INTRA-LIGAND FREE ENERGY PREDICTED BY IDOCK:    1.83 KCAL/MOL
REMARK 927      BINDING AFFINITY PREDICTED BY RF-SCORE:    0.00 PKD
ROOT
HETATM    1  C   UNL     1      -7.176   5.756  65.046  1.00  0.00    -0.066 C  
HETATM    2  C   UNL     1      -8.129   4.842  64.561  1.00  0.00    -0.109 C  
HETATM    3  C   UNL     1      -8.545   5.761  65.647  1.00  0.00    -0.151 C  
HETATM    4  C   UNL     1      -7.278   7.348  65.974  1.00  0.00    -0.070 C  
HETATM    5  C   UNL     1      -5.678   3.153  68.049  1.00  0.00    -0.019 C  
HETATM    6  O   UNL     1      -7.496   8.645  66.570  1.00  0.00    -0.086 OA 
HETATM    7  C   UNL     1      -8.409   7.264  65.216  1.00  0.00    -0.110 C  
HETATM    8  C   UNL     1      -9.362   7.393  66.848  1.00  0.00    -0.195 C  
HETATM    9  C   UNL     1      -6.538   5.226  66.722  1.00  0.00    -0.052 C  
HETATM   10  C   UNL     1      -6.620   3.517  69.173  1.00  0.00    -0.034 C  
HETATM   11  H   UNL     1      -6.911   9.378  66.722  1.00  0.00     0.000 HD 
HETATM   12  C   UNL     1      -8.400   6.914  68.153  1.00  0.00    -0.118 C  
HETATM   13  C   UNL     1      -6.085   3.746  66.692  1.00  0.00    -0.024 C  
HETATM   14  C   UNL     1      -7.577   5.526  68.096  1.00  0.00    -0.081 C  
HETATM   15  C   UNL     1      -8.194   7.870  69.082  1.00  0.00    -0.132 C  
HETATM   16  C   UNL     1      -6.835   5.015  69.376  1.00  0.00    -0.053 C  
HETATM   17  C   UNL     1      -7.537   5.297  70.723  1.00  0.00    -0.083 C  
HETATM   18  C   UNL     1      -8.586   4.318  71.202  1.00  0.00    -0.118 C  
HETATM   19  C   UNL     1      -8.251   2.886  70.932  1.00  0.00    -0.053 C  
HETATM   20  C   UNL     1      -7.263   2.566  69.878  1.00  0.00    -0.040 C  
HETATM   21  O   UNL     1      -8.823   1.971  71.522  1.00  0.00    -0.062 OA 
ENDROOT
BRANCH   4  22
HETATM   22  C   UNL     1      -6.094   7.800  65.082  1.00  0.00    -0.038 C  
HETATM   23  C   UNL     1      -5.245   8.252  64.370  1.00  0.00    -0.036 C  
ENDBRANCH   4  22
BRANCH   7  24
HETATM   24  C   UNL     1      -8.875   8.151  64.085  1.00  0.00     0.492 C  
HETATM   25  C   UNL     1      -7.732   8.432  63.114  1.00  0.00    -0.136 C  
ENDBRANCH   7  24
TORSDOF 2
ENDMDL
MODEL      106
REMARK 921   NORMALIZED FREE ENERGY PREDICTED BY IDOCK:    0.83 KCAL/MOL
REMARK 922        TOTAL FREE ENERGY PREDICTED BY IDOCK:    0.68 KCAL/MOL
REMARK 923 INTER-LIGAND FREE ENERGY PREDICTED BY IDOCK:   -0.32 KCAL/MOL
REMARK 924 INTRA-LIGAND FREE ENERGY PREDICTED BY IDOCK:    1.00 KCAL/MOL
REMARK 927      BINDING AFFINITY PREDICTED BY RF-SCORE:    0.00 PKD
ROOT
HETATM    1  C   UNL     1     -10.228   5.529  68.584  1.00  0.00    -0.261 C  
HETATM    2  C   UNL     1     -11.488   6.154  68.557  1.00  0.00     0.197 C  
HETATM    3  C   UNL     1     -10.507   6.534  67.512  1.00  0.00    -0.297 C  
HETATM    4  C   UNL     1      -8.896   5.269  67.333  1.00  0.00    -0.105 C  
HETATM    5  C   UNL     1      -8.433   8.446  71.095  1.00  0.00    -0.178 C  
HETATM    6  O   UNL     1      -7.997   5.006  66.234  1.00  0.00    -0.105 OA 
HETATM    7  C   UNL     1     -10.075   5.298  66.648  1.00  0.00    -0.259 C  
HETATM    8  C   UNL     1      -9.334   6.749  65.682  1.00  0.00     0.255 C  
HETATM    9  C   UNL     1      -8.917   6.701  69.219  1.00  0.00    -0.135 C  
HETATM   10  C   UNL     1      -7.949   9.409  70.036  1.00  0.00    -0.142 C  
HETATM   11  H   UNL     1      -7.253   4.422  66.151  1.00  0.00     0.000 HD 
HETATM   12  C   UNL     1      -8.099   7.496  66.562  1.00  0.00    -0.120 C  
HETATM   13  C   UNL     1      -9.364   7.353  70.550  1.00  0.00    -0.157 C  
HETATM   14  C   UNL     1      -8.331   7.914  68.105  1.00  0.00    -0.124 C  
HETATM   15  C   UNL     1      -6.890   7.475  65.964  1.00  0.00    -0.057 C  
HETATM   16  C   UNL     1      -7.244   8.760  68.847  1.00  0.00    -0.074 C  
HETATM   17  C   UNL     1      -6.509   9.817  67.994  1.00  0.00    -0.056 C  
HETATM   18  C   UNL     1      -7.149  11.178  67.833  1.00  0.00    -0.081 C  
HETATM   19  C   UNL     1      -7.811  11.690  69.072  1.00  0.00     0.032 C  
HETATM   20  C   UNL     1      -8.201  10.728  70.127  1.00  0.00     0.961 C  
HETATM   21  O   UNL     1      -8.093  12.880  69.204  1.00  0.00     0.264 OA 
ENDROOT
BRANCH   4  22
HETATM   22  C   UNL     1      -8.720   3.877  67.994  1.00  0.00    -0.122 C  
HETATM   23  C   UNL     1      -8.474   2.843  68.544  1.00  0.00    -0.093 C  
ENDBRANCH   4  22
BRANCH   7  24
HETATM   24  C   UNL     1     -10.742   4.211  65.837  1.00  0.00     0.429 C  
HETATM   25  C   UNL     1      -9.701   3.359  65.117  1.00  0.00    -0.093 C  
ENDBRANCH   7  24
TORSDOF 2
ENDMDL
MODEL      107
REMARK 921   NORMALIZED FREE ENERGY PREDICTED BY IDOCK:    1.02 KCAL/MOL
REMARK 922        TOTAL FREE ENERGY PREDICTED BY IDOCK:    0.88 KCAL/MOL
REMARK 923 INTER-LIGAND FREE ENERGY PREDICTED BY IDOCK:   -0.35 KCAL/MOL
REMARK 924 INTRA-LIGAND FREE ENERGY PREDICTED BY IDOCK:    1.24 KCAL/MOL
REMARK 927      BINDING AFFINITY PREDICTED BY RF-SCORE:    0.00 PKD
ROOT
HETATM    1  C   UNL     1      -9.535  11.135  67.106  1.00  0.00    -0.187 C  
HETATM    2  C   UNL     1      -9.966  10.285  66.071  1.00  0.00    -0.308 C  
HETATM    3  C   UNL     1     -10.214   9.852  67.467  1.00  0.00    -0.265 C  
HETATM    4  C   UNL     1      -9.987  11.324  68.885  1.00  0.00    -0.155 C  
HETATM    5  C   UNL     1      -5.677   9.386  67.423  1.00  0.00    -0.041 C  
HETATM    6  O   UNL     1     -10.527  11.468  70.217  1.00  0.00     0.267 OA 
HETATM    7  C   UNL     1     -11.106  10.884  68.243  1.00  0.00    -0.324 C  
HETATM    8  C   UNL     1     -11.059   9.411  69.433  1.00  0.00    -0.098 C  
HETATM    9  C   UNL     1      -8.002  10.454  67.931  1.00  0.00    -0.102 C  
HETATM   10  C   UNL     1      -5.989   8.299  68.426  1.00  0.00    -0.041 C  
HETATM   11  H   UNL     1     -10.422  12.148  70.872  1.00  0.00     0.000 HD 
HETATM   12  C   UNL     1      -9.502   9.179  70.050  1.00  0.00    -0.218 C  
HETATM   13  C   UNL     1      -6.927  10.092  66.877  1.00  0.00    -0.089 C  
HETATM   14  C   UNL     1      -8.227   9.137  69.059  1.00  0.00    -0.115 C  
HETATM   15  C   UNL     1      -9.406   9.287  71.391  1.00  0.00    -0.137 C  
HETATM   16  C   UNL     1      -6.821   8.747  69.625  1.00  0.00    -0.046 C  
HETATM   17  C   UNL     1      -6.813   7.674  70.737  1.00  0.00    -0.043 C  
HETATM   18  C   UNL     1      -6.813   6.218  70.326  1.00  0.00    -0.054 C  
HETATM   19  C   UNL     1      -5.963   5.922  69.133  1.00  0.00    -0.027 C  
HETATM   20  C   UNL     1      -5.609   7.026  68.213  1.00  0.00    -0.021 C  
HETATM   21  O   UNL     1      -5.607   4.775  68.868  1.00  0.00    -0.011 OA 
ENDROOT
BRANCH   4  22
HETATM   22  C   UNL     1      -9.817  12.845  68.637  1.00  0.00    -0.074 C  
HETATM   23  C   UNL     1      -9.699  13.994  68.324  1.00  0.00    -0.225 C  
ENDBRANCH   4  22
BRANCH   7  24
HETATM   24  C   UNL     1     -12.441  11.568  68.061  1.00  0.00     1.121 C  
HETATM   25  C   UNL     1     -12.735  12.498  69.233  1.00  0.00     0.841 C  
ENDBRANCH   7  24
TORSDOF 2
ENDMDL
MODEL      108
REMARK 921   NORMALIZED FREE ENERGY PREDICTED BY IDOCK:    1.17 KCAL/MOL
REMARK 922        TOTAL FREE ENERGY PREDICTED BY IDOCK:    1.06 KCAL/MOL
REMARK 923 INTER-LIGAND FREE ENERGY PREDICTED BY IDOCK:    0.40 KCAL/MOL
REMARK 924 INTRA-LIGAND FREE ENERGY PREDICTED BY IDOCK:    0.66 KCAL/MOL
REMARK 927      BINDING AFFINITY PREDICTED BY RF-SCORE:    0.00 PKD
ROOT
HETATM    1  C   UNL     1      -9.240  14.069  66.625  1.00  0.00    -0.262 C  
HETATM    2  C   UNL     1     -10.328  13.180  66.692  1.00  0.00    -0.265 C  
HETATM    3  C   UNL     1      -9.682  13.578  67.966  1.00  0.00    -0.228 C  
HETATM    4  C   UNL     1      -8.432  15.205  67.834  1.00  0.00    -0.149 C  
HETATM    5  C   UNL     1      -6.305  11.018  66.282  1.00  0.00    -0.119 C  
HETATM    6  O   UNL     1      -7.981  16.154  68.824  1.00  0.00    -0.188 OA 
HETATM    7  C   UNL     1      -9.747  15.130  68.187  1.00  0.00    -0.217 C  
HETATM    8  C   UNL     1      -9.132  14.505  69.866  1.00  0.00     0.752 C  
HETATM    9  C   UNL     1      -7.628  13.171  66.925  1.00  0.00     0.296 C  
HETATM   10  C   UNL     1      -6.037  10.778  67.749  1.00  0.00    -0.047 C  
HETATM   11  H   UNL     1      -7.403  16.906  68.763  1.00  0.00     0.000 HD 
HETATM   12  C   UNL     1      -7.580  13.847  69.737  1.00  0.00     0.611 C  
HETATM   13  C   UNL     1      -7.521  11.919  66.021  1.00  0.00     0.746 C  
HETATM   14  C   UNL     1      -7.242  12.769  68.582  1.00  0.00    -0.104 C  
HETATM   15  C   UNL     1      -6.642  14.466  70.483  1.00  0.00     0.037 C  
HETATM   16  C   UNL     1      -5.856  12.041  68.587  1.00  0.00    -0.053 C  
HETATM   17  C   UNL     1      -5.273  11.706  69.978  1.00  0.00    -0.079 C  
HETATM   18  C   UNL     1      -5.709  10.420  70.645  1.00  0.00    -0.096 C  
HETATM   19  C   UNL     1      -5.853   9.265  69.706  1.00  0.00    -0.035 C  
HETATM   20  C   UNL     1      -6.035   9.533  68.262  1.00  0.00    -0.044 C  
HETATM   21  O   UNL     1      -5.888   8.106  70.116  1.00  0.00    -0.023 OA 
ENDROOT
BRANCH   4  22
HETATM   22  C   UNL     1      -8.277  16.172  66.632  1.00  0.00    -0.321 C  
HETATM   23  C   UNL     1      -8.205  16.828  65.633  1.00  0.00     0.716 C  
ENDBRANCH   4  22
BRANCH   7  24
HETATM   24  C   UNL     1     -10.799  16.215  68.209  1.00  0.00    -0.326 C  
HETATM   25  C   UNL     1     -10.775  16.962  69.539  1.00  0.00    -0.205 C  
ENDBRANCH   7  24
TORSDOF 2
ENDMDL
MODEL      109
REMARK 921   NORMALIZED FREE ENERGY PREDICTED BY IDOCK:    1.62 KCAL/MOL
REMARK 922        TOTAL FREE ENERGY PREDICTED BY IDOCK:    1.56 KCAL/MOL
REMARK 923 INTER-LIGAND FREE ENERGY PREDICTED BY IDOCK:    1.37 KCAL/MOL
REMARK 924 INTRA-LIGAND FREE ENERGY PREDICTED BY IDOCK:    0.19 KCAL/MOL
REMARK 927      BINDING AFFINITY PREDICTED BY RF-SCORE:    0.00 PKD
ROOT
HETATM    1  C   UNL     1      -8.384  12.061  66.890  1.00  0.00    -0.159 C  
HETATM    2  C   UNL     1      -7.451  12.245  67.927  1.00  0.00    -0.121 C  
HETATM    3  C   UNL     1      -7.931  10.866  67.667  1.00  0.00    -0.114 C  
HETATM    4  C   UNL     1      -8.909  10.610  65.876  1.00  0.00    -0.174 C  
HETATM    5  C   UNL     1     -11.788  12.601  69.371  1.00  0.00    -0.356 C  
HETATM    6  O   UNL     1      -9.129   9.440  65.059  1.00  0.00    -0.215 OA 
HETATM    7  C   UNL     1      -7.601  10.405  66.204  1.00  0.00    -0.130 C  
HETATM    8  C   UNL     1      -8.187   8.797  67.015  1.00  0.00    -0.103 C  
HETATM    9  C   UNL     1     -10.093  11.752  67.581  1.00  0.00    -0.206 C  
HETATM   10  C   UNL     1     -11.985  11.172  69.822  1.00  0.00    -0.428 C  
HETATM   11  H   UNL     1      -9.581   9.322  64.232  1.00  0.00     0.000 HD 
HETATM   12  C   UNL     1      -9.829   8.877  67.407  1.00  0.00    -0.247 C  
HETATM   13  C   UNL     1     -10.466  12.831  68.626  1.00  0.00    -0.230 C  
HETATM   14  C   UNL     1     -10.419  10.151  68.205  1.00  0.00    -0.244 C  
HETATM   15  C   UNL     1     -10.600   7.952  66.797  1.00  0.00    -0.234 C  
HETATM   16  C   UNL     1     -11.900  10.127  68.712  1.00  0.00     0.225 C  
HETATM   17  C   UNL     1     -12.427   8.759  69.196  1.00  0.00     3.225 C  
HETATM   18  C   UNL     1     -12.157   8.354  70.628  1.00  0.00     0.035 C  
HETATM   19  C   UNL     1     -12.268   9.477  71.610  1.00  0.00    -0.398 C  
HETATM   20  C   UNL     1     -12.151  10.869  71.123  1.00  0.00    -0.386 C  
HETATM   21  O   UNL     1     -12.391   9.265  72.815  1.00  0.00    -0.055 OA 
ENDROOT
BRANCH   4  22
HETATM   22  C   UNL     1      -8.993  11.619  64.703  1.00  0.00     0.342 C  
HETATM   23  C   UNL     1      -8.935  12.417  63.812  1.00  0.00     1.427 C  
ENDBRANCH   4  22
BRANCH   7  24
HETATM   24  C   UNL     1      -6.390  10.311  65.306  1.00  0.00    -0.125 C  
HETATM   25  C   UNL     1      -5.320  11.309  65.739  1.00  0.00     0.040 C  
ENDBRANCH   7  24
TORSDOF 2
ENDMDL
MODEL      110
REMARK 921   NORMALIZED FREE ENERGY PREDICTED BY IDOCK:    1.71 KCAL/MOL
REMARK 922        TOTAL FREE ENERGY PREDICTED BY IDOCK:    1.66 KCAL/MOL
REMARK 923 INTER-LIGAND FREE ENERGY PREDICTED BY IDOCK:    0.89 KCAL/MOL
REMARK 924 INTRA-LIGAND FREE ENERGY PREDICTED BY IDOCK:    0.76 KCAL/MOL
REMARK 927      BINDING AFFINITY PREDICTED BY RF-SCORE:    0.00 PKD
ROOT
HETATM    1  C   UNL     1      -8.417  19.310  68.451  1.00  0.00    -0.386 C  
HETATM    2  C   UNL     1      -7.818  19.544  69.703  1.00  0.00     0.209 C  
HETATM    3  C   UNL     1      -6.995  18.895  68.655  1.00  0.00    -0.313 C  
HETATM    4  C   UNL     1      -7.766  19.007  66.751  1.00  0.00    -0.244 C  
HETATM    5  C   UNL     1      -9.870  15.450  69.469  1.00  0.00    -0.262 C  
HETATM    6  O   UNL     1      -7.139  18.924  65.453  1.00  0.00    -0.493 OA 
HETATM    7  C   UNL     1      -6.856  19.803  67.382  1.00  0.00    -0.243 C  
HETATM    8  C   UNL     1      -5.600  18.427  67.039  1.00  0.00    -0.153 C  
HETATM    9  C   UNL     1      -8.823  17.496  68.238  1.00  0.00    -0.274 C  
HETATM   10  C   UNL     1      -8.668  14.627  69.064  1.00  0.00    -0.097 C  
HETATM   11  H   UNL     1      -7.495  18.976  64.574  1.00  0.00     0.000 HD 
HETATM   12  C   UNL     1      -6.376  16.944  66.800  1.00  0.00    -0.239 C  
HETATM   13  C   UNL     1      -9.607  16.963  69.462  1.00  0.00     0.157 C  
HETATM   14  C   UNL     1      -7.496  16.429  67.843  1.00  0.00    -0.151 C  
HETATM   15  C   UNL     1      -6.167  16.388  65.589  1.00  0.00     3.137 C  
HETATM   16  C   UNL     1      -8.073  14.981  67.703  1.00  0.00    -0.184 C  
HETATM   17  C   UNL     1      -7.076  13.897  67.236  1.00  0.00     0.061 C  
HETATM   18  C   UNL     1      -6.213  13.221  68.278  1.00  0.00    -0.099 C  
HETATM   19  C   UNL     1      -6.921  12.941  69.566  1.00  0.00     0.188 C  
HETATM   20  C   UNL     1      -8.142  13.708  69.896  1.00  0.00     1.613 C  
HETATM   21  O   UNL     1      -6.475  12.133  70.379  1.00  0.00    -0.088 OA 
ENDROOT
BRANCH   4  22
HETATM   22  C   UNL     1      -8.962  19.871  66.275  1.00  0.00    -0.419 C  
HETATM   23  C   UNL     1      -9.958  20.444  65.942  1.00  0.00    -0.198 C  
ENDBRANCH   4  22
BRANCH   7  24
HETATM   24  C   UNL     1      -6.425  21.214  67.057  1.00  0.00    -0.414 C  
HETATM   25  C   UNL     1      -5.805  21.281  65.664  1.00  0.00    -0.213 C  
ENDBRANCH   7  24
TORSDOF 2
ENDMDL
MODEL      111
REMARK 921   NORMALIZED FREE ENERGY PREDICTED BY IDOCK:    1.97 KCAL/MOL
REMARK 922        TOTAL FREE ENERGY PREDICTED BY IDOCK:    1.95 KCAL/MOL
REMARK 923 INTER-LIGAND FREE ENERGY PREDICTED BY IDOCK:    2.07 KCAL/MOL
REMARK 924 INTRA-LIGAND FREE ENERGY PREDICTED BY IDOCK:   -0.13 KCAL/MOL
REMARK 927      BINDING AFFINITY PREDICTED BY RF-SCORE:    0.00 PKD
ROOT
HETATM    1  C   UNL     1      -8.772  14.482  66.639  1.00  0.00    -0.162 C  
HETATM    2  C   UNL     1      -9.596  15.276  65.819  1.00  0.00    -0.359 C  
HETATM    3  C   UNL     1      -9.061  15.888  67.059  1.00  0.00    -0.236 C  
HETATM    4  C   UNL     1      -7.524  14.851  67.947  1.00  0.00    -0.141 C  
HETATM    5  C   UNL     1     -11.971  12.945  68.974  1.00  0.00    -0.297 C  
HETATM    6  O   UNL     1      -6.473  15.271  68.844  1.00  0.00    -0.098 OA 
HETATM    7  C   UNL     1      -7.492  15.896  67.071  1.00  0.00    -0.254 C  
HETATM    8  C   UNL     1      -7.916  16.992  68.556  1.00  0.00    -0.249 C  
HETATM    9  C   UNL     1      -9.694  13.930  68.169  1.00  0.00    -0.222 C  
HETATM   10  C   UNL     1     -12.026  14.016  70.039  1.00  0.00    -0.404 C  
HETATM   11  H   UNL     1      -5.762  14.792  69.254  1.00  0.00     0.000 HD 
HETATM   12  C   UNL     1      -8.654  16.093  69.783  1.00  0.00     0.421 C  
HETATM   13  C   UNL     1     -11.059  13.303  67.792  1.00  0.00    -0.289 C  
HETATM   14  C   UNL     1      -9.890  15.109  69.445  1.00  0.00    -0.216 C  
HETATM   15  C   UNL     1      -7.984  16.082  70.954  1.00  0.00     3.411 C  
HETATM   16  C   UNL     1     -10.672  14.423  70.615  1.00  0.00     0.637 C  
HETATM   17  C   UNL     1     -10.846  15.265  71.898  1.00  0.00     0.230 C  
HETATM   18  C   UNL     1     -12.011  16.227  71.971  1.00  0.00    -0.544 C  
HETATM   19  C   UNL     1     -13.272  15.702  71.362  1.00  0.00    -0.465 C  
HETATM   20  C   UNL     1     -13.190  14.598  70.381  1.00  0.00    -0.049 C  
HETATM   21  O   UNL     1     -14.364  16.210  71.613  1.00  0.00     0.084 OA 
ENDROOT
BRANCH   4  22
HETATM   22  C   UNL     1      -6.733  13.658  67.352  1.00  0.00    -0.023 C  
HETATM   23  C   UNL     1      -6.126  12.686  67.006  1.00  0.00     0.197 C  
ENDBRANCH   4  22
BRANCH   7  24
HETATM   24  C   UNL     1      -6.368  16.367  66.177  1.00  0.00     1.220 C  
HETATM   25  C   UNL     1      -6.683  17.740  65.592  1.00  0.00    -0.118 C  
ENDBRANCH   7  24
TORSDOF 2
ENDMDL
MODEL      112
REMARK 921   NORMALIZED FREE ENERGY PREDICTED BY IDOCK:    2.04 KCAL/MOL
REMARK 922        TOTAL FREE ENERGY PREDICTED BY IDOCK:    2.02 KCAL/MOL
REMARK 923 INTER-LIGAND FREE ENERGY PREDICTED BY IDOCK:    0.27 KCAL/MOL
REMARK 924 INTRA-LIGAND FREE ENERGY PREDICTED BY IDOCK:    1.76 KCAL/MOL
REMARK 927      BINDING AFFINITY PREDICTED BY RF-SCORE:    0.00 PKD
ROOT
HETATM    1  C   UNL     1      -9.197  14.884  67.544  1.00  0.00    -0.194 C  
HETATM    2  C   UNL     1      -7.999  14.989  66.813  1.00  0.00     0.009 C  
HETATM    3  C   UNL     1      -9.153  14.332  66.154  1.00  0.00    -0.012 C  
HETATM    4  C   UNL     1     -10.965  14.626  67.082  1.00  0.00    -0.316 C  
HETATM    5  C   UNL     1      -8.241  11.115  69.255  1.00  0.00     0.075 C  
HETATM    6  O   UNL     1     -12.320  14.564  66.587  1.00  0.00    -0.467 OA 
HETATM    7  C   UNL     1     -10.385  15.298  66.047  1.00  0.00    -0.327 C  
HETATM    8  C   UNL     1     -10.917  13.839  64.963  1.00  0.00    -0.359 C  
HETATM    9  C   UNL     1      -9.461  13.130  68.136  1.00  0.00    -0.222 C  
HETATM   10  C   UNL     1      -8.800  10.215  68.179  1.00  0.00    -0.126 C  
HETATM   11  H   UNL     1     -13.157  14.700  67.015  1.00  0.00     0.000 HD 
HETATM   12  C   UNL     1     -11.155  12.447  65.894  1.00  0.00    -0.349 C  
HETATM   13  C   UNL     1      -8.197  12.597  68.853  1.00  0.00     0.241 C  
HETATM   14  C   UNL     1     -10.036  11.973  66.958  1.00  0.00    -0.221 C  
HETATM   15  C   UNL     1     -12.408  11.948  65.850  1.00  0.00     0.792 C  
HETATM   16  C   UNL     1     -10.193  10.593  67.680  1.00  0.00    -0.229 C  
HETATM   17  C   UNL     1     -10.809   9.455  66.837  1.00  0.00    -0.055 C  
HETATM   18  C   UNL     1      -9.890   8.644  65.950  1.00  0.00    -0.073 C  
HETATM   19  C   UNL     1      -8.556   8.352  66.560  1.00  0.00    -0.120 C  
HETATM   20  C   UNL     1      -8.072   9.205  67.668  1.00  0.00    -0.104 C  
HETATM   21  O   UNL     1      -7.831   7.461  66.120  1.00  0.00    -0.100 OA 
ENDROOT
BRANCH   4  22
HETATM   22  C   UNL     1     -11.279  15.620  68.229  1.00  0.00    -0.353 C  
HETATM   23  C   UNL     1     -11.630  16.409  69.058  1.00  0.00    -0.143 C  
ENDBRANCH   4  22
BRANCH   7  24
HETATM   24  C   UNL     1     -10.679  16.682  65.516  1.00  0.00    -0.234 C  
HETATM   25  C   UNL     1     -11.933  17.256  66.170  1.00  0.00     3.150 C  
ENDBRANCH   7  24
TORSDOF 2
ENDMDL
MODEL      113
REMARK 921   NORMALIZED FREE ENERGY PREDICTED BY IDOCK:    9.14 KCAL/MOL
REMARK 922        TOTAL FREE ENERGY PREDICTED BY IDOCK:    9.96 KCAL/MOL
REMARK 923 INTER-LIGAND FREE ENERGY PREDICTED BY IDOCK:   10.05 KCAL/MOL
REMARK 924 INTRA-LIGAND FREE ENERGY PREDICTED BY IDOCK:   -0.09 KCAL/MOL
REMARK 927      BINDING AFFINITY PREDICTED BY RF-SCORE:    0.00 PKD
ROOT
HETATM    1  C   UNL     1      -5.988  17.551  70.020  1.00  0.00    -0.188 C  
HETATM    2  C   UNL     1      -5.180  17.360  68.885  1.00  0.00    -0.149 C  
HETATM    3  C   UNL     1      -6.613  17.674  68.667  1.00  0.00    -0.209 C  
HETATM    4  C   UNL     1      -7.606  18.388  70.320  1.00  0.00     2.002 C  
HETATM    5  C   UNL     1      -7.107  13.467  70.355  1.00  0.00     1.309 C  
HETATM    6  O   UNL     1      -8.797  19.193  70.453  1.00  0.00     1.520 OA 
HETATM    7  C   UNL     1      -7.004  19.058  69.296  1.00  0.00    -0.302 C  
HETATM    8  C   UNL     1      -8.540  18.626  68.275  1.00  0.00    -0.347 C  
HETATM    9  C   UNL     1      -7.100  16.074  70.301  1.00  0.00     0.741 C  
HETATM   10  C   UNL     1      -8.328  13.479  69.465  1.00  0.00     1.076 C  
HETATM   11  H   UNL     1      -9.256  19.522  71.217  1.00  0.00     0.000 HD 
HETATM   12  C   UNL     1      -9.335  17.279  68.915  1.00  0.00    -0.191 C  
HETATM   13  C   UNL     1      -6.282  14.760  70.281  1.00  0.00    -0.167 C  
HETATM   14  C   UNL     1      -8.511  15.937  69.277  1.00  0.00    -0.242 C  
HETATM   15  C   UNL     1     -10.603  17.509  69.313  1.00  0.00    -0.001 C  
HETATM   16  C   UNL     1      -9.286  14.645  69.700  1.00  0.00     0.315 C  
HETATM   17  C   UNL     1     -10.637  14.404  68.992  1.00  0.00    -0.245 C  
HETATM   18  C   UNL     1     -10.628  13.700  67.653  1.00  0.00    -0.245 C  
HETATM   19  C   UNL     1      -9.637  12.584  67.559  1.00  0.00    -0.187 C  
HETATM   20  C   UNL     1      -8.495  12.557  68.499  1.00  0.00    -0.061 C  
HETATM   21  O   UNL     1      -9.719  11.727  66.680  1.00  0.00    -0.194 OA 
ENDROOT
BRANCH   4  22
HETATM   22  C   UNL     1      -6.981  18.837  71.666  1.00  0.00     3.590 C  
HETATM   23  C   UNL     1      -6.593  19.265  72.714  1.00  0.00     2.783 C  
ENDBRANCH   4  22
BRANCH   7  24
HETATM   24  C   UNL     1      -6.526  20.490  69.235  1.00  0.00    -0.165 C  
HETATM   25  C   UNL     1      -6.300  20.921  67.789  1.00  0.00    -0.396 C  
ENDBRANCH   7  24
TORSDOF 2
ENDMDL
MODEL      114
REMARK 921   NORMALIZED FREE ENERGY PREDICTED BY IDOCK:    9.71 KCAL/MOL
REMARK 922        TOTAL FREE ENERGY PREDICTED BY IDOCK:   10.60 KCAL/MOL
REMARK 923 INTER-LIGAND FREE ENERGY PREDICTED BY IDOCK:   10.39 KCAL/MOL
REMARK 924 INTRA-LIGAND FREE ENERGY PREDICTED BY IDOCK:    0.21 KCAL/MOL
REMARK 927      BINDING AFFINITY PREDICTED BY RF-SCORE:    0.00 PKD
ROOT
HETATM    1  C   UNL     1     -10.734  15.756  65.966  1.00  0.00    -0.311 C  
HETATM    2  C   UNL     1      -9.751  15.870  64.966  1.00  0.00     0.523 C  
HETATM    3  C   UNL     1     -10.233  14.511  65.307  1.00  0.00    -0.431 C  
HETATM    4  C   UNL     1     -11.964  14.456  66.416  1.00  0.00    -0.385 C  
HETATM    5  C   UNL     1      -7.954  15.390  69.157  1.00  0.00    -0.222 C  
HETATM    6  O   UNL     1     -12.971  13.434  66.577  1.00  0.00    -0.019 OA 
HETATM    7  C   UNL     1     -11.778  14.368  65.068  1.00  0.00    -0.389 C  
HETATM    8  C   UNL     1     -11.248  12.577  65.384  1.00  0.00    -0.343 C  
HETATM    9  C   UNL     1      -9.992  15.106  67.555  1.00  0.00    -0.225 C  
HETATM   10  C   UNL     1      -7.771  13.890  69.144  1.00  0.00     0.109 C  
HETATM   11  H   UNL     1     -13.771  13.409  67.090  1.00  0.00     0.000 HD 
HETATM   12  C   UNL     1     -10.730  12.370  66.980  1.00  0.00    -0.268 C  
HETATM   13  C   UNL     1      -8.736  15.922  67.947  1.00  0.00    -0.168 C  
HETATM   14  C   UNL     1      -9.663  13.391  67.633  1.00  0.00    -0.222 C  
HETATM   15  C   UNL     1     -11.448  11.478  67.693  1.00  0.00    -0.357 C  
HETATM   16  C   UNL     1      -9.064  13.083  69.046  1.00  0.00     0.488 C  
HETATM   17  C   UNL     1      -8.812  11.592  69.364  1.00  0.00     0.735 C  
HETATM   18  C   UNL     1      -7.507  10.974  68.913  1.00  0.00    -0.123 C  
HETATM   19  C   UNL     1      -6.324  11.877  69.058  1.00  0.00    -0.080 C  
HETATM   20  C   UNL     1      -6.543  13.338  69.148  1.00  0.00    -0.105 C  
HETATM   21  O   UNL     1      -5.176  11.437  69.040  1.00  0.00    -0.044 OA 
ENDROOT
BRANCH   4  22
HETATM   22  C   UNL     1     -12.914  15.641  66.727  1.00  0.00     3.158 C  
HETATM   23  C   UNL     1     -13.657  16.510  67.082  1.00  0.00     7.794 C  
ENDBRANCH   4  22
BRANCH   7  24
HETATM   24  C   UNL     1     -12.763  14.597  63.945  1.00  0.00     0.485 C  
HETATM   25  C   UNL     1     -12.649  13.497  62.895  1.00  0.00     0.786 C  
ENDBRANCH   7  24
TORSDOF 2
ENDMDL
MODEL      115
REMARK 921   NORMALIZED FREE ENERGY PREDICTED BY IDOCK:   10.70 KCAL/MOL
REMARK 922        TOTAL FREE ENERGY PREDICTED BY IDOCK:   11.70 KCAL/MOL
REMARK 923 INTER-LIGAND FREE ENERGY PREDICTED BY IDOCK:   11.81 KCAL/MOL
REMARK 924 INTRA-LIGAND FREE ENERGY PREDICTED BY IDOCK:   -0.11 KCAL/MOL
REMARK 927      BINDING AFFINITY PREDICTED BY RF-SCORE:    0.00 PKD
ROOT
HETATM    1  C   UNL     1     -11.300  15.966  70.496  1.00  0.00    -0.409 C  
HETATM    2  C   UNL     1     -12.121  16.993  69.992  1.00  0.00     2.648 C  
HETATM    3  C   UNL     1     -12.542  15.592  69.752  1.00  0.00    -0.097 C  
HETATM    4  C   UNL     1     -11.570  14.184  70.892  1.00  0.00    -0.005 C  
HETATM    5  C   UNL     1      -8.909  15.673  66.997  1.00  0.00    -0.250 C  
HETATM    6  O   UNL     1     -11.943  12.849  71.296  1.00  0.00    -0.224 OA 
HETATM    7  C   UNL     1     -12.762  14.814  71.097  1.00  0.00    -0.402 C  
HETATM    8  C   UNL     1     -13.474  13.616  69.814  1.00  0.00     1.984 C  
HETATM    9  C   UNL     1     -10.336  15.151  69.117  1.00  0.00    -0.249 C  
HETATM   10  C   UNL     1      -9.730  14.661  66.230  1.00  0.00    -0.329 C  
HETATM   11  H   UNL     1     -11.493  12.198  71.822  1.00  0.00     0.000 HD 
HETATM   12  C   UNL     1     -12.257  13.012  68.807  1.00  0.00    -0.047 C  
HETATM   13  C   UNL     1      -9.616  16.212  68.249  1.00  0.00    -0.216 C  
HETATM   14  C   UNL     1     -11.201  14.014  68.109  1.00  0.00    -0.299 C  
HETATM   15  C   UNL     1     -12.106  11.672  68.850  1.00  0.00    -0.253 C  
HETATM   16  C   UNL     1     -10.196  13.457  67.045  1.00  0.00    -0.249 C  
HETATM   17  C   UNL     1     -10.735  12.340  66.125  1.00  0.00    -0.296 C  
HETATM   18  C   UNL     1     -11.495  12.742  64.881  1.00  0.00    -0.355 C  
HETATM   19  C   UNL     1     -10.935  13.942  64.186  1.00  0.00    -0.061 C  
HETATM   20  C   UNL     1     -10.068  14.871  64.944  1.00  0.00    -0.200 C  
HETATM   21  O   UNL     1     -11.229  14.203  63.020  1.00  0.00     1.579 OA 
ENDROOT
BRANCH   4  22
HETATM   22  C   UNL     1     -10.637  14.442  72.103  1.00  0.00     3.127 C  
HETATM   23  C   UNL     1     -10.013  14.609  73.111  1.00  0.00     6.147 C  
ENDBRANCH   4  22
BRANCH   7  24
HETATM   24  C   UNL     1     -13.549  14.989  72.375  1.00  0.00    -0.565 C  
HETATM   25  C   UNL     1     -14.406  16.249  72.313  1.00  0.00     0.827 C  
ENDBRANCH   7  24
TORSDOF 2
ENDMDL
MODEL      116
REMARK 921   NORMALIZED FREE ENERGY PREDICTED BY IDOCK:   11.12 KCAL/MOL
REMARK 922        TOTAL FREE ENERGY PREDICTED BY IDOCK:   12.17 KCAL/MOL
REMARK 923 INTER-LIGAND FREE ENERGY PREDICTED BY IDOCK:   11.38 KCAL/MOL
REMARK 924 INTRA-LIGAND FREE ENERGY PREDICTED BY IDOCK:    0.79 KCAL/MOL
REMARK 927      BINDING AFFINITY PREDICTED BY RF-SCORE:    0.00 PKD
ROOT
HETATM    1  C   UNL     1     -10.347  12.596  69.466  1.00  0.00     0.648 C  
HETATM    2  C   UNL     1      -9.278  13.235  68.812  1.00  0.00     0.127 C  
HETATM    3  C   UNL     1      -9.868  12.040  68.164  1.00  0.00    -0.201 C  
HETATM    4  C   UNL     1     -11.686  11.449  68.921  1.00  0.00    -0.343 C  
HETATM    5  C   UNL     1      -7.874   9.961  71.699  1.00  0.00     1.863 C  
HETATM    6  O   UNL     1     -12.762  10.677  68.345  1.00  0.00     0.073 OA 
HETATM    7  C   UNL     1     -11.392  12.243  67.851  1.00  0.00    -0.356 C  
HETATM    8  C   UNL     1     -10.998  10.638  66.926  1.00  0.00    -0.228 C  
HETATM    9  C   UNL     1      -9.782  10.997  70.255  1.00  0.00     1.577 C  
HETATM   10  C   UNL     1      -7.781   8.823  70.709  1.00  0.00    -0.108 C  
HETATM   11  H   UNL     1     -13.603  10.404  68.695  1.00  0.00     0.000 HD 
HETATM   12  C   UNL     1     -10.631   9.390  68.006  1.00  0.00    -0.278 C  
HETATM   13  C   UNL     1      -8.518  11.228  71.118  1.00  0.00     7.294 C  
HETATM   14  C   UNL     1      -9.563   9.624  69.195  1.00  0.00    -0.176 C  
HETATM   15  C   UNL     1     -11.458   8.326  67.939  1.00  0.00     1.298 C  
HETATM   16  C   UNL     1      -9.106   8.411  70.072  1.00  0.00    -0.150 C  
HETATM   17  C   UNL     1      -8.972   7.058  69.339  1.00  0.00    -0.139 C  
HETATM   18  C   UNL     1      -7.672   6.757  68.626  1.00  0.00    -0.113 C  
HETATM   19  C   UNL     1      -6.454   7.222  69.358  1.00  0.00    -0.036 C  
HETATM   20  C   UNL     1      -6.592   8.283  70.380  1.00  0.00    -0.036 C  
HETATM   21  O   UNL     1      -5.336   6.788  69.083  1.00  0.00    -0.013 OA 
ENDROOT
BRANCH   4  22
HETATM   22  C   UNL     1     -12.587  12.232  69.909  1.00  0.00     0.173 C  
HETATM   23  C   UNL     1     -13.309  12.914  70.579  1.00  0.00     0.753 C  
ENDBRANCH   4  22
BRANCH   7  24
HETATM   24  C   UNL     1     -12.263  13.247  67.132  1.00  0.00    -0.281 C  
HETATM   25  C   UNL     1     -12.329  14.558  67.909  1.00  0.00     0.031 C  
ENDBRANCH   7  24
TORSDOF 2
ENDMDL
MODEL      117
REMARK 921   NORMALIZED FREE ENERGY PREDICTED BY IDOCK:   12.60 KCAL/MOL
REMARK 922        TOTAL FREE ENERGY PREDICTED BY IDOCK:   13.82 KCAL/MOL
REMARK 923 INTER-LIGAND FREE ENERGY PREDICTED BY IDOCK:   13.89 KCAL/MOL
REMARK 924 INTRA-LIGAND FREE ENERGY PREDICTED BY IDOCK:   -0.07 KCAL/MOL
REMARK 927      BINDING AFFINITY PREDICTED BY RF-SCORE:    0.00 PKD
ROOT
HETATM    1  C   UNL     1      -6.508  16.679  67.425  1.00  0.00    -0.202 C  
HETATM    2  C   UNL     1      -6.515  15.570  68.291  1.00  0.00    -0.122 C  
HETATM    3  C   UNL     1      -7.782  16.322  68.122  1.00  0.00    -0.159 C  
HETATM    4  C   UNL     1      -7.818  17.613  66.521  1.00  0.00    -0.272 C  
HETATM    5  C   UNL     1      -5.443  19.477  70.439  1.00  0.00    -0.263 C  
HETATM    6  O   UNL     1      -8.911  18.168  65.758  1.00  0.00    -0.462 OA 
HETATM    7  C   UNL     1      -8.257  16.326  66.626  1.00  0.00    -0.316 C  
HETATM    8  C   UNL     1      -9.758  17.043  67.532  1.00  0.00    -0.251 C  
HETATM    9  C   UNL     1      -6.531  18.279  68.394  1.00  0.00    -0.208 C  
HETATM   10  C   UNL     1      -6.826  19.846  70.923  1.00  0.00     0.338 C  
HETATM   11  H   UNL     1      -8.928  18.764  65.019  1.00  0.00     0.000 HD 
HETATM   12  C   UNL     1      -9.402  18.558  68.192  1.00  0.00    -0.336 C  
HETATM   13  C   UNL     1      -5.429  18.276  69.482  1.00  0.00    -0.212 C  
HETATM   14  C   UNL     1      -8.065  18.773  69.072  1.00  0.00    -0.173 C  
HETATM   15  C   UNL     1     -10.163  19.569  67.724  1.00  0.00    -0.550 C  
HETATM   16  C   UNL     1      -7.842  20.130  69.819  1.00  0.00     0.621 C  
HETATM   17  C   UNL     1      -9.109  20.804  70.391  1.00  0.00     2.288 C  
HETATM   18  C   UNL     1      -9.591  20.376  71.760  1.00  0.00     2.533 C  
HETATM   19  C   UNL     1      -8.490  20.123  72.741  1.00  0.00     3.254 C  
HETATM   20  C   UNL     1      -7.128  19.844  72.235  1.00  0.00     1.543 C  
HETATM   21  O   UNL     1      -8.708  20.081  73.951  1.00  0.00     3.710 OA 
ENDROOT
BRANCH   4  22
HETATM   22  C   UNL     1      -6.781  17.710  65.373  1.00  0.00     0.397 C  
HETATM   23  C   UNL     1      -5.916  17.861  64.560  1.00  0.00     1.160 C  
ENDBRANCH   4  22
BRANCH   7  24
HETATM   24  C   UNL     1      -8.538  15.315  65.539  1.00  0.00     1.660 C  
HETATM   25  C   UNL     1      -9.284  14.110  66.102  1.00  0.00    -0.088 C  
ENDBRANCH   7  24
TORSDOF 2
ENDMDL
MODEL      118
REMARK 921   NORMALIZED FREE ENERGY PREDICTED BY IDOCK:   12.67 KCAL/MOL
REMARK 922        TOTAL FREE ENERGY PREDICTED BY IDOCK:   13.90 KCAL/MOL
REMARK 923 INTER-LIGAND FREE ENERGY PREDICTED BY IDOCK:   13.15 KCAL/MOL
REMARK 924 INTRA-LIGAND FREE ENERGY PREDICTED BY IDOCK:    0.76 KCAL/MOL
REMARK 927      BINDING AFFINITY PREDICTED BY RF-SCORE:    0.00 PKD
ROOT
HETATM    1  C   UNL     1     -11.154  18.472  69.999  1.00  0.00     2.916 C  
HETATM    2  C   UNL     1     -11.759  19.199  68.958  1.00  0.00     4.378 C  
HETATM    3  C   UNL     1     -11.267  17.834  68.652  1.00  0.00     0.704 C  
HETATM    4  C   UNL     1     -10.829  16.680  70.297  1.00  0.00    -0.050 C  
HETATM    5  C   UNL     1      -7.232  19.889  69.191  1.00  0.00    -0.259 C  
HETATM    6  O   UNL     1     -10.763  15.249  70.477  1.00  0.00    -0.424 OA 
HETATM    7  C   UNL     1     -11.967  16.752  69.547  1.00  0.00     1.153 C  
HETATM    8  C   UNL     1     -11.046  15.693  68.274  1.00  0.00    -0.336 C  
HETATM    9  C   UNL     1      -9.298  18.410  69.775  1.00  0.00     0.912 C  
HETATM   10  C   UNL     1      -6.800  18.842  68.191  1.00  0.00    -0.261 C  
HETATM   11  H   UNL     1     -10.561  14.715  71.237  1.00  0.00     0.000 HD 
HETATM   12  C   UNL     1      -9.372  15.832  68.466  1.00  0.00    -0.198 C  
HETATM   13  C   UNL     1      -8.727  19.829  69.535  1.00  0.00     0.377 C  
HETATM   14  C   UNL     1      -8.681  17.287  68.586  1.00  0.00    -0.268 C  
HETATM   15  C   UNL     1      -8.740  14.675  68.752  1.00  0.00    -0.166 C  
HETATM   16  C   UNL     1      -7.120  17.402  68.585  1.00  0.00    -0.237 C  
HETATM   17  C   UNL     1      -6.368  16.400  67.682  1.00  0.00    -0.177 C  
HETATM   18  C   UNL     1      -6.180  16.753  66.223  1.00  0.00     0.320 C  
HETATM   19  C   UNL     1      -5.880  18.198  65.980  1.00  0.00    -0.202 C  
HETATM   20  C   UNL     1      -6.243  19.190  67.016  1.00  0.00    -0.179 C  
HETATM   21  O   UNL     1      -5.398  18.582  64.916  1.00  0.00    -0.169 OA 
ENDROOT
BRANCH   4  22
HETATM   22  C   UNL     1     -11.169  16.992  71.776  1.00  0.00     0.918 C  
HETATM   23  C   UNL     1     -11.537  17.283  72.878  1.00  0.00     0.907 C  
ENDBRANCH   4  22
BRANCH   7  24
HETATM   24  C   UNL     1     -13.375  16.327  69.895  1.00  0.00     2.768 C  
HETATM   25  C   UNL     1     -13.463  14.810  70.029  1.00  0.00     0.721 C  
ENDBRANCH   7  24
TORSDOF 2
ENDMDL
MODEL      119
REMARK 921   NORMALIZED FREE ENERGY PREDICTED BY IDOCK:   13.64 KCAL/MOL
REMARK 922        TOTAL FREE ENERGY PREDICTED BY IDOCK:   14.98 KCAL/MOL
REMARK 923 INTER-LIGAND FREE ENERGY PREDICTED BY IDOCK:   14.76 KCAL/MOL
REMARK 924 INTRA-LIGAND FREE ENERGY PREDICTED BY IDOCK:    0.22 KCAL/MOL
REMARK 927      BINDING AFFINITY PREDICTED BY RF-SCORE:    0.00 PKD
ROOT
HETATM    1  C   UNL     1      -8.965  15.648  66.924  1.00  0.00    -0.267 C  
HETATM    2  C   UNL     1      -7.645  16.094  67.120  1.00  0.00    -0.237 C  
HETATM    3  C   UNL     1      -8.290  15.340  68.222  1.00  0.00    -0.148 C  
HETATM    4  C   UNL     1     -10.008  14.338  67.700  1.00  0.00    -0.225 C  
HETATM    5  C   UNL     1     -10.764  19.162  68.493  1.00  0.00     0.138 C  
HETATM    6  O   UNL     1     -10.670  13.195  68.283  1.00  0.00    -0.230 OA 
HETATM    7  C   UNL     1      -8.718  13.901  67.767  1.00  0.00    -0.187 C  
HETATM    8  C   UNL     1      -8.972  13.826  69.642  1.00  0.00     1.316 C  
HETATM    9  C   UNL     1     -10.171  16.693  67.900  1.00  0.00    -0.284 C  
HETATM   10  C   UNL     1     -10.831  18.766  69.950  1.00  0.00     2.026 C  
HETATM   11  H   UNL     1     -11.464  12.732  68.041  1.00  0.00     0.000 HD 
HETATM   12  C   UNL     1     -10.230  14.847  70.125  1.00  0.00     0.099 C  
HETATM   13  C   UNL     1      -9.931  18.199  67.635  1.00  0.00    -0.344 C  
HETATM   14  C   UNL     1     -10.283  16.379  69.616  1.00  0.00    -0.198 C  
HETATM   15  C   UNL     1     -11.262  14.222  70.730  1.00  0.00     0.190 C  
HETATM   16  C   UNL     1     -11.352  17.354  70.212  1.00  0.00     1.668 C  
HETATM   17  C   UNL     1     -11.691  17.156  71.706  1.00  0.00     1.231 C  
HETATM   18  C   UNL     1     -10.812  17.834  72.734  1.00  0.00     3.127 C  
HETATM   19  C   UNL     1     -10.369  19.208  72.346  1.00  0.00     3.688 C  
HETATM   20  C   UNL     1     -10.391  19.592  70.917  1.00  0.00     1.901 C  
HETATM   21  O   UNL     1      -9.929  20.000  73.179  1.00  0.00     2.345 OA 
ENDROOT
BRANCH   4  22
HETATM   22  C   UNL     1     -10.557  14.104  66.269  1.00  0.00    -0.284 C  
HETATM   23  C   UNL     1     -10.964  13.801  65.184  1.00  0.00    -0.337 C  
ENDBRANCH   4  22
BRANCH   7  24
HETATM   24  C   UNL     1      -8.078  12.696  67.118  1.00  0.00    -0.141 C  
HETATM   25  C   UNL     1      -7.177  11.965  68.110  1.00  0.00    -0.085 C  
ENDBRANCH   7  24
TORSDOF 2
ENDMDL
MODEL      120
REMARK 921   NORMALIZED FREE ENERGY PREDICTED BY IDOCK:   14.03 KCAL/MOL
REMARK 922        TOTAL FREE ENERGY PREDICTED BY IDOCK:   15.42 KCAL/MOL
REMARK 923 INTER-LIGAND FREE ENERGY PREDICTED BY IDOCK:   15.59 KCAL/MOL
REMARK 924 INTRA-LIGAND FREE ENERGY PREDICTED BY IDOCK:   -0.17 KCAL/MOL
REMARK 927      BINDING AFFINITY PREDICTED BY RF-SCORE:    0.00 PKD
ROOT
HETATM    1  C   UNL     1      -8.742   5.653  68.366  1.00  0.00    -0.109 C  
HETATM    2  C   UNL     1      -9.856   6.387  67.918  1.00  0.00    -0.130 C  
HETATM    3  C   UNL     1      -8.643   7.144  68.312  1.00  0.00    -0.122 C  
HETATM    4  C   UNL     1      -6.937   6.013  68.505  1.00  0.00    -0.076 C  
HETATM    5  C   UNL     1      -9.901   5.707  72.453  1.00  0.00    -0.189 C  
HETATM    6  O   UNL     1      -5.538   6.361  68.429  1.00  0.00    -0.010 OA 
HETATM    7  C   UNL     1      -7.400   6.737  67.446  1.00  0.00    -0.095 C  
HETATM    8  C   UNL     1      -6.767   8.263  68.373  1.00  0.00    -0.064 C  
HETATM    9  C   UNL     1      -8.554   5.798  70.221  1.00  0.00    -0.133 C  
HETATM   10  C   UNL     1      -9.237   6.998  72.873  1.00  0.00    -0.162 C  
HETATM   11  H   UNL     1      -4.750   5.839  68.518  1.00  0.00     0.000 HD 
HETATM   12  C   UNL     1      -6.639   7.956  70.030  1.00  0.00    -0.037 C  
HETATM   13  C   UNL     1      -9.892   5.479  70.934  1.00  0.00    -0.241 C  
HETATM   14  C   UNL     1      -7.867   7.283  70.835  1.00  0.00    -0.094 C  
HETATM   15  C   UNL     1      -5.392   8.080  70.531  1.00  0.00    -0.023 C  
HETATM   16  C   UNL     1      -7.797   7.169  72.395  1.00  0.00    -0.096 C  
HETATM   17  C   UNL     1      -7.105   8.339  73.129  1.00  0.00    -0.141 C  
HETATM   18  C   UNL     1      -7.931   9.559  73.470  1.00  0.00     2.641 C  
HETATM   19  C   UNL     1      -9.323   9.246  73.916  1.00  0.00     4.416 C  
HETATM   20  C   UNL     1      -9.916   7.939  73.556  1.00  0.00    -0.170 C  
HETATM   21  O   UNL     1     -10.005  10.075  74.519  1.00  0.00    10.699 OA 
ENDROOT
BRANCH   4  22
HETATM   22  C   UNL     1      -6.738   4.538  68.070  1.00  0.00    -0.051 C  
HETATM   23  C   UNL     1      -6.546   3.443  67.626  1.00  0.00    -0.038 C  
ENDBRANCH   4  22
BRANCH   7  24
HETATM   24  C   UNL     1      -7.041   6.634  65.981  1.00  0.00    -0.062 C  
HETATM   25  C   UNL     1      -7.815   7.663  65.163  1.00  0.00    -0.124 C  
ENDBRANCH   7  24
TORSDOF 2
ENDMDL
MODEL      121
REMARK 921   NORMALIZED FREE ENERGY PREDICTED BY IDOCK:   15.22 KCAL/MOL
REMARK 922        TOTAL FREE ENERGY PREDICTED BY IDOCK:   16.75 KCAL/MOL
REMARK 923 INTER-LIGAND FREE ENERGY PREDICTED BY IDOCK:   16.16 KCAL/MOL
REMARK 924 INTRA-LIGAND FREE ENERGY PREDICTED BY IDOCK:    0.58 KCAL/MOL
REMARK 927      BINDING AFFINITY PREDICTED BY RF-SCORE:    0.00 PKD
ROOT
HETATM    1  C   UNL     1      -8.628  19.465  68.522  1.00  0.00    -0.401 C  
HETATM    2  C   UNL     1      -8.053  19.511  69.806  1.00  0.00     0.490 C  
HETATM    3  C   UNL     1      -8.034  18.214  69.087  1.00  0.00     0.032 C  
HETATM    4  C   UNL     1      -8.459  18.328  67.078  1.00  0.00    -0.250 C  
HETATM    5  C   UNL     1     -12.513  18.450  69.910  1.00  0.00    12.970 C  
HETATM    6  O   UNL     1      -8.133  17.455  65.975  1.00  0.00    -0.483 OA 
HETATM    7  C   UNL     1      -7.259  18.318  67.726  1.00  0.00    -0.215 C  
HETATM    8  C   UNL     1      -7.514  16.450  67.908  1.00  0.00    -0.151 C  
HETATM    9  C   UNL     1     -10.282  18.593  68.567  1.00  0.00    -0.398 C  
HETATM   10  C   UNL     1     -12.378  16.945  69.920  1.00  0.00     2.863 C  
HETATM   11  H   UNL     1      -8.330  17.507  65.047  1.00  0.00     0.000 HD 
HETATM   12  C   UNL     1      -9.152  16.047  67.791  1.00  0.00    -0.196 C  
HETATM   13  C   UNL     1     -11.183  19.183  69.679  1.00  0.00     3.183 C  
HETATM   14  C   UNL     1     -10.255  16.847  68.657  1.00  0.00    -0.301 C  
HETATM   15  C   UNL     1      -9.456  15.216  66.772  1.00  0.00    -0.260 C  
HETATM   16  C   UNL     1     -11.738  16.346  68.669  1.00  0.00    -0.011 C  
HETATM   17  C   UNL     1     -11.936  14.815  68.625  1.00  0.00    -0.292 C  
HETATM   18  C   UNL     1     -11.892  14.049  69.929  1.00  0.00    -0.393 C  
HETATM   19  C   UNL     1     -12.549  14.755  71.072  1.00  0.00    -0.333 C  
HETATM   20  C   UNL     1     -12.738  16.221  70.996  1.00  0.00     0.739 C  
HETATM   21  O   UNL     1     -12.875  14.155  72.094  1.00  0.00    -0.337 OA 
ENDROOT
BRANCH   4  22
HETATM   22  C   UNL     1      -8.566  19.611  66.216  1.00  0.00    -0.393 C  
HETATM   23  C   UNL     1      -8.768  20.608  65.585  1.00  0.00     0.661 C  
ENDBRANCH   4  22
BRANCH   7  24
HETATM   24  C   UNL     1      -5.903  18.775  67.243  1.00  0.00    -0.160 C  
HETATM   25  C   UNL     1      -5.151  17.625  66.579  1.00  0.00    -0.201 C  
ENDBRANCH   7  24
TORSDOF 2
ENDMDL
MODEL      122
REMARK 921   NORMALIZED FREE ENERGY PREDICTED BY IDOCK:   16.16 KCAL/MOL
REMARK 922        TOTAL FREE ENERGY PREDICTED BY IDOCK:   17.79 KCAL/MOL
REMARK 923 INTER-LIGAND FREE ENERGY PREDICTED BY IDOCK:   17.23 KCAL/MOL
REMARK 924 INTRA-LIGAND FREE ENERGY PREDICTED BY IDOCK:    0.56 KCAL/MOL
REMARK 927      BINDING AFFINITY PREDICTED BY RF-SCORE:    0.00 PKD
ROOT
HETATM    1  C   UNL     1     -10.738   9.031  71.242  1.00  0.00    -0.379 C  
HETATM    2  C   UNL     1      -9.913   8.766  70.133  1.00  0.00    -0.201 C  
HETATM    3  C   UNL     1     -11.170   7.989  70.260  1.00  0.00    -0.192 C  
HETATM    4  C   UNL     1     -12.521   8.740  71.617  1.00  0.00    -0.339 C  
HETATM    5  C   UNL     1      -8.894   6.144  73.755  1.00  0.00    -0.125 C  
HETATM    6  O   UNL     1     -13.952   8.589  71.733  1.00  0.00    -0.393 OA 
HETATM    7  C   UNL     1     -12.430   8.924  70.269  1.00  0.00     0.627 C  
HETATM    8  C   UNL     1     -13.203   7.203  70.106  1.00  0.00     1.616 C  
HETATM    9  C   UNL     1     -10.611   7.659  72.507  1.00  0.00    -0.336 C  
HETATM   10  C   UNL     1      -9.737   4.942  73.397  1.00  0.00    -0.156 C  
HETATM   11  H   UNL     1     -14.577   8.936  72.360  1.00  0.00     0.000 HD 
HETATM   12  C   UNL     1     -12.956   6.292  71.509  1.00  0.00     0.424 C  
HETATM   13  C   UNL     1      -9.130   7.353  72.837  1.00  0.00    -0.192 C  
HETATM   14  C   UNL     1     -11.485   6.183  72.166  1.00  0.00    -0.361 C  
HETATM   15  C   UNL     1     -14.087   5.903  72.134  1.00  0.00     0.959 C  
HETATM   16  C   UNL     1     -11.242   5.198  73.357  1.00  0.00    -0.358 C  
HETATM   17  C   UNL     1     -12.029   3.870  73.308  1.00  0.00     0.231 C  
HETATM   18  C   UNL     1     -11.443   2.720  72.519  1.00  0.00     0.914 C  
HETATM   19  C   UNL     1      -9.959   2.590  72.642  1.00  0.00    -0.147 C  
HETATM   20  C   UNL     1      -9.169   3.765  73.072  1.00  0.00    -0.121 C  
HETATM   21  O   UNL     1      -9.378   1.550  72.334  1.00  0.00    -0.071 OA 
ENDROOT
BRANCH   4  22
HETATM   22  C   UNL     1     -12.467  10.116  72.329  1.00  0.00     0.083 C  
HETATM   23  C   UNL     1     -12.370  11.120  72.973  1.00  0.00     5.241 C  
ENDBRANCH   4  22
BRANCH   7  24
HETATM   24  C   UNL     1     -13.018  10.018  69.407  1.00  0.00     1.652 C  
HETATM   25  C   UNL     1     -14.382   9.602  68.865  1.00  0.00     8.856 C  
ENDBRANCH   7  24
TORSDOF 2
ENDMDL
MODEL      123
REMARK 921   NORMALIZED FREE ENERGY PREDICTED BY IDOCK:   16.37 KCAL/MOL
REMARK 922        TOTAL FREE ENERGY PREDICTED BY IDOCK:   18.03 KCAL/MOL
REMARK 923 INTER-LIGAND FREE ENERGY PREDICTED BY IDOCK:   18.00 KCAL/MOL
REMARK 924 INTRA-LIGAND FREE ENERGY PREDICTED BY IDOCK:    0.04 KCAL/MOL
REMARK 927      BINDING AFFINITY PREDICTED BY RF-SCORE:    0.00 PKD
ROOT
HETATM    1  C   UNL     1      -7.428  12.651  68.077  1.00  0.00    -0.120 C  
HETATM    2  C   UNL     1      -6.942  13.033  66.813  1.00  0.00     0.860 C  
HETATM    3  C   UNL     1      -8.400  12.804  66.951  1.00  0.00    -0.064 C  
HETATM    4  C   UNL     1      -9.084  12.709  68.889  1.00  0.00     0.324 C  
HETATM    5  C   UNL     1      -7.006   8.483  67.377  1.00  0.00    -0.078 C  
HETATM    6  O   UNL     1     -10.390  12.940  69.460  1.00  0.00    -0.232 OA 
HETATM    7  C   UNL     1      -9.038  13.760  68.020  1.00  0.00    -0.191 C  
HETATM    8  C   UNL     1     -10.563  12.990  67.202  1.00  0.00    -0.251 C  
HETATM    9  C   UNL     1      -7.872  10.835  68.097  1.00  0.00    -0.112 C  
HETATM   10  C   UNL     1      -8.357   8.206  66.758  1.00  0.00    -0.115 C  
HETATM   11  H   UNL     1     -10.706  12.896  70.355  1.00  0.00     0.000 HD 
HETATM   12  C   UNL     1     -10.665  11.337  67.543  1.00  0.00    -0.275 C  
HETATM   13  C   UNL     1      -6.705   9.979  67.546  1.00  0.00    -0.072 C  
HETATM   14  C   UNL     1      -9.381  10.379  67.341  1.00  0.00    -0.162 C  
HETATM   15  C   UNL     1     -11.780  10.967  68.206  1.00  0.00    -0.301 C  
HETATM   16  C   UNL     1      -9.542   8.830  67.491  1.00  0.00    -0.192 C  
HETATM   17  C   UNL     1     -10.878   8.237  66.990  1.00  0.00    -0.061 C  
HETATM   18  C   UNL     1     -11.002   7.891  65.523  1.00  0.00     5.020 C  
HETATM   19  C   UNL     1      -9.765   7.295  64.931  1.00  0.00     2.358 C  
HETATM   20  C   UNL     1      -8.467   7.518  65.606  1.00  0.00    -0.141 C  
HETATM   21  O   UNL     1      -9.795   6.680  63.866  1.00  0.00     3.229 OA 
ENDROOT
BRANCH   4  22
HETATM   22  C   UNL     1      -8.301  13.072  70.176  1.00  0.00     3.574 C  
HETATM   23  C   UNL     1      -7.717  13.471  71.142  1.00  0.00     5.410 C  
ENDBRANCH   4  22
BRANCH   7  24
HETATM   24  C   UNL     1      -9.093  15.243  68.303  1.00  0.00    -0.181 C  
HETATM   25  C   UNL     1      -9.543  16.012  67.065  1.00  0.00    -0.229 C  
ENDBRANCH   7  24
TORSDOF 2
ENDMDL
MODEL      124
REMARK 921   NORMALIZED FREE ENERGY PREDICTED BY IDOCK:   18.44 KCAL/MOL
REMARK 922        TOTAL FREE ENERGY PREDICTED BY IDOCK:   20.35 KCAL/MOL
REMARK 923 INTER-LIGAND FREE ENERGY PREDICTED BY IDOCK:   19.39 KCAL/MOL
REMARK 924 INTRA-LIGAND FREE ENERGY PREDICTED BY IDOCK:    0.95 KCAL/MOL
REMARK 927      BINDING AFFINITY PREDICTED BY RF-SCORE:    0.00 PKD
ROOT
HETATM    1  C   UNL     1      -8.988  17.388  66.353  1.00  0.00    -0.274 C  
HETATM    2  C   UNL     1      -7.753  17.215  65.703  1.00  0.00     0.617 C  
HETATM    3  C   UNL     1      -8.484  15.998  66.129  1.00  0.00    -0.247 C  
HETATM    4  C   UNL     1     -10.453  16.302  66.639  1.00  0.00    -0.290 C  
HETATM    5  C   UNL     1      -7.318  17.552  70.255  1.00  0.00     2.009 C  
HETATM    6  O   UNL     1     -11.587  15.408  66.672  1.00  0.00    -0.132 OA 
HETATM    7  C   UNL     1      -9.899  15.907  65.457  1.00  0.00    -0.265 C  
HETATM    8  C   UNL     1      -9.717  14.199  66.255  1.00  0.00    -0.315 C  
HETATM    9  C   UNL     1      -8.826  17.057  68.186  1.00  0.00    -0.227 C  
HETATM   10  C   UNL     1      -7.334  16.078  70.585  1.00  0.00     1.916 C  
HETATM   11  H   UNL     1     -12.496  15.548  66.908  1.00  0.00     0.000 HD 
HETATM   12  C   UNL     1      -9.713  14.315  67.942  1.00  0.00    -0.222 C  
HETATM   13  C   UNL     1      -7.642  17.855  68.785  1.00  0.00    -0.271 C  
HETATM   14  C   UNL     1      -8.757  15.383  68.686  1.00  0.00    -0.191 C  
HETATM   15  C   UNL     1     -10.714  13.650  68.555  1.00  0.00    -0.269 C  
HETATM   16  C   UNL     1      -8.636  15.355  70.247  1.00  0.00     0.864 C  
HETATM   17  C   UNL     1      -8.681  13.957  70.904  1.00  0.00     5.397 C  
HETATM   18  C   UNL     1      -7.392  13.172  71.004  1.00  0.00     4.351 C  
HETATM   19  C   UNL     1      -6.195  14.006  71.333  1.00  0.00     0.226 C  
HETATM   20  C   UNL     1      -6.241  15.462  71.072  1.00  0.00     0.465 C  
HETATM   21  O   UNL     1      -5.157  13.498  71.755  1.00  0.00    -0.150 OA 
ENDROOT
BRANCH   4  22
HETATM   22  C   UNL     1     -11.292  17.585  66.410  1.00  0.00     1.084 C  
HETATM   23  C   UNL     1     -11.832  18.636  66.216  1.00  0.00     2.947 C  
ENDBRANCH   4  22
BRANCH   7  24
HETATM   24  C   UNL     1     -10.480  15.948  64.063  1.00  0.00     2.345 C  
HETATM   25  C   UNL     1     -11.897  15.382  64.052  1.00  0.00     0.025 C  
ENDBRANCH   7  24
TORSDOF 2
ENDMDL
MODEL      125
REMARK 921   NORMALIZED FREE ENERGY PREDICTED BY IDOCK:   19.40 KCAL/MOL
REMARK 922        TOTAL FREE ENERGY PREDICTED BY IDOCK:   21.42 KCAL/MOL
REMARK 923 INTER-LIGAND FREE ENERGY PREDICTED BY IDOCK:   21.19 KCAL/MOL
REMARK 924 INTRA-LIGAND FREE ENERGY PREDICTED BY IDOCK:    0.22 KCAL/MOL
REMARK 927      BINDING AFFINITY PREDICTED BY RF-SCORE:    0.00 PKD
ROOT
HETATM    1  C   UNL     1     -10.258   8.277  69.746  1.00  0.00    -0.204 C  
HETATM    2  C   UNL     1      -9.063   7.540  69.663  1.00  0.00    -0.140 C  
HETATM    3  C   UNL     1      -8.989   8.913  70.216  1.00  0.00    -0.201 C  
HETATM    4  C   UNL     1     -10.800   9.741  70.732  1.00  0.00    -0.333 C  
HETATM    5  C   UNL     1      -9.887   9.992  65.877  1.00  0.00    -0.330 C  
HETATM    6  O   UNL     1     -11.148  10.792  71.658  1.00  0.00     0.822 OA 
HETATM    7  C   UNL     1      -9.886   9.073  71.493  1.00  0.00    -0.381 C  
HETATM    8  C   UNL     1      -8.892  10.684  71.492  1.00  0.00     6.120 C  
HETATM    9  C   UNL     1     -10.320   9.592  68.417  1.00  0.00    -0.237 C  
HETATM   10  C   UNL     1      -9.086  11.221  66.236  1.00  0.00    -0.209 C  
HETATM   11  H   UNL     1     -11.984  11.174  71.897  1.00  0.00     0.000 HD 
HETATM   12  C   UNL     1      -9.313  11.656  70.174  1.00  0.00     2.884 C  
HETATM   13  C   UNL     1     -10.010   8.983  67.028  1.00  0.00    -0.295 C  
HETATM   14  C   UNL     1      -9.370  11.035  68.684  1.00  0.00    -0.196 C  
HETATM   15  C   UNL     1      -9.817  12.863  70.503  1.00  0.00     5.174 C  
HETATM   16  C   UNL     1      -9.588  11.985  67.459  1.00  0.00    -0.177 C  
HETATM   17  C   UNL     1      -8.925  13.376  67.555  1.00  0.00    -0.207 C  
HETATM   18  C   UNL     1      -7.480  13.511  67.129  1.00  0.00     0.075 C  
HETATM   19  C   UNL     1      -7.123  12.704  65.922  1.00  0.00     3.135 C  
HETATM   20  C   UNL     1      -7.975  11.553  65.551  1.00  0.00     0.564 C  
HETATM   21  O   UNL     1      -6.106  12.939  65.271  1.00  0.00     5.816 OA 
ENDROOT
BRANCH   4  22
HETATM   22  C   UNL     1     -12.168   9.017  70.819  1.00  0.00    -0.119 C  
HETATM   23  C   UNL     1     -13.209   8.458  71.009  1.00  0.00     0.093 C  
ENDBRANCH   4  22
BRANCH   7  24
HETATM   24  C   UNL     1     -10.066   8.386  72.827  1.00  0.00    -0.268 C  
HETATM   25  C   UNL     1      -9.946   6.873  72.675  1.00  0.00    -0.191 C  
ENDBRANCH   7  24
TORSDOF 2
ENDMDL
MODEL      126
REMARK 921   NORMALIZED FREE ENERGY PREDICTED BY IDOCK:   21.13 KCAL/MOL
REMARK 922        TOTAL FREE ENERGY PREDICTED BY IDOCK:   23.35 KCAL/MOL
REMARK 923 INTER-LIGAND FREE ENERGY PREDICTED BY IDOCK:   22.03 KCAL/MOL
REMARK 924 INTRA-LIGAND FREE ENERGY PREDICTED BY IDOCK:    1.32 KCAL/MOL
REMARK 927      BINDING AFFINITY PREDICTED BY RF-SCORE:    0.00 PKD
ROOT
HETATM    1  C   UNL     1     -10.183   8.164  68.544  1.00  0.00    -0.233 C  
HETATM    2  C   UNL     1     -10.735   9.459  68.543  1.00  0.00    -0.203 C  
HETATM    3  C   UNL     1     -10.660   8.739  67.249  1.00  0.00    -0.303 C  
HETATM    4  C   UNL     1     -10.286   6.723  67.397  1.00  0.00    -0.197 C  
HETATM    5  C   UNL     1      -6.200   9.473  67.858  1.00  0.00    -0.053 C  
HETATM    6  O   UNL     1     -10.560   5.625  66.499  1.00  0.00    -0.319 OA 
HETATM    7  C   UNL     1     -11.468   7.394  67.287  1.00  0.00     0.799 C  
HETATM    8  C   UNL     1     -11.054   7.568  65.447  1.00  0.00     6.245 C  
HETATM    9  C   UNL     1      -8.462   8.175  67.813  1.00  0.00    -0.132 C  
HETATM   10  C   UNL     1      -6.209   9.483  66.347  1.00  0.00    -0.064 C  
HETATM   11  H   UNL     1     -10.387   4.693  66.568  1.00  0.00     0.000 HD 
HETATM   12  C   UNL     1      -9.391   7.418  65.181  1.00  0.00     0.890 C  
HETATM   13  C   UNL     1      -7.591   9.270  68.477  1.00  0.00    -0.085 C  
HETATM   14  C   UNL     1      -8.341   8.263  66.071  1.00  0.00    -0.130 C  
HETATM   15  C   UNL     1      -9.039   6.392  64.379  1.00  0.00     0.941 C  
HETATM   16  C   UNL     1      -6.821   8.245  65.696  1.00  0.00    -0.066 C  
HETATM   17  C   UNL     1      -6.498   8.195  64.187  1.00  0.00    -0.066 C  
HETATM   18  C   UNL     1      -6.451   9.498  63.421  1.00  0.00    -0.102 C  
HETATM   19  C   UNL     1      -5.833  10.629  64.180  1.00  0.00     0.006 C  
HETATM   20  C   UNL     1      -5.768  10.551  65.656  1.00  0.00    -0.123 C  
HETATM   21  O   UNL     1      -5.437  11.644  63.608  1.00  0.00     0.778 OA 
ENDROOT
BRANCH   4  22
HETATM   22  C   UNL     1     -10.304   5.859  68.684  1.00  0.00    -0.271 C  
HETATM   23  C   UNL     1     -10.436   5.167  69.652  1.00  0.00    -0.262 C  
ENDBRANCH   4  22
BRANCH   7  24
HETATM   24  C   UNL     1     -12.867   6.939  67.629  1.00  0.00     9.429 C  
HETATM   25  C   UNL     1     -12.983   6.625  69.118  1.00  0.00     5.550 C  
ENDBRANCH   7  24
TORSDOF 2
ENDMDL
MODEL      127
REMARK 921   NORMALIZED FREE ENERGY PREDICTED BY IDOCK:   30.15 KCAL/MOL
REMARK 922        TOTAL FREE ENERGY PREDICTED BY IDOCK:   33.42 KCAL/MOL
REMARK 923 INTER-LIGAND FREE ENERGY PREDICTED BY IDOCK:   31.77 KCAL/MOL
REMARK 924 INTRA-LIGAND FREE ENERGY PREDICTED BY IDOCK:    1.65 KCAL/MOL
REMARK 927      BINDING AFFINITY PREDICTED BY RF-SCORE:    0.00 PKD
ROOT
HETATM    1  C   UNL     1     -10.629  15.117  67.150  1.00  0.00    -0.295 C  
HETATM    2  C   UNL     1     -11.970  15.502  66.964  1.00  0.00     0.479 C  
HETATM    3  C   UNL     1     -11.046  16.492  67.567  1.00  0.00    -0.078 C  
HETATM    4  C   UNL     1      -9.048  16.041  67.381  1.00  0.00    -0.199 C  
HETATM    5  C   UNL     1     -11.242  13.559  71.054  1.00  0.00     1.612 C  
HETATM    6  O   UNL     1      -7.868  16.872  67.408  1.00  0.00    -0.163 OA 
HETATM    7  C   UNL     1      -9.850  16.827  66.608  1.00  0.00    -0.287 C  
HETATM    8  C   UNL     1      -9.663  18.136  67.963  1.00  0.00    -0.316 C  
HETATM    9  C   UNL     1     -10.281  14.771  68.955  1.00  0.00    -0.237 C  
HETATM   10  C   UNL     1     -11.007  14.819  71.854  1.00  0.00     0.706 C  
HETATM   11  H   UNL     1      -6.945  16.664  67.322  1.00  0.00     0.000 HD 
HETATM   12  C   UNL     1      -9.242  17.426  69.439  1.00  0.00     0.308 C  
HETATM   13  C   UNL     1     -11.338  13.803  69.541  1.00  0.00    -0.283 C  
HETATM   14  C   UNL     1     -10.066  16.156  70.000  1.00  0.00     0.031 C  
HETATM   15  C   UNL     1      -8.060  17.836  69.944  1.00  0.00     1.574 C  
HETATM   16  C   UNL     1      -9.777  15.625  71.444  1.00  0.00     2.598 C  
HETATM   17  C   UNL     1      -9.436  16.696  72.504  1.00  0.00    10.887 C  
HETATM   18  C   UNL     1     -10.578  17.384  73.218  1.00  0.00     4.821 C  
HETATM   19  C   UNL     1     -11.720  16.479  73.553  1.00  0.00     0.037 C  
HETATM   20  C   UNL     1     -11.876  15.212  72.804  1.00  0.00    -0.464 C  
HETATM   21  O   UNL     1     -12.564  16.795  74.392  1.00  0.00    -0.666 OA 
ENDROOT
BRANCH   4  22
HETATM   22  C   UNL     1      -8.417  14.930  66.502  1.00  0.00    -0.040 C  
HETATM   23  C   UNL     1      -7.838  14.152  65.801  1.00  0.00     3.985 C  
ENDBRANCH   4  22
BRANCH   7  24
HETATM   24  C   UNL     1      -9.656  17.291  65.183  1.00  0.00     1.559 C  
HETATM   25  C   UNL     1      -9.263  16.122  64.284  1.00  0.00     6.206 C  
ENDBRANCH   7  24
TORSDOF 2
ENDMDL
MODEL      128
REMARK 921   NORMALIZED FREE ENERGY PREDICTED BY IDOCK:   38.05 KCAL/MOL
REMARK 922        TOTAL FREE ENERGY PREDICTED BY IDOCK:   42.25 KCAL/MOL
REMARK 923 INTER-LIGAND FREE ENERGY PREDICTED BY IDOCK:   42.46 KCAL/MOL
REMARK 924 INTRA-LIGAND FREE ENERGY PREDICTED BY IDOCK:   -0.21 KCAL/MOL
REMARK 927      BINDING AFFINITY PREDICTED BY RF-SCORE:    0.00 PKD
ROOT
HETATM    1  C   UNL     1     -11.053   8.815  68.192  1.00  0.00     0.245 C  
HETATM    2  C   UNL     1     -10.415   8.177  67.112  1.00  0.00    -0.396 C  
HETATM    3  C   UNL     1     -10.875   7.331  68.240  1.00  0.00    -0.114 C  
HETATM    4  C   UNL     1     -12.186   8.247  69.534  1.00  0.00     1.880 C  
HETATM    5  C   UNL     1      -7.472   9.490  70.375  1.00  0.00    -0.158 C  
HETATM    6  O   UNL     1     -13.172   7.711  70.442  1.00  0.00    -0.056 OA 
HETATM    7  C   UNL     1     -12.425   7.446  68.455  1.00  0.00     4.504 C  
HETATM    8  C   UNL     1     -11.965   5.998  69.584  1.00  0.00     1.061 C  
HETATM    9  C   UNL     1      -9.916   8.910  69.673  1.00  0.00    -0.193 C  
HETATM   10  C   UNL     1      -7.419   8.195  71.153  1.00  0.00    -0.074 C  
HETATM   11  H   UNL     1     -13.778   8.134  71.039  1.00  0.00     0.000 HD 
HETATM   12  C   UNL     1     -11.004   6.516  70.876  1.00  0.00    -0.325 C  
HETATM   13  C   UNL     1      -8.541   9.498  69.272  1.00  0.00    -0.149 C  
HETATM   14  C   UNL     1      -9.713   7.449  70.612  1.00  0.00    -0.175 C  
HETATM   15  C   UNL     1     -11.538   6.302  72.096  1.00  0.00    -0.367 C  
HETATM   16  C   UNL     1      -8.739   7.772  71.794  1.00  0.00    -0.147 C  
HETATM   17  C   UNL     1      -8.519   6.638  72.819  1.00  0.00    -0.122 C  
HETATM   18  C   UNL     1      -7.465   5.596  72.518  1.00  0.00    -0.097 C  
HETATM   19  C   UNL     1      -6.227   6.147  71.885  1.00  0.00    -0.042 C  
HETATM   20  C   UNL     1      -6.295   7.457  71.199  1.00  0.00    -0.036 C  
HETATM   21  O   UNL     1      -5.176   5.508  71.868  1.00  0.00    -0.011 OA 
ENDROOT
BRANCH   4  22
HETATM   22  C   UNL     1     -12.902   9.607  69.333  1.00  0.00     2.084 C  
HETATM   23  C   UNL     1     -13.395  10.696  69.280  1.00  0.00     2.330 C  
ENDBRANCH   4  22
BRANCH   7  24
HETATM   24  C   UNL     1     -13.684   7.294  67.633  1.00  0.00    19.511 C  
HETATM   25  C   UNL     1     -13.410   6.476  66.375  1.00  0.00    13.304 C  
ENDBRANCH   7  24
TORSDOF 2
ENDMDL
MODEL      129
REMARK 921   NORMALIZED FREE ENERGY PREDICTED BY IDOCK:   46.43 KCAL/MOL
REMARK 922        TOTAL FREE ENERGY PREDICTED BY IDOCK:   51.60 KCAL/MOL
REMARK 923 INTER-LIGAND FREE ENERGY PREDICTED BY IDOCK:   49.99 KCAL/MOL
REMARK 924 INTRA-LIGAND FREE ENERGY PREDICTED BY IDOCK:    1.61 KCAL/MOL
REMARK 927      BINDING AFFINITY PREDICTED BY RF-SCORE:    0.00 PKD
ROOT
HETATM    1  C   UNL     1      -8.716   9.838  72.339  1.00  0.00     3.607 C  
HETATM    2  C   UNL     1      -7.529   9.431  71.703  1.00  0.00     0.408 C  
HETATM    3  C   UNL     1      -8.812   9.146  71.017  1.00  0.00    -0.267 C  
HETATM    4  C   UNL     1     -10.438  10.162  71.760  1.00  0.00     2.095 C  
HETATM    5  C   UNL     1      -9.242   6.204  74.474  1.00  0.00    -0.173 C  
HETATM    6  O   UNL     1     -11.703  10.521  71.163  1.00  0.00    -0.329 OA 
HETATM    7  C   UNL     1      -9.613  10.462  70.717  1.00  0.00     1.398 C  
HETATM    8  C   UNL     1     -10.583   9.164  69.737  1.00  0.00    -0.240 C  
HETATM    9  C   UNL     1      -9.614   8.371  73.072  1.00  0.00    -0.215 C  
HETATM   10  C   UNL     1     -10.040   5.436  73.446  1.00  0.00    -0.201 C  
HETATM   11  H   UNL     1     -12.455  10.990  71.507  1.00  0.00     0.000 HD 
HETATM   12  C   UNL     1     -11.342   8.065  70.773  1.00  0.00    -0.282 C  
HETATM   13  C   UNL     1      -8.655   7.517  73.937  1.00  0.00    -0.264 C  
HETATM   14  C   UNL     1     -10.513   7.358  71.966  1.00  0.00    -0.230 C  
HETATM   15  C   UNL     1     -12.687   8.034  70.674  1.00  0.00     0.356 C  
HETATM   16  C   UNL     1     -11.183   6.216  72.800  1.00  0.00    -0.278 C  
HETATM   17  C   UNL     1     -12.127   5.274  72.022  1.00  0.00     0.768 C  
HETATM   18  C   UNL     1     -11.521   4.094  71.295  1.00  0.00     2.980 C  
HETATM   19  C   UNL     1     -10.407   3.428  72.037  1.00  0.00     0.042 C  
HETATM   20  C   UNL     1      -9.698   4.182  73.095  1.00  0.00    -0.159 C  
HETATM   21  O   UNL     1     -10.030   2.294  71.745  1.00  0.00    -0.153 OA 
ENDROOT
BRANCH   4  22
HETATM   22  C   UNL     1     -10.426  11.332  72.778  1.00  0.00    14.052 C  
HETATM   23  C   UNL     1     -10.480  12.300  73.479  1.00  0.00    21.639 C  
ENDBRANCH   4  22
BRANCH   7  24
HETATM   24  C   UNL     1      -9.370  11.789  70.034  1.00  0.00     2.599 C  
HETATM   25  C   UNL     1     -10.459  12.792  70.403  1.00  0.00     2.836 C  
ENDBRANCH   7  24
TORSDOF 2
ENDMDL
MODEL      130
REMARK 921   NORMALIZED FREE ENERGY PREDICTED BY IDOCK:   51.30 KCAL/MOL
REMARK 922        TOTAL FREE ENERGY PREDICTED BY IDOCK:   57.05 KCAL/MOL
REMARK 923 INTER-LIGAND FREE ENERGY PREDICTED BY IDOCK:   56.64 KCAL/MOL
REMARK 924 INTRA-LIGAND FREE ENERGY PREDICTED BY IDOCK:    0.41 KCAL/MOL
REMARK 927      BINDING AFFINITY PREDICTED BY RF-SCORE:    0.00 PKD
ROOT
HETATM    1  C   UNL     1      -9.696   8.753  63.740  1.00  0.00     2.346 C  
HETATM    2  C   UNL     1      -8.426   8.856  63.143  1.00  0.00    -0.162 C  
HETATM    3  C   UNL     1      -8.556   7.996  64.344  1.00  0.00     0.161 C  
HETATM    4  C   UNL     1     -10.488   7.530  64.872  1.00  0.00     5.732 C  
HETATM    5  C   UNL     1      -9.127  12.046  66.362  1.00  0.00    -0.193 C  
HETATM    6  O   UNL     1     -11.039   6.435  65.637  1.00  0.00     1.118 OA 
HETATM    7  C   UNL     1      -9.589   6.837  64.117  1.00  0.00     2.959 C  
HETATM    8  C   UNL     1      -8.779   6.344  65.756  1.00  0.00    -0.135 C  
HETATM    9  C   UNL     1      -9.767   9.739  65.327  1.00  0.00    -0.371 C  
HETATM   10  C   UNL     1      -8.504  11.317  67.529  1.00  0.00    -0.131 C  
HETATM   11  H   UNL     1     -11.931   6.220  65.881  1.00  0.00     0.000 HD 
HETATM   12  C   UNL     1      -9.169   7.443  66.980  1.00  0.00    -0.169 C  
HETATM   13  C   UNL     1      -9.254  11.182  65.098  1.00  0.00    -0.209 C  
HETATM   14  C   UNL     1      -9.009   9.032  66.735  1.00  0.00    -0.160 C  
HETATM   15  C   UNL     1      -9.831   6.909  68.027  1.00  0.00    -0.153 C  
HETATM   16  C   UNL     1      -9.205  10.022  67.931  1.00  0.00    -0.145 C  
HETATM   17  C   UNL     1      -8.709   9.526  69.308  1.00  0.00    -0.151 C  
HETATM   18  C   UNL     1      -7.251   9.729  69.658  1.00  0.00    -0.097 C  
HETATM   19  C   UNL     1      -6.691  11.037  69.198  1.00  0.00    -0.084 C  
HETATM   20  C   UNL     1      -7.372  11.765  68.105  1.00  0.00    -0.094 C  
HETATM   21  O   UNL     1      -5.645  11.486  69.665  1.00  0.00    -0.058 OA 
ENDROOT
BRANCH   4  22
HETATM   22  C   UNL     1     -11.772   7.781  64.041  1.00  0.00    20.649 C  
HETATM   23  C   UNL     1     -12.810   8.032  63.499  1.00  0.00    23.994 C  
ENDBRANCH   4  22
BRANCH   7  24
HETATM   24  C   UNL     1      -9.826   5.730  63.116  1.00  0.00     2.084 C  
HETATM   25  C   UNL     1      -9.316   4.397  63.655  1.00  0.00    -0.096 C  
ENDBRANCH   7  24
TORSDOF 2
ENDMDL
MODEL      131
REMARK 921   NORMALIZED FREE ENERGY PREDICTED BY IDOCK:   60.67 KCAL/MOL
REMARK 922        TOTAL FREE ENERGY PREDICTED BY IDOCK:   67.51 KCAL/MOL
REMARK 923 INTER-LIGAND FREE ENERGY PREDICTED BY IDOCK:   67.25 KCAL/MOL
REMARK 924 INTRA-LIGAND FREE ENERGY PREDICTED BY IDOCK:    0.26 KCAL/MOL
REMARK 927      BINDING AFFINITY PREDICTED BY RF-SCORE:    0.00 PKD
ROOT
HETATM    1  C   UNL     1     -11.843   8.229  67.934  1.00  0.00     2.895 C  
HETATM    2  C   UNL     1     -11.627   9.477  67.320  1.00  0.00     1.746 C  
HETATM    3  C   UNL     1     -10.592   8.981  68.259  1.00  0.00    -0.213 C  
HETATM    4  C   UNL     1     -10.744   6.989  68.746  1.00  0.00    -0.194 C  
HETATM    5  C   UNL     1     -13.887   9.833  71.295  1.00  0.00    -0.101 C  
HETATM    6  O   UNL     1      -9.767   6.039  69.224  1.00  0.00    -0.136 OA 
HETATM    7  C   UNL     1      -9.994   7.608  67.789  1.00  0.00    -0.219 C  
HETATM    8  C   UNL     1      -8.827   8.099  69.198  1.00  0.00    -0.144 C  
HETATM    9  C   UNL     1     -12.333   8.446  69.726  1.00  0.00     1.584 C  
HETATM   10  C   UNL     1     -12.701  10.088  72.197  1.00  0.00    -0.354 C  
HETATM   11  H   UNL     1      -9.837   5.118  69.449  1.00  0.00     0.000 HD 
HETATM   12  C   UNL     1      -9.630   8.079  70.686  1.00  0.00    -0.172 C  
HETATM   13  C   UNL     1     -13.494   9.461  69.858  1.00  0.00     1.910 C  
HETATM   14  C   UNL     1     -11.054   8.820  70.857  1.00  0.00    -0.320 C  
HETATM   15  C   UNL     1      -9.120   7.215  71.588  1.00  0.00    -0.141 C  
HETATM   16  C   UNL     1     -11.695   8.941  72.280  1.00  0.00    -0.351 C  
HETATM   17  C   UNL     1     -10.710   9.153  73.451  1.00  0.00     3.652 C  
HETATM   18  C   UNL     1     -10.265  10.564  73.766  1.00  0.00    15.869 C  
HETATM   19  C   UNL     1     -11.349  11.587  73.637  1.00  0.00    15.762 C  
HETATM   20  C   UNL     1     -12.536  11.274  72.810  1.00  0.00     3.257 C  
HETATM   21  O   UNL     1     -11.244  12.700  74.151  1.00  0.00    10.601 OA 
ENDROOT
BRANCH   4  22
HETATM   22  C   UNL     1     -11.656   5.929  68.077  1.00  0.00     1.205 C  
HETATM   23  C   UNL     1     -12.256   5.049  67.531  1.00  0.00     8.408 C  
ENDBRANCH   4  22
BRANCH   7  24
HETATM   24  C   UNL     1      -9.356   7.032  66.546  1.00  0.00    -0.201 C  
HETATM   25  C   UNL     1     -10.166   7.397  65.306  1.00  0.00     2.909 C  
ENDBRANCH   7  24
TORSDOF 2
ENDMDL
MODEL      132
REMARK 921   NORMALIZED FREE ENERGY PREDICTED BY IDOCK:   72.13 KCAL/MOL
REMARK 922        TOTAL FREE ENERGY PREDICTED BY IDOCK:   80.31 KCAL/MOL
REMARK 923 INTER-LIGAND FREE ENERGY PREDICTED BY IDOCK:   78.85 KCAL/MOL
REMARK 924 INTRA-LIGAND FREE ENERGY PREDICTED BY IDOCK:    1.46 KCAL/MOL
REMARK 927      BINDING AFFINITY PREDICTED BY RF-SCORE:    0.00 PKD
ROOT
HETATM    1  C   UNL     1      -7.553  16.571  70.636  1.00  0.00     3.032 C  
HETATM    2  C   UNL     1      -6.500  15.640  70.715  1.00  0.00     0.589 C  
HETATM    3  C   UNL     1      -6.302  16.835  69.860  1.00  0.00    -0.085 C  
HETATM    4  C   UNL     1      -7.663  18.349  70.153  1.00  0.00     1.772 C  
HETATM    5  C   UNL     1      -9.427  14.704  67.312  1.00  0.00    -0.221 C  
HETATM    6  O   UNL     1      -7.594  19.767  69.893  1.00  0.00     0.024 OA 
HETATM    7  C   UNL     1      -6.420  18.164  70.685  1.00  0.00     1.086 C  
HETATM    8  C   UNL     1      -5.754  18.776  69.021  1.00  0.00    -0.219 C  
HETATM    9  C   UNL     1      -8.437  16.434  68.994  1.00  0.00    -0.225 C  
HETATM   10  C   UNL     1      -8.696  15.413  66.196  1.00  0.00    -0.129 C  
HETATM   11  H   UNL     1      -8.223  20.467  70.028  1.00  0.00     0.000 HD 
HETATM   12  C   UNL     1      -6.899  18.570  67.795  1.00  0.00    -0.217 C  
HETATM   13  C   UNL     1      -8.825  14.964  68.701  1.00  0.00    -0.179 C  
HETATM   14  C   UNL     1      -7.650  17.152  67.607  1.00  0.00    -0.180 C  
HETATM   15  C   UNL     1      -7.290  19.711  67.191  1.00  0.00    -0.245 C  
HETATM   16  C   UNL     1      -8.573  16.926  66.364  1.00  0.00    -0.328 C  
HETATM   17  C   UNL     1      -8.113  17.594  65.049  1.00  0.00     3.248 C  
HETATM   18  C   UNL     1      -7.122  16.854  64.179  1.00  0.00    10.512 C  
HETATM   19  C   UNL     1      -7.355  15.378  64.110  1.00  0.00    18.267 C  
HETATM   20  C   UNL     1      -8.144  14.726  65.178  1.00  0.00     6.190 C  
HETATM   21  O   UNL     1      -6.854  14.691  63.221  1.00  0.00    19.495 OA 
ENDROOT
BRANCH   4  22
HETATM   22  C   UNL     1      -8.700  18.466  71.299  1.00  0.00     7.747 C  
HETATM   23  C   UNL     1      -9.567  18.629  72.108  1.00  0.00     7.375 C  
ENDBRANCH   4  22
BRANCH   7  24
HETATM   24  C   UNL     1      -5.808  18.769  71.927  1.00  0.00     0.511 C  
HETATM   25  C   UNL     1      -6.629  19.961  72.408  1.00  0.00     1.033 C  
ENDBRANCH   7  24
TORSDOF 2
ENDMDL
MODEL      133
REMARK 921   NORMALIZED FREE ENERGY PREDICTED BY IDOCK:   83.16 KCAL/MOL
REMARK 922        TOTAL FREE ENERGY PREDICTED BY IDOCK:   92.63 KCAL/MOL
REMARK 923 INTER-LIGAND FREE ENERGY PREDICTED BY IDOCK:   91.92 KCAL/MOL
REMARK 924 INTRA-LIGAND FREE ENERGY PREDICTED BY IDOCK:    0.72 KCAL/MOL
REMARK 927      BINDING AFFINITY PREDICTED BY RF-SCORE:    0.00 PKD
ROOT
HETATM    1  C   UNL     1     -10.947  14.501  67.012  1.00  0.00    -0.312 C  
HETATM    2  C   UNL     1     -11.585  15.101  65.910  1.00  0.00    -0.086 C  
HETATM    3  C   UNL     1     -12.377  14.159  66.737  1.00  0.00    -0.333 C  
HETATM    4  C   UNL     1     -11.545  13.693  68.559  1.00  0.00    -0.335 C  
HETATM    5  C   UNL     1      -9.542  11.142  64.825  1.00  0.00    -0.279 C  
HETATM    6  O   UNL     1     -12.131  13.216  69.790  1.00  0.00    -0.307 OA 
HETATM    7  C   UNL     1     -12.472  14.637  68.229  1.00  0.00     0.235 C  
HETATM    8  C   UNL     1     -13.721  13.214  68.177  1.00  0.00     8.164 C  
HETATM    9  C   UNL     1     -10.542  12.712  66.651  1.00  0.00    -0.267 C  
HETATM   10  C   UNL     1     -10.733  10.228  64.998  1.00  0.00     0.338 C  
HETATM   11  H   UNL     1     -11.747  13.001  70.632  1.00  0.00     0.000 HD 
HETATM   12  C   UNL     1     -12.944  11.733  67.930  1.00  0.00     3.781 C  
HETATM   13  C   UNL     1      -9.799  12.580  65.299  1.00  0.00    -0.157 C  
HETATM   14  C   UNL     1     -11.859  11.566  66.745  1.00  0.00     0.180 C  
HETATM   15  C   UNL     1     -13.116  10.835  68.922  1.00  0.00     2.557 C  
HETATM   16  C   UNL     1     -11.283  10.148  66.421  1.00  0.00     0.520 C  
HETATM   17  C   UNL     1     -12.268   8.967  66.568  1.00  0.00     8.692 C  
HETATM   18  C   UNL     1     -13.166   8.634  65.397  1.00  0.00    22.756 C  
HETATM   19  C   UNL     1     -12.501   8.762  64.064  1.00  0.00    20.315 C  
HETATM   20  C   UNL     1     -11.289   9.601  63.945  1.00  0.00     7.098 C  
HETATM   21  O   UNL     1     -12.976   8.237  63.058  1.00  0.00    17.056 OA 
ENDROOT
BRANCH   4  22
HETATM   22  C   UNL     1     -10.332  14.379  69.237  1.00  0.00    -0.116 C  
HETATM   23  C   UNL     1      -9.332  14.887  69.656  1.00  0.00     0.084 C  
ENDBRANCH   4  22
BRANCH   7  24
HETATM   24  C   UNL     1     -12.888  15.880  68.981  1.00  0.00     1.237 C  
HETATM   25  C   UNL     1     -11.865  16.995  68.787  1.00  0.00     1.096 C  
ENDBRANCH   7  24
TORSDOF 2
ENDMDL
