MODEL        1
REMARK 921   NORMALIZED FREE ENERGY PREDICTED BY IDOCK:   -9.50 KCAL/MOL
REMARK 922        TOTAL FREE ENERGY PREDICTED BY IDOCK:  -13.52 KCAL/MOL
REMARK 923 INTER-LIGAND FREE ENERGY PREDICTED BY IDOCK:  -12.28 KCAL/MOL
REMARK 924 INTRA-LIGAND FREE ENERGY PREDICTED BY IDOCK:   -1.23 KCAL/MOL
REMARK 927      BINDING AFFINITY PREDICTED BY RF-SCORE:    0.00 PKD
ROOT
HETATM    1  C   UNL     1     -11.342  11.211  68.525  1.00  0.00    -0.348 C  
HETATM    2  C   UNL     1     -12.192  11.317  69.757  1.00  0.00    -0.275 C  
HETATM    3  O   UNL     1     -12.271  12.734  69.977  1.00  0.00    -0.284 OA 
HETATM    4  C   UNL     1     -11.194  13.355  69.392  1.00  0.00    -0.175 C  
HETATM    5  C   UNL     1     -10.344  12.337  68.690  1.00  0.00    -0.204 C  
HETATM    6  O   UNL     1     -10.924  14.534  69.553  1.00  0.00    -0.250 OA 
HETATM    7  C   UNL     1      -9.624  12.651  67.366  1.00  0.00    -0.194 C  
HETATM    8  C   UNL     1     -10.660   9.898  68.191  1.00  0.00    -0.227 C  
HETATM    9  C   UNL     1      -9.249  11.368  66.608  1.00  0.00    -0.191 A  
HETATM   10  C   UNL     1      -8.426  11.466  65.467  1.00  0.00     0.163 A  
HETATM   11  O   UNL     1      -7.469  10.268  63.570  1.00  0.00    -0.147 OA 
HETATM   12  C   UNL     1      -8.188  10.329  64.723  1.00  0.00    -0.163 A  
HETATM   13  C   UNL     1      -9.750  10.083  66.991  1.00  0.00    -0.227 A  
HETATM   14  C   UNL     1      -8.708   9.107  65.075  1.00  0.00    -0.189 A  
HETATM   15  C   UNL     1      -7.683   8.893  63.190  1.00  0.00    -0.119 C  
HETATM   16  O   UNL     1      -8.401   8.130  64.181  1.00  0.00    -0.125 OA 
HETATM   17  C   UNL     1      -9.469   8.947  66.206  1.00  0.00    -0.304 A  
ENDROOT
BRANCH   7  18
HETATM   18  C   UNL     1     -10.394  13.671  66.528  1.00  0.00    -0.282 A  
HETATM   19  O   UNL     1     -11.867  16.248  63.589  1.00  0.00    -1.404 OA 
HETATM   20  C   UNL     1     -10.613  15.879  65.557  1.00  0.00    -0.401 A  
HETATM   21  C   UNL     1     -11.337  13.207  65.599  1.00  0.00    -0.328 A  
HETATM   22  H   UNL     1     -11.587  17.155  63.561  1.00  0.00     0.000 HD 
HETATM   23  C   UNL     1     -10.089  15.037  66.536  1.00  0.00    -0.286 A  
HETATM   24  C   UNL     1     -11.472  15.369  64.568  1.00  0.00    -0.311 A  
HETATM   25  C   UNL     1     -11.883  14.035  64.610  1.00  0.00    -0.417 A  
BRANCH  25  26
HETATM   26  O   UNL     1     -12.753  13.347  63.810  1.00  0.00    -0.685 OA 
HETATM   27  C   UNL     1     -12.515  12.002  63.461  1.00  0.00    -0.540 C  
ENDBRANCH  25  26
BRANCH  20  28
HETATM   28  O   UNL     1     -10.267  17.212  65.454  1.00  0.00    -0.605 OA 
HETATM   29  C   UNL     1     -10.390  17.987  66.642  1.00  0.00    -0.371 C  
ENDBRANCH  20  28
ENDBRANCH   7  18
BRANCH   8  30
HETATM   30  O   UNL     1     -10.100   9.125  69.231  1.00  0.00    -0.182 OA 
BRANCH  30  31
HETATM   31  C   UNL     1     -10.793   8.139  70.003  1.00  0.00    -0.233 C  
HETATM   32  O   UNL     1     -10.333   8.069  71.359  1.00  0.00    -0.195 OA 
HETATM   33  C   UNL     1     -10.788   6.883  72.030  1.00  0.00    -0.225 C  
HETATM   34  C   UNL     1     -10.457   6.857  73.524  1.00  0.00    -0.352 C  
HETATM   35  O   UNL     1     -10.827   5.599  74.092  1.00  0.00    -0.173 OA 
HETATM   36  C   UNL     1     -10.144   4.519  73.462  1.00  0.00    -0.158 C  
HETATM   37  C   UNL     1     -10.608   3.200  74.065  1.00  0.00    -0.265 C  
HETATM   38  O   UNL     1     -10.462   4.453  72.075  1.00  0.00    -0.155 OA 
HETATM   39  C   UNL     1     -10.130   5.664  71.394  1.00  0.00    -0.200 C  
HETATM   40  C   UNL     1     -10.671   5.527  69.983  1.00  0.00    -0.286 C  
HETATM   41  O   UNL     1      -9.961   4.478  69.305  1.00  0.00    -0.194 OA 
HETATM   42  C   UNL     1     -10.567   6.830  69.187  1.00  0.00    -0.232 C  
HETATM   43  H   UNL     1     -10.300   4.392  68.422  1.00  0.00     0.000 HD 
HETATM   44  O   UNL     1     -11.506   6.807  68.083  1.00  0.00    -0.545 OA 
HETATM   45  H   UNL     1     -11.369   6.009  67.585  1.00  0.00     0.000 HD 
ENDBRANCH  30  31
ENDBRANCH   8  30
TORSDOF 5
ENDMDL
MODEL        2
REMARK 921   NORMALIZED FREE ENERGY PREDICTED BY IDOCK:   -8.88 KCAL/MOL
REMARK 922        TOTAL FREE ENERGY PREDICTED BY IDOCK:  -12.71 KCAL/MOL
REMARK 923 INTER-LIGAND FREE ENERGY PREDICTED BY IDOCK:  -11.75 KCAL/MOL
REMARK 924 INTRA-LIGAND FREE ENERGY PREDICTED BY IDOCK:   -0.95 KCAL/MOL
REMARK 927      BINDING AFFINITY PREDICTED BY RF-SCORE:    0.00 PKD
ROOT
HETATM    1  C   UNL     1     -10.468  13.874  68.966  1.00  0.00    -0.147 C  
HETATM    2  C   UNL     1     -10.632  15.195  69.660  1.00  0.00    -0.263 C  
HETATM    3  O   UNL     1     -11.629  14.916  70.656  1.00  0.00    -0.271 OA 
HETATM    4  C   UNL     1     -12.386  13.837  70.266  1.00  0.00    -0.337 C  
HETATM    5  C   UNL     1     -11.869  13.303  68.963  1.00  0.00    -0.365 C  
HETATM    6  O   UNL     1     -13.399  13.479  70.843  1.00  0.00    -0.088 OA 
HETATM    7  C   UNL     1     -11.865  11.797  68.645  1.00  0.00    -0.369 C  
HETATM    8  C   UNL     1      -9.834  13.821  67.589  1.00  0.00    -0.234 C  
HETATM    9  C   UNL     1     -10.871  11.459  67.522  1.00  0.00    -0.291 A  
HETATM   10  C   UNL     1     -10.869  10.156  66.981  1.00  0.00    -0.221 A  
HETATM   11  O   UNL     1      -9.727   8.600  65.491  1.00  0.00    -0.015 OA 
HETATM   12  C   UNL     1      -9.901   9.824  66.058  1.00  0.00    -0.274 A  
HETATM   13  C   UNL     1      -9.913  12.407  67.042  1.00  0.00    -0.218 A  
HETATM   14  C   UNL     1      -8.958  10.729  65.634  1.00  0.00    -0.189 A  
HETATM   15  C   UNL     1      -8.512   8.816  64.744  1.00  0.00    -0.160 C  
HETATM   16  O   UNL     1      -8.064  10.186  64.767  1.00  0.00    -0.146 OA 
HETATM   17  C   UNL     1      -8.950  12.026  66.087  1.00  0.00    -0.079 A  
ENDROOT
BRANCH   7  18
HETATM   18  C   UNL     1     -11.695  10.950  69.905  1.00  0.00    -0.418 A  
HETATM   19  O   UNL     1     -11.302   7.925  72.758  1.00  0.00    -0.382 OA 
HETATM   20  C   UNL     1     -12.615   9.547  71.652  1.00  0.00    -0.388 A  
HETATM   21  C   UNL     1     -10.427  10.430  70.204  1.00  0.00    -0.185 A  
HETATM   22  H   UNL     1     -12.063   7.604  73.227  1.00  0.00     0.000 HD 
HETATM   23  C   UNL     1     -12.780  10.543  70.691  1.00  0.00    -0.441 A  
HETATM   24  C   UNL     1     -11.354   8.961  71.858  1.00  0.00    -0.376 A  
HETATM   25  C   UNL     1     -10.236   9.434  71.170  1.00  0.00    -0.291 A  
BRANCH  25  26
HETATM   26  O   UNL     1      -8.920   9.072  71.257  1.00  0.00    -0.225 OA 
HETATM   27  C   UNL     1      -8.265   8.436  70.181  1.00  0.00    -0.117 C  
ENDBRANCH  25  26
BRANCH  20  28
HETATM   28  O   UNL     1     -13.668   9.035  72.385  1.00  0.00    -0.453 OA 
HETATM   29  C   UNL     1     -14.290   7.866  71.860  1.00  0.00    -0.436 C  
ENDBRANCH  20  28
ENDBRANCH   7  18
BRANCH   8  30
HETATM   30  O   UNL     1     -10.143  14.827  66.647  1.00  0.00    -0.253 OA 
BRANCH  30  31
HETATM   31  C   UNL     1      -9.282  15.906  66.268  1.00  0.00    -0.337 C  
HETATM   32  O   UNL     1      -8.230  16.137  67.214  1.00  0.00    -0.157 OA 
HETATM   33  C   UNL     1      -7.577  17.399  67.008  1.00  0.00    -0.205 C  
HETATM   34  C   UNL     1      -6.343  17.604  67.891  1.00  0.00    -0.167 C  
HETATM   35  O   UNL     1      -5.826  18.925  67.721  1.00  0.00    -0.192 OA 
HETATM   36  C   UNL     1      -6.793  19.915  68.063  1.00  0.00    -0.274 C  
HETATM   37  C   UNL     1      -6.213  21.301  67.818  1.00  0.00    -0.375 C  
HETATM   38  O   UNL     1      -7.943  19.813  67.231  1.00  0.00    -0.266 OA 
HETATM   39  C   UNL     1      -8.555  18.526  67.321  1.00  0.00    -0.262 C  
HETATM   40  C   UNL     1      -9.650  18.494  66.270  1.00  0.00    -0.273 C  
HETATM   41  O   UNL     1     -10.667  19.446  66.621  1.00  0.00    -0.443 OA 
HETATM   42  C   UNL     1     -10.268  17.104  66.109  1.00  0.00    -0.334 C  
HETATM   43  H   UNL     1     -11.353  19.427  65.964  1.00  0.00     0.000 HD 
HETATM   44  O   UNL     1     -10.913  17.000  64.816  1.00  0.00    -0.835 OA 
HETATM   45  H   UNL     1     -11.514  17.731  64.718  1.00  0.00     0.000 HD 
ENDBRANCH  30  31
ENDBRANCH   8  30
TORSDOF 5
ENDMDL
MODEL        3
REMARK 921   NORMALIZED FREE ENERGY PREDICTED BY IDOCK:   -8.78 KCAL/MOL
REMARK 922        TOTAL FREE ENERGY PREDICTED BY IDOCK:  -12.57 KCAL/MOL
REMARK 923 INTER-LIGAND FREE ENERGY PREDICTED BY IDOCK:  -11.54 KCAL/MOL
REMARK 924 INTRA-LIGAND FREE ENERGY PREDICTED BY IDOCK:   -1.03 KCAL/MOL
REMARK 927      BINDING AFFINITY PREDICTED BY RF-SCORE:    0.00 PKD
ROOT
HETATM    1  C   UNL     1     -12.033  12.297  69.535  1.00  0.00    -0.333 C  
HETATM    2  C   UNL     1     -12.946  12.735  70.642  1.00  0.00     0.173 C  
HETATM    3  O   UNL     1     -12.860  14.168  70.585  1.00  0.00    -0.336 OA 
HETATM    4  C   UNL     1     -11.675  14.540  69.998  1.00  0.00    -0.301 C  
HETATM    5  C   UNL     1     -10.914  13.315  69.579  1.00  0.00     0.009 C  
HETATM    6  O   UNL     1     -11.270  15.689  69.961  1.00  0.00    -0.266 OA 
HETATM    7  C   UNL     1     -10.069  13.282  68.292  1.00  0.00    -0.250 C  
HETATM    8  C   UNL     1     -11.501  10.876  69.516  1.00  0.00    -0.301 C  
HETATM    9  C   UNL     1      -9.809  11.842  67.824  1.00  0.00    -0.187 A  
HETATM   10  C   UNL     1      -8.902  11.622  66.766  1.00  0.00    -0.184 A  
HETATM   11  O   UNL     1      -7.976   9.977  65.222  1.00  0.00    -0.131 OA 
HETATM   12  C   UNL     1      -8.759  10.342  66.272  1.00  0.00    -0.153 A  
HETATM   13  C   UNL     1     -10.493  10.721  68.391  1.00  0.00    -0.207 A  
HETATM   14  C   UNL     1      -9.452   9.278  66.796  1.00  0.00    -0.175 A  
HETATM   15  C   UNL     1      -8.334   8.587  65.086  1.00  0.00    -0.169 C  
HETATM   16  O   UNL     1      -9.210   8.118  66.131  1.00  0.00    -0.183 OA 
HETATM   17  C   UNL     1     -10.305   9.428  67.862  1.00  0.00    -0.276 A  
ENDROOT
BRANCH   7  18
HETATM   18  C   UNL     1     -10.644  14.197  67.211  1.00  0.00    -0.277 A  
HETATM   19  O   UNL     1     -11.556  16.312  63.727  1.00  0.00    -1.539 OA 
HETATM   20  C   UNL     1     -10.529  16.198  65.851  1.00  0.00    -0.352 A  
HETATM   21  C   UNL     1     -11.548  13.660  66.283  1.00  0.00    -0.372 A  
HETATM   22  H   UNL     1     -11.175  17.168  63.570  1.00  0.00     0.000 HD 
HETATM   23  C   UNL     1     -10.190  15.507  67.013  1.00  0.00    -0.271 A  
HETATM   24  C   UNL     1     -11.349  15.596  64.881  1.00  0.00    -0.315 A  
HETATM   25  C   UNL     1     -11.909  14.338  65.111  1.00  0.00    -0.384 A  
BRANCH  25  26
HETATM   26  O   UNL     1     -12.777  13.599  64.356  1.00  0.00    -0.642 OA 
HETATM   27  C   UNL     1     -12.687  12.192  64.308  1.00  0.00    -0.264 C  
ENDBRANCH  25  26
BRANCH  20  28
HETATM   28  O   UNL     1     -10.028  17.450  65.554  1.00  0.00    -0.555 OA 
HETATM   29  C   UNL     1     -10.587  18.540  66.280  1.00  0.00    -0.330 C  
ENDBRANCH  20  28
ENDBRANCH   7  18
BRANCH   8  30
HETATM   30  O   UNL     1     -11.116  10.265  70.729  1.00  0.00    -0.326 OA 
BRANCH  30  31
HETATM   31  C   UNL     1     -10.660   8.917  70.875  1.00  0.00    -0.233 C  
HETATM   32  O   UNL     1     -11.632   8.064  71.494  1.00  0.00    -0.260 OA 
HETATM   33  C   UNL     1     -11.068   6.817  71.930  1.00  0.00    -0.247 C  
HETATM   34  C   UNL     1     -12.107   5.818  72.442  1.00  0.00    -0.028 C  
HETATM   35  O   UNL     1     -11.461   4.659  72.972  1.00  0.00    -0.237 OA 
HETATM   36  C   UNL     1     -10.590   4.991  74.049  1.00  0.00    -0.298 C  
HETATM   37  C   UNL     1      -9.888   3.734  74.545  1.00  0.00    -0.179 C  
HETATM   38  O   UNL     1      -9.560   5.875  73.618  1.00  0.00    -0.138 OA 
HETATM   39  C   UNL     1     -10.088   7.082  73.067  1.00  0.00    -0.211 C  
HETATM   40  C   UNL     1      -8.910   7.848  72.496  1.00  0.00    -0.164 C  
HETATM   41  O   UNL     1      -8.039   8.244  73.569  1.00  0.00    -0.217 OA 
HETATM   42  C   UNL     1      -9.342   9.076  71.693  1.00  0.00    -0.183 C  
HETATM   43  H   UNL     1      -7.301   8.723  73.212  1.00  0.00     0.000 HD 
HETATM   44  O   UNL     1      -8.282   9.469  70.787  1.00  0.00    -0.251 OA 
HETATM   45  H   UNL     1      -7.478   9.566  71.285  1.00  0.00     0.000 HD 
ENDBRANCH  30  31
ENDBRANCH   8  30
TORSDOF 5
ENDMDL
MODEL        4
REMARK 921   NORMALIZED FREE ENERGY PREDICTED BY IDOCK:   -8.73 KCAL/MOL
REMARK 922        TOTAL FREE ENERGY PREDICTED BY IDOCK:  -12.52 KCAL/MOL
REMARK 923 INTER-LIGAND FREE ENERGY PREDICTED BY IDOCK:  -11.03 KCAL/MOL
REMARK 924 INTRA-LIGAND FREE ENERGY PREDICTED BY IDOCK:   -1.49 KCAL/MOL
REMARK 927      BINDING AFFINITY PREDICTED BY RF-SCORE:    0.00 PKD
ROOT
HETATM    1  C   UNL     1     -10.379  13.103  67.545  1.00  0.00    -0.225 C  
HETATM    2  C   UNL     1      -9.796  12.273  66.439  1.00  0.00    -0.230 C  
HETATM    3  O   UNL     1      -9.542  13.239  65.407  1.00  0.00    -0.061 OA 
HETATM    4  C   UNL     1     -10.364  14.327  65.577  1.00  0.00    -0.355 C  
HETATM    5  C   UNL     1     -11.200  14.141  66.810  1.00  0.00    -0.330 C  
HETATM    6  O   UNL     1     -10.472  15.226  64.761  1.00  0.00    -0.357 OA 
HETATM    7  C   UNL     1     -11.573  15.319  67.727  1.00  0.00    -0.277 C  
HETATM    8  C   UNL     1     -11.176  12.434  68.649  1.00  0.00    -0.271 C  
HETATM    9  C   UNL     1     -11.980  14.839  69.128  1.00  0.00    -0.317 A  
HETATM   10  C   UNL     1     -12.524  15.769  70.038  1.00  0.00    -0.178 A  
HETATM   11  O   UNL     1     -13.245  16.148  72.337  1.00  0.00    -0.368 OA 
HETATM   12  C   UNL     1     -12.780  15.361  71.330  1.00  0.00    -0.436 A  
HETATM   13  C   UNL     1     -11.778  13.489  69.559  1.00  0.00    -0.382 A  
HETATM   14  C   UNL     1     -12.543  14.073  71.746  1.00  0.00    -0.287 A  
HETATM   15  C   UNL     1     -13.177  15.234  73.450  1.00  0.00    -0.408 C  
HETATM   16  O   UNL     1     -12.809  13.893  73.067  1.00  0.00    -0.331 OA 
HETATM   17  C   UNL     1     -12.067  13.114  70.887  1.00  0.00    -0.209 A  
ENDROOT
BRANCH   7  18
HETATM   18  C   UNL     1     -10.496  16.403  67.726  1.00  0.00    -0.300 A  
HETATM   19  O   UNL     1      -7.893  19.561  68.565  1.00  0.00    -0.332 OA 
HETATM   20  C   UNL     1      -9.823  18.719  67.494  1.00  0.00    -0.320 A  
HETATM   21  C   UNL     1      -9.289  16.157  68.397  1.00  0.00    -0.206 A  
HETATM   22  H   UNL     1      -8.100  20.443  68.281  1.00  0.00     0.000 HD 
HETATM   23  C   UNL     1     -10.720  17.689  67.218  1.00  0.00    -0.234 A  
HETATM   24  C   UNL     1      -8.673  18.471  68.263  1.00  0.00    -0.311 A  
HETATM   25  C   UNL     1      -8.368  17.174  68.680  1.00  0.00    -0.257 A  
BRANCH  25  26
HETATM   26  O   UNL     1      -7.288  16.690  69.366  1.00  0.00    -0.222 OA 
HETATM   27  C   UNL     1      -7.036  15.305  69.447  1.00  0.00    -0.191 C  
ENDBRANCH  25  26
BRANCH  20  28
HETATM   28  O   UNL     1     -10.044  20.025  67.107  1.00  0.00    -0.399 OA 
HETATM   29  C   UNL     1     -10.536  20.216  65.784  1.00  0.00    -0.280 C  
ENDBRANCH  20  28
ENDBRANCH   7  18
BRANCH   8  30
HETATM   30  O   UNL     1     -12.054  11.376  68.325  1.00  0.00    -0.606 OA 
BRANCH  30  31
HETATM   31  C   UNL     1     -12.091  10.098  68.968  1.00  0.00     0.481 C  
HETATM   32  O   UNL     1     -12.325  10.191  70.379  1.00  0.00    -0.257 OA 
HETATM   33  C   UNL     1     -12.042   8.960  71.063  1.00  0.00    -0.233 C  
HETATM   34  C   UNL     1     -12.439   8.972  72.540  1.00  0.00    -0.239 C  
HETATM   35  O   UNL     1     -12.013   7.766  73.178  1.00  0.00    -0.101 OA 
HETATM   36  C   UNL     1     -10.601   7.599  73.093  1.00  0.00    -0.379 C  
HETATM   37  C   UNL     1     -10.204   6.279  73.740  1.00  0.00    -0.285 C  
HETATM   38  O   UNL     1     -10.177   7.518  71.737  1.00  0.00    -0.186 OA 
HETATM   39  C   UNL     1     -10.546   8.680  70.993  1.00  0.00    -0.221 C  
HETATM   40  C   UNL     1     -10.194   8.394  69.544  1.00  0.00    -0.207 C  
HETATM   41  O   UNL     1      -8.768   8.275  69.420  1.00  0.00    -0.139 OA 
HETATM   42  C   UNL     1     -10.714   9.473  68.591  1.00  0.00    -0.184 C  
HETATM   43  H   UNL     1      -8.547   8.095  68.514  1.00  0.00     0.000 HD 
HETATM   44  O   UNL     1     -10.802   8.939  67.247  1.00  0.00    -0.403 OA 
HETATM   45  H   UNL     1      -9.962   8.558  67.017  1.00  0.00     0.000 HD 
ENDBRANCH  30  31
ENDBRANCH   8  30
TORSDOF 5
ENDMDL
MODEL        5
REMARK 921   NORMALIZED FREE ENERGY PREDICTED BY IDOCK:   -8.73 KCAL/MOL
REMARK 922        TOTAL FREE ENERGY PREDICTED BY IDOCK:  -12.51 KCAL/MOL
REMARK 923 INTER-LIGAND FREE ENERGY PREDICTED BY IDOCK:  -11.14 KCAL/MOL
REMARK 924 INTRA-LIGAND FREE ENERGY PREDICTED BY IDOCK:   -1.37 KCAL/MOL
REMARK 927      BINDING AFFINITY PREDICTED BY RF-SCORE:    0.00 PKD
ROOT
HETATM    1  C   UNL     1     -10.640  11.564  69.104  1.00  0.00    -0.174 C  
HETATM    2  C   UNL     1     -11.362  12.756  69.662  1.00  0.00    -0.099 C  
HETATM    3  O   UNL     1     -12.336  12.164  70.536  1.00  0.00    -0.332 OA 
HETATM    4  C   UNL     1     -12.596  10.875  70.138  1.00  0.00    -0.234 C  
HETATM    5  C   UNL     1     -11.733  10.528  68.960  1.00  0.00    -0.242 C  
HETATM    6  O   UNL     1     -13.494  10.192  70.602  1.00  0.00    -0.257 OA 
HETATM    7  C   UNL     1     -11.150   9.116  68.767  1.00  0.00     0.100 C  
HETATM    8  C   UNL     1      -9.826  11.706  67.831  1.00  0.00    -0.184 C  
HETATM    9  C   UNL     1      -9.943   9.128  67.817  1.00  0.00    -0.236 A  
HETATM   10  C   UNL     1      -9.400   7.899  67.387  1.00  0.00    -0.169 A  
HETATM   11  O   UNL     1      -7.570   6.818  66.190  1.00  0.00    -0.082 OA 
HETATM   12  C   UNL     1      -8.248   7.913  66.629  1.00  0.00    -0.119 A  
HETATM   13  C   UNL     1      -9.318  10.344  67.393  1.00  0.00    -0.162 A  
HETATM   14  C   UNL     1      -7.631   9.085  66.263  1.00  0.00    -0.092 A  
HETATM   15  C   UNL     1      -6.411   7.436  65.595  1.00  0.00    -0.045 C  
HETATM   16  O   UNL     1      -6.482   8.876  65.568  1.00  0.00    -0.065 OA 
HETATM   17  C   UNL     1      -8.149  10.309  66.608  1.00  0.00    -0.119 A  
ENDROOT
BRANCH   7  18
HETATM   18  C   UNL     1     -10.887   8.421  70.102  1.00  0.00    -0.238 A  
HETATM   19  O   UNL     1     -10.709   7.196  74.091  1.00  0.00    -0.555 OA 
HETATM   20  C   UNL     1      -9.749   8.300  72.237  1.00  0.00    -0.292 A  
HETATM   21  C   UNL     1     -11.855   7.542  70.609  1.00  0.00    -0.205 A  
HETATM   22  H   UNL     1     -10.001   7.488  74.653  1.00  0.00     0.000 HD 
HETATM   23  C   UNL     1      -9.793   8.741  70.916  1.00  0.00    -0.278 A  
HETATM   24  C   UNL     1     -10.788   7.508  72.756  1.00  0.00    -0.346 A  
HETATM   25  C   UNL     1     -11.828   7.079  71.931  1.00  0.00    -0.305 A  
BRANCH  25  26
HETATM   26  O   UNL     1     -12.892   6.261  72.192  1.00  0.00    -0.171 OA 
HETATM   27  C   UNL     1     -14.217   6.691  71.968  1.00  0.00     0.049 C  
ENDBRANCH  25  26
BRANCH  20  28
HETATM   28  O   UNL     1      -8.748   8.668  73.115  1.00  0.00    -0.371 OA 
HETATM   29  C   UNL     1      -7.516   7.965  72.996  1.00  0.00    -0.117 C  
ENDBRANCH  20  28
ENDBRANCH   7  18
BRANCH   8  30
HETATM   30  O   UNL     1     -10.321  12.507  66.779  1.00  0.00    -0.224 OA 
BRANCH  30  31
HETATM   31  C   UNL     1      -9.769  13.756  66.352  1.00  0.00    -0.294 C  
HETATM   32  O   UNL     1      -9.805  14.760  67.376  1.00  0.00    -0.220 OA 
HETATM   33  C   UNL     1      -9.559  16.077  66.859  1.00  0.00    -0.226 C  
HETATM   34  C   UNL     1      -9.424  17.147  67.944  1.00  0.00    -0.257 C  
HETATM   35  O   UNL     1      -9.308  18.442  67.352  1.00  0.00    -0.269 OA 
HETATM   36  C   UNL     1     -10.443  18.756  66.550  1.00  0.00    -0.427 C  
HETATM   37  C   UNL     1     -10.249  20.120  65.901  1.00  0.00    -0.452 C  
HETATM   38  O   UNL     1     -10.586  17.826  65.482  1.00  0.00    -0.632 OA 
HETATM   39  C   UNL     1     -10.716  16.485  65.955  1.00  0.00    -0.177 C  
HETATM   40  C   UNL     1     -10.685  15.590  64.730  1.00  0.00    -0.304 C  
HETATM   41  O   UNL     1     -11.850  15.847  63.928  1.00  0.00    -1.153 OA 
HETATM   42  C   UNL     1     -10.616  14.105  65.090  1.00  0.00    -0.398 C  
HETATM   43  H   UNL     1     -11.831  15.287  63.162  1.00  0.00     0.000 HD 
HETATM   44  O   UNL     1     -10.100  13.350  63.966  1.00  0.00    -0.764 OA 
HETATM   45  H   UNL     1     -10.616  13.562  63.197  1.00  0.00     0.000 HD 
ENDBRANCH  30  31
ENDBRANCH   8  30
TORSDOF 5
ENDMDL
MODEL        6
REMARK 921   NORMALIZED FREE ENERGY PREDICTED BY IDOCK:   -8.71 KCAL/MOL
REMARK 922        TOTAL FREE ENERGY PREDICTED BY IDOCK:  -12.49 KCAL/MOL
REMARK 923 INTER-LIGAND FREE ENERGY PREDICTED BY IDOCK:  -11.58 KCAL/MOL
REMARK 924 INTRA-LIGAND FREE ENERGY PREDICTED BY IDOCK:   -0.91 KCAL/MOL
REMARK 927      BINDING AFFINITY PREDICTED BY RF-SCORE:    0.00 PKD
ROOT
HETATM    1  C   UNL     1     -11.111  11.030  68.332  1.00  0.00    -0.308 C  
HETATM    2  C   UNL     1     -12.057  11.326  69.459  1.00  0.00    -0.317 C  
HETATM    3  O   UNL     1     -12.077  12.762  69.497  1.00  0.00    -0.280 OA 
HETATM    4  C   UNL     1     -10.921  13.257  68.944  1.00  0.00    -0.240 C  
HETATM    5  C   UNL     1     -10.071  12.122  68.452  1.00  0.00    -0.210 C  
HETATM    6  O   UNL     1     -10.602  14.433  68.986  1.00  0.00    -0.241 OA 
HETATM    7  C   UNL     1      -9.222  12.236  67.172  1.00  0.00    -0.196 C  
HETATM    8  C   UNL     1     -10.476   9.656  68.224  1.00  0.00    -0.219 C  
HETATM    9  C   UNL     1      -8.855  10.853  66.613  1.00  0.00    -0.164 A  
HETATM   10  C   UNL     1      -7.931  10.771  65.549  1.00  0.00    -0.064 A  
HETATM   11  O   UNL     1      -6.882   9.304  63.908  1.00  0.00    -0.089 OA 
HETATM   12  C   UNL     1      -7.693   9.540  64.974  1.00  0.00    -0.114 A  
HETATM   13  C   UNL     1      -9.456   9.650  67.100  1.00  0.00    -0.185 A  
HETATM   14  C   UNL     1      -8.307   8.396  65.421  1.00  0.00    -0.157 A  
HETATM   15  C   UNL     1      -7.136   7.903  63.678  1.00  0.00    -0.078 C  
HETATM   16  O   UNL     1      -7.978   7.303  64.683  1.00  0.00    -0.122 OA 
HETATM   17  C   UNL     1      -9.171   8.412  66.488  1.00  0.00    -0.238 A  
ENDROOT
BRANCH   7  18
HETATM   18  C   UNL     1      -9.859  13.175  66.149  1.00  0.00    -0.284 A  
HETATM   19  O   UNL     1     -12.167  15.956  64.055  1.00  0.00    -0.952 OA 
HETATM   20  C   UNL     1     -11.633  13.719  64.591  1.00  0.00    -0.378 A  
HETATM   21  C   UNL     1      -9.507  14.533  66.167  1.00  0.00    -0.290 A  
HETATM   22  H   UNL     1     -12.916  15.673  63.544  1.00  0.00     0.000 HD 
HETATM   23  C   UNL     1     -10.894  12.771  65.296  1.00  0.00    -0.319 A  
HETATM   24  C   UNL     1     -11.331  15.087  64.711  1.00  0.00    -0.406 A  
HETATM   25  C   UNL     1     -10.230  15.503  65.462  1.00  0.00    -0.386 A  
BRANCH  25  26
HETATM   26  O   UNL     1      -9.711  16.753  65.661  1.00  0.00    -0.539 OA 
HETATM   27  C   UNL     1     -10.258  17.626  66.625  1.00  0.00    -0.341 C  
ENDBRANCH  25  26
BRANCH  20  28
HETATM   28  O   UNL     1     -12.727  13.388  63.816  1.00  0.00    -0.685 OA 
HETATM   29  C   UNL     1     -12.782  12.046  63.345  1.00  0.00    -0.398 C  
ENDBRANCH  20  28
ENDBRANCH   7  18
BRANCH   8  30
HETATM   30  O   UNL     1     -10.051   8.996  69.398  1.00  0.00    -0.186 OA 
BRANCH  30  31
HETATM   31  C   UNL     1     -10.783   7.985  70.097  1.00  0.00    -0.244 C  
HETATM   32  O   UNL     1     -10.398   7.868  71.473  1.00  0.00    -0.197 OA 
HETATM   33  C   UNL     1     -10.887   6.661  72.078  1.00  0.00    -0.233 C  
HETATM   34  C   UNL     1     -10.637   6.585  73.585  1.00  0.00    -0.286 C  
HETATM   35  O   UNL     1     -11.035   5.308  74.090  1.00  0.00    -0.251 OA 
HETATM   36  C   UNL     1     -10.319   4.249  73.461  1.00  0.00    -0.178 C  
HETATM   37  C   UNL     1     -10.814   2.911  73.994  1.00  0.00    -0.269 C  
HETATM   38  O   UNL     1     -10.561   4.231  72.058  1.00  0.00    -0.091 OA 
HETATM   39  C   UNL     1     -10.195   5.464  71.438  1.00  0.00    -0.216 C  
HETATM   40  C   UNL     1     -10.659   5.376  69.995  1.00  0.00    -0.284 C  
HETATM   41  O   UNL     1      -9.912   4.349  69.321  1.00  0.00    -0.183 OA 
HETATM   42  C   UNL     1     -10.513   6.704  69.250  1.00  0.00    -0.214 C  
HETATM   43  H   UNL     1     -10.203   4.294  68.419  1.00  0.00     0.000 HD 
HETATM   44  O   UNL     1     -11.391   6.719  68.097  1.00  0.00    -0.551 OA 
HETATM   45  H   UNL     1     -11.227   5.938  67.581  1.00  0.00     0.000 HD 
ENDBRANCH  30  31
ENDBRANCH   8  30
TORSDOF 5
ENDMDL
MODEL        7
REMARK 921   NORMALIZED FREE ENERGY PREDICTED BY IDOCK:   -8.63 KCAL/MOL
REMARK 922        TOTAL FREE ENERGY PREDICTED BY IDOCK:  -12.39 KCAL/MOL
REMARK 923 INTER-LIGAND FREE ENERGY PREDICTED BY IDOCK:  -11.02 KCAL/MOL
REMARK 924 INTRA-LIGAND FREE ENERGY PREDICTED BY IDOCK:   -1.36 KCAL/MOL
REMARK 927      BINDING AFFINITY PREDICTED BY RF-SCORE:    0.00 PKD
ROOT
HETATM    1  C   UNL     1     -10.397  13.842  67.669  1.00  0.00    -0.239 C  
HETATM    2  C   UNL     1      -9.863  13.146  66.451  1.00  0.00    -0.279 C  
HETATM    3  O   UNL     1      -9.616  14.229  65.541  1.00  0.00    -0.206 OA 
HETATM    4  C   UNL     1     -10.408  15.302  65.869  1.00  0.00    -0.329 C  
HETATM    5  C   UNL     1     -11.214  14.978  67.093  1.00  0.00    -0.336 C  
HETATM    6  O   UNL     1     -10.519  16.299  65.175  1.00  0.00    -0.591 OA 
HETATM    7  C   UNL     1     -11.536  16.039  68.161  1.00  0.00    -0.183 C  
HETATM    8  C   UNL     1     -11.178  13.054  68.704  1.00  0.00    -0.277 C  
HETATM    9  C   UNL     1     -11.915  15.394  69.503  1.00  0.00    -0.358 A  
HETATM   10  C   UNL     1     -12.414  16.213  70.537  1.00  0.00     0.231 A  
HETATM   11  O   UNL     1     -13.063  16.314  72.886  1.00  0.00    -0.403 OA 
HETATM   12  C   UNL     1     -12.643  15.651  71.775  1.00  0.00    -0.442 A  
HETATM   13  C   UNL     1     -11.732  13.998  69.756  1.00  0.00    -0.375 A  
HETATM   14  C   UNL     1     -12.424  14.317  72.021  1.00  0.00    -0.252 A  
HETATM   15  C   UNL     1     -12.985  15.266  73.874  1.00  0.00    -0.206 C  
HETATM   16  O   UNL     1     -12.657  13.978  73.316  1.00  0.00    -0.260 OA 
HETATM   17  C   UNL     1     -11.992  13.465  71.034  1.00  0.00    -0.025 A  
ENDROOT
BRANCH   7  18
HETATM   18  C   UNL     1     -10.436  17.095  68.264  1.00  0.00    -0.373 A  
HETATM   19  O   UNL     1      -7.181  19.654  67.712  1.00  0.00    -0.252 OA 
HETATM   20  C   UNL     1      -8.131  17.717  68.673  1.00  0.00    -0.269 A  
HETATM   21  C   UNL     1     -10.613  18.322  67.608  1.00  0.00    -0.427 A  
HETATM   22  H   UNL     1      -6.325  19.423  68.051  1.00  0.00     0.000 HD 
HETATM   23  C   UNL     1      -9.193  16.833  68.854  1.00  0.00    -0.234 A  
HETATM   24  C   UNL     1      -8.304  18.889  67.917  1.00  0.00    -0.281 A  
HETATM   25  C   UNL     1      -9.562  19.228  67.419  1.00  0.00    -0.314 A  
BRANCH  25  26
HETATM   26  O   UNL     1      -9.977  20.334  66.728  1.00  0.00    -0.442 OA 
HETATM   27  C   UNL     1     -10.640  20.213  65.489  1.00  0.00    -0.127 C  
ENDBRANCH  25  26
BRANCH  20  28
HETATM   28  O   UNL     1      -6.858  17.461  69.145  1.00  0.00    -0.234 OA 
HETATM   29  C   UNL     1      -6.104  16.490  68.427  1.00  0.00    -0.127 C  
ENDBRANCH  20  28
ENDBRANCH   7  18
BRANCH   8  30
HETATM   30  O   UNL     1     -12.087  12.062  68.277  1.00  0.00    -0.447 OA 
BRANCH  30  31
HETATM   31  C   UNL     1     -12.143  10.717  68.763  1.00  0.00     0.029 C  
HETATM   32  O   UNL     1     -12.553  10.638  70.135  1.00  0.00    -0.318 OA 
HETATM   33  C   UNL     1     -12.298   9.346  70.708  1.00  0.00    -0.120 C  
HETATM   34  C   UNL     1     -12.874   9.174  72.115  1.00  0.00    -0.412 C  
HETATM   35  O   UNL     1     -12.474   7.917  72.665  1.00  0.00    -0.163 OA 
HETATM   36  C   UNL     1     -11.055   7.808  72.744  1.00  0.00    -0.398 C  
HETATM   37  C   UNL     1     -10.678   6.436  73.285  1.00  0.00    -0.288 C  
HETATM   38  O   UNL     1     -10.464   7.899  71.452  1.00  0.00    -0.204 OA 
HETATM   39  C   UNL     1     -10.793   9.126  70.800  1.00  0.00    -0.268 C  
HETATM   40  C   UNL     1     -10.252   9.023  69.386  1.00  0.00    -0.204 C  
HETATM   41  O   UNL     1      -8.817   8.966  69.432  1.00  0.00    -0.138 OA 
HETATM   42  C   UNL     1     -10.701  10.186  68.499  1.00  0.00    -0.230 C  
HETATM   43  H   UNL     1      -8.478   8.900  68.548  1.00  0.00     0.000 HD 
HETATM   44  O   UNL     1     -10.597   9.809  67.104  1.00  0.00    -0.252 OA 
HETATM   45  H   UNL     1      -9.718   9.485  66.943  1.00  0.00     0.000 HD 
ENDBRANCH  30  31
ENDBRANCH   8  30
TORSDOF 5
ENDMDL
MODEL        8
REMARK 921   NORMALIZED FREE ENERGY PREDICTED BY IDOCK:   -8.60 KCAL/MOL
REMARK 922        TOTAL FREE ENERGY PREDICTED BY IDOCK:  -12.35 KCAL/MOL
REMARK 923 INTER-LIGAND FREE ENERGY PREDICTED BY IDOCK:  -10.69 KCAL/MOL
REMARK 924 INTRA-LIGAND FREE ENERGY PREDICTED BY IDOCK:   -1.66 KCAL/MOL
REMARK 927      BINDING AFFINITY PREDICTED BY RF-SCORE:    0.00 PKD
ROOT
HETATM    1  C   UNL     1     -10.566  10.626  69.179  1.00  0.00    -0.256 C  
HETATM    2  C   UNL     1      -9.914   9.332  68.786  1.00  0.00    -0.181 C  
HETATM    3  O   UNL     1      -9.611   9.531  67.396  1.00  0.00    -0.136 OA 
HETATM    4  C   UNL     1     -10.451  10.482  66.868  1.00  0.00    -0.246 C  
HETATM    5  C   UNL     1     -11.353  11.011  67.945  1.00  0.00    -0.381 C  
HETATM    6  O   UNL     1     -10.521  10.736  65.678  1.00  0.00    -0.243 OA 
HETATM    7  C   UNL     1     -11.788  12.487  67.990  1.00  0.00    -0.382 C  
HETATM    8  C   UNL     1     -11.417  10.689  70.433  1.00  0.00    -0.334 C  
HETATM    9  C   UNL     1     -12.268  12.892  69.392  1.00  0.00    -0.145 A  
HETATM   10  C   UNL     1     -12.871  14.155  69.569  1.00  0.00     0.435 A  
HETATM   11  O   UNL     1     -13.723  15.767  71.188  1.00  0.00    -0.560 OA 
HETATM   12  C   UNL     1     -13.195  14.561  70.846  1.00  0.00    -0.316 A  
HETATM   13  C   UNL     1     -12.079  12.051  70.535  1.00  0.00    -0.402 A  
HETATM   14  C   UNL     1     -12.971  13.764  71.943  1.00  0.00    -0.350 A  
HETATM   15  C   UNL     1     -13.710  15.671  72.627  1.00  0.00    -0.579 C  
HETATM   16  O   UNL     1     -13.308  14.373  73.110  1.00  0.00    -0.626 OA 
HETATM   17  C   UNL     1     -12.438  12.504  71.820  1.00  0.00     0.066 A  
ENDROOT
BRANCH   7  18
HETATM   18  C   UNL     1     -10.722  13.412  67.404  1.00  0.00    -0.269 A  
HETATM   19  O   UNL     1      -8.134  16.541  66.427  1.00  0.00    -0.279 OA 
HETATM   20  C   UNL     1     -10.079  15.273  65.993  1.00  0.00    -0.318 A  
HETATM   21  C   UNL     1      -9.497  13.543  68.075  1.00  0.00    -0.220 A  
HETATM   22  H   UNL     1      -8.356  17.151  65.734  1.00  0.00     0.000 HD 
HETATM   23  C   UNL     1     -10.971  14.251  66.311  1.00  0.00    -0.317 A  
HETATM   24  C   UNL     1      -8.909  15.454  66.751  1.00  0.00    -0.269 A  
HETATM   25  C   UNL     1      -8.581  14.558  67.769  1.00  0.00    -0.175 A  
BRANCH  25  26
HETATM   26  O   UNL     1      -7.481  14.494  68.578  1.00  0.00    -0.109 OA 
HETATM   27  C   UNL     1      -7.353  15.333  69.705  1.00  0.00    -0.188 C  
ENDBRANCH  25  26
BRANCH  20  28
HETATM   28  O   UNL     1     -10.322  16.194  64.993  1.00  0.00    -0.573 OA 
HETATM   29  C   UNL     1     -11.553  16.051  64.292  1.00  0.00    -0.138 C  
ENDBRANCH  20  28
ENDBRANCH   7  18
BRANCH   8  30
HETATM   30  O   UNL     1     -12.266   9.606  70.748  1.00  0.00    -0.284 OA 
BRANCH  30  31
HETATM   31  C   UNL     1     -11.976   8.567  71.689  1.00  0.00    -0.316 C  
HETATM   32  O   UNL     1     -10.733   8.767  72.374  1.00  0.00    -0.315 OA 
HETATM   33  C   UNL     1     -10.291   7.587  73.063  1.00  0.00    -0.322 C  
HETATM   34  C   UNL     1      -9.057   7.812  73.940  1.00  0.00    -0.239 C  
HETATM   35  O   UNL     1      -8.606   6.573  74.489  1.00  0.00    -0.135 OA 
HETATM   36  C   UNL     1      -8.267   5.639  73.468  1.00  0.00    -0.112 C  
HETATM   37  C   UNL     1      -7.843   4.321  74.101  1.00  0.00    -0.091 C  
HETATM   38  O   UNL     1      -9.396   5.342  72.653  1.00  0.00    -0.137 OA 
HETATM   39  C   UNL     1      -9.936   6.513  72.041  1.00  0.00    -0.169 C  
HETATM   40  C   UNL     1     -11.219   6.088  71.351  1.00  0.00    -0.262 C  
HETATM   41  O   UNL     1     -10.901   5.186  70.279  1.00  0.00    -0.169 OA 
HETATM   42  C   UNL     1     -12.019   7.276  70.815  1.00  0.00    -0.272 C  
HETATM   43  H   UNL     1     -11.704   4.919  69.847  1.00  0.00     0.000 HD 
HETATM   44  O   UNL     1     -13.404   6.893  70.629  1.00  0.00    -0.375 OA 
HETATM   45  H   UNL     1     -13.431   6.106  70.096  1.00  0.00     0.000 HD 
ENDBRANCH  30  31
ENDBRANCH   8  30
TORSDOF 5
ENDMDL
MODEL        9
REMARK 921   NORMALIZED FREE ENERGY PREDICTED BY IDOCK:   -8.57 KCAL/MOL
REMARK 922        TOTAL FREE ENERGY PREDICTED BY IDOCK:  -12.30 KCAL/MOL
REMARK 923 INTER-LIGAND FREE ENERGY PREDICTED BY IDOCK:  -10.73 KCAL/MOL
REMARK 924 INTRA-LIGAND FREE ENERGY PREDICTED BY IDOCK:   -1.57 KCAL/MOL
REMARK 927      BINDING AFFINITY PREDICTED BY RF-SCORE:    0.00 PKD
ROOT
HETATM    1  C   UNL     1     -11.609  12.008  69.474  1.00  0.00    -0.389 C  
HETATM    2  C   UNL     1     -12.627  12.227  70.554  1.00  0.00    -0.092 C  
HETATM    3  O   UNL     1     -12.876  13.640  70.484  1.00  0.00    -0.221 OA 
HETATM    4  C   UNL     1     -11.796  14.275  69.920  1.00  0.00    -0.322 C  
HETATM    5  C   UNL     1     -10.760  13.260  69.533  1.00  0.00     0.211 C  
HETATM    6  O   UNL     1     -11.670  15.487  69.880  1.00  0.00    -0.303 OA 
HETATM    7  C   UNL     1      -9.899  13.418  68.267  1.00  0.00    -0.235 C  
HETATM    8  C   UNL     1     -10.760  10.751  69.483  1.00  0.00    -0.226 C  
HETATM    9  C   UNL     1      -9.297  12.077  67.821  1.00  0.00    -0.190 A  
HETATM   10  C   UNL     1      -8.338  12.069  66.787  1.00  0.00    -0.135 A  
HETATM   11  O   UNL     1      -7.014  10.678  65.283  1.00  0.00    -0.090 OA 
HETATM   12  C   UNL     1      -7.887  10.855  66.311  1.00  0.00    -0.158 A  
HETATM   13  C   UNL     1      -9.715  10.829  68.385  1.00  0.00    -0.179 A  
HETATM   14  C   UNL     1      -8.326   9.662  66.830  1.00  0.00    -0.117 A  
HETATM   15  C   UNL     1      -7.034   9.242  65.155  1.00  0.00    -0.085 C  
HETATM   16  O   UNL     1      -7.802   8.586  66.184  1.00  0.00    -0.094 OA 
HETATM   17  C   UNL     1      -9.217   9.614  67.874  1.00  0.00    -0.134 A  
ENDROOT
BRANCH   7  18
HETATM   18  C   UNL     1     -10.643  14.167  67.163  1.00  0.00    -0.278 A  
HETATM   19  O   UNL     1     -12.020  15.854  63.598  1.00  0.00    -1.239 OA 
HETATM   20  C   UNL     1     -10.841  16.038  65.636  1.00  0.00    -0.266 A  
HETATM   21  C   UNL     1     -11.546  13.459  66.356  1.00  0.00    -0.381 A  
HETATM   22  H   UNL     1     -11.747  16.726  63.341  1.00  0.00     0.000 HD 
HETATM   23  C   UNL     1     -10.350  15.493  66.821  1.00  0.00    -0.288 A  
HETATM   24  C   UNL     1     -11.657  15.270  64.787  1.00  0.00    -0.322 A  
HETATM   25  C   UNL     1     -12.059  13.988  65.164  1.00  0.00    -0.410 A  
BRANCH  25  26
HETATM   26  O   UNL     1     -12.892  13.098  64.544  1.00  0.00    -0.680 OA 
HETATM   27  C   UNL     1     -12.386  12.106  63.679  1.00  0.00    -0.568 C  
ENDBRANCH  25  26
BRANCH  20  28
HETATM   28  O   UNL     1     -10.502  17.303  65.198  1.00  0.00    -0.656 OA 
HETATM   29  C   UNL     1     -10.157  18.247  66.207  1.00  0.00    -0.380 C  
ENDBRANCH  20  28
ENDBRANCH   7  18
BRANCH   8  30
HETATM   30  O   UNL     1     -10.274  10.253  70.712  1.00  0.00     0.083 OA 
BRANCH  30  31
HETATM   31  C   UNL     1     -10.360   8.895  71.153  1.00  0.00    -0.268 C  
HETATM   32  O   UNL     1      -9.089   8.230  71.160  1.00  0.00    -0.144 OA 
HETATM   33  C   UNL     1      -9.217   6.805  71.284  1.00  0.00    -0.154 C  
HETATM   34  C   UNL     1      -7.881   6.081  71.463  1.00  0.00    -0.106 C  
HETATM   35  O   UNL     1      -8.079   4.666  71.452  1.00  0.00    -0.095 OA 
HETATM   36  C   UNL     1      -8.667   4.228  70.231  1.00  0.00    -0.077 C  
HETATM   37  C   UNL     1      -8.904   2.725  70.288  1.00  0.00    -0.147 C  
HETATM   38  O   UNL     1      -9.946   4.823  70.038  1.00  0.00    -0.215 OA 
HETATM   39  C   UNL     1      -9.874   6.250  70.026  1.00  0.00    -0.169 C  
HETATM   40  C   UNL     1     -11.305   6.753  69.989  1.00  0.00    -0.342 C  
HETATM   41  O   UNL     1     -11.908   6.372  68.741  1.00  0.00    -0.347 OA 
HETATM   42  C   UNL     1     -11.398   8.269  70.173  1.00  0.00    -0.060 C  
HETATM   43  H   UNL     1     -12.803   6.687  68.717  1.00  0.00     0.000 HD 
HETATM   44  O   UNL     1     -12.729   8.630  70.620  1.00  0.00    -0.464 OA 
HETATM   45  H   UNL     1     -13.362   8.249  70.022  1.00  0.00     0.000 HD 
ENDBRANCH  30  31
ENDBRANCH   8  30
TORSDOF 5
ENDMDL
MODEL       10
REMARK 921   NORMALIZED FREE ENERGY PREDICTED BY IDOCK:   -8.41 KCAL/MOL
REMARK 922        TOTAL FREE ENERGY PREDICTED BY IDOCK:  -12.10 KCAL/MOL
REMARK 923 INTER-LIGAND FREE ENERGY PREDICTED BY IDOCK:  -10.92 KCAL/MOL
REMARK 924 INTRA-LIGAND FREE ENERGY PREDICTED BY IDOCK:   -1.18 KCAL/MOL
REMARK 927      BINDING AFFINITY PREDICTED BY RF-SCORE:    0.00 PKD
ROOT
HETATM    1  C   UNL     1     -11.834  11.886  69.161  1.00  0.00    -0.371 C  
HETATM    2  C   UNL     1     -12.752  12.196  70.308  1.00  0.00     0.171 C  
HETATM    3  O   UNL     1     -12.721  13.631  70.368  1.00  0.00    -0.250 OA 
HETATM    4  C   UNL     1     -11.558  14.095  69.803  1.00  0.00    -0.290 C  
HETATM    5  C   UNL     1     -10.756  12.940  69.280  1.00  0.00     0.032 C  
HETATM    6  O   UNL     1     -11.198  15.259  69.858  1.00  0.00    -0.250 OA 
HETATM    7  C   UNL     1      -9.925  13.045  67.988  1.00  0.00    -0.233 C  
HETATM    8  C   UNL     1     -11.249  10.493  69.022  1.00  0.00    -0.259 C  
HETATM    9  C   UNL     1      -9.614  11.659  67.402  1.00  0.00    -0.173 A  
HETATM   10  C   UNL     1      -8.711  11.562  66.322  1.00  0.00    -0.159 A  
HETATM   11  O   UNL     1      -7.740  10.086  64.641  1.00  0.00    -0.138 OA 
HETATM   12  C   UNL     1      -8.525  10.333  65.724  1.00  0.00    -0.157 A  
HETATM   13  C   UNL     1     -10.249  10.469  67.881  1.00  0.00    -0.213 A  
HETATM   14  C   UNL     1      -9.171   9.204  66.164  1.00  0.00    -0.205 A  
HETATM   15  C   UNL     1      -8.046   8.698  64.395  1.00  0.00    -0.156 C  
HETATM   16  O   UNL     1      -8.892   8.111  65.405  1.00  0.00    -0.142 OA 
HETATM   17  C   UNL     1     -10.016   9.233  67.246  1.00  0.00    -0.264 A  
ENDROOT
BRANCH   7  18
HETATM   18  C   UNL     1     -10.546  14.021  66.990  1.00  0.00    -0.279 A  
HETATM   19  O   UNL     1     -11.640  16.307  63.670  1.00  0.00    -1.424 OA 
HETATM   20  C   UNL     1     -10.463  16.073  65.704  1.00  0.00    -0.397 A  
HETATM   21  C   UNL     1     -11.534  13.552  66.112  1.00  0.00    -0.348 A  
HETATM   22  H   UNL     1     -11.243  17.157  63.519  1.00  0.00     0.000 HD 
HETATM   23  C   UNL     1     -10.063  15.324  66.810  1.00  0.00    -0.262 A  
HETATM   24  C   UNL     1     -11.373  15.538  64.776  1.00  0.00    -0.357 A  
HETATM   25  C   UNL     1     -11.957  14.290  64.999  1.00  0.00    -0.410 A  
BRANCH  25  26
HETATM   26  O   UNL     1     -12.903  13.610  64.283  1.00  0.00    -0.630 OA 
HETATM   27  C   UNL     1     -12.666  12.299  63.819  1.00  0.00    -0.405 C  
ENDBRANCH  25  26
BRANCH  20  28
HETATM   28  O   UNL     1      -9.944  17.320  65.420  1.00  0.00    -0.521 OA 
HETATM   29  C   UNL     1      -9.751  18.190  66.531  1.00  0.00    -0.344 C  
ENDBRANCH  20  28
ENDBRANCH   7  18
BRANCH   8  30
HETATM   30  O   UNL     1     -10.828   9.801  70.179  1.00  0.00    -0.247 OA 
BRANCH  30  31
HETATM   31  C   UNL     1      -9.913   8.700  70.204  1.00  0.00    -0.182 C  
HETATM   32  O   UNL     1     -10.543   7.462  70.556  1.00  0.00    -0.216 OA 
HETATM   33  C   UNL     1      -9.591   6.441  70.896  1.00  0.00    -0.175 C  
HETATM   34  C   UNL     1     -10.219   5.063  71.114  1.00  0.00    -0.211 C  
HETATM   35  O   UNL     1      -9.233   4.135  71.569  1.00  0.00    -0.121 OA 
HETATM   36  C   UNL     1      -8.641   4.558  72.794  1.00  0.00    -0.113 C  
HETATM   37  C   UNL     1      -7.563   3.565  73.210  1.00  0.00    -0.065 C  
HETATM   38  O   UNL     1      -7.985   5.811  72.638  1.00  0.00    -0.101 OA 
HETATM   39  C   UNL     1      -8.879   6.829  72.186  1.00  0.00    -0.133 C  
HETATM   40  C   UNL     1      -8.030   8.053  71.898  1.00  0.00    -0.115 C  
HETATM   41  O   UNL     1      -7.463   8.535  73.128  1.00  0.00    -0.298 OA 
HETATM   42  C   UNL     1      -8.823   9.170  71.215  1.00  0.00    -0.112 C  
HETATM   43  H   UNL     1      -6.931   9.301  72.948  1.00  0.00     0.000 HD 
HETATM   44  O   UNL     1      -7.916  10.069  70.531  1.00  0.00    -0.399 OA 
HETATM   45  H   UNL     1      -7.252  10.355  71.147  1.00  0.00     0.000 HD 
ENDBRANCH  30  31
ENDBRANCH   8  30
TORSDOF 5
ENDMDL
MODEL       11
REMARK 921   NORMALIZED FREE ENERGY PREDICTED BY IDOCK:   -8.41 KCAL/MOL
REMARK 922        TOTAL FREE ENERGY PREDICTED BY IDOCK:  -12.10 KCAL/MOL
REMARK 923 INTER-LIGAND FREE ENERGY PREDICTED BY IDOCK:  -10.45 KCAL/MOL
REMARK 924 INTRA-LIGAND FREE ENERGY PREDICTED BY IDOCK:   -1.65 KCAL/MOL
REMARK 927      BINDING AFFINITY PREDICTED BY RF-SCORE:    0.00 PKD
ROOT
HETATM    1  C   UNL     1     -10.987  11.937  68.793  1.00  0.00    -0.280 C  
HETATM    2  C   UNL     1     -12.159  12.159  69.705  1.00  0.00    -0.218 C  
HETATM    3  O   UNL     1     -12.452  13.553  69.522  1.00  0.00    -0.205 OA 
HETATM    4  C   UNL     1     -11.329  14.211  69.083  1.00  0.00    -0.279 C  
HETATM    5  C   UNL     1     -10.208  13.230  68.904  1.00  0.00    -0.033 C  
HETATM    6  O   UNL     1     -11.248  15.424  68.996  1.00  0.00    -0.255 OA 
HETATM    7  C   UNL     1      -9.179  13.367  67.767  1.00  0.00    -0.211 C  
HETATM    8  C   UNL     1     -10.098  10.724  68.992  1.00  0.00    -0.211 C  
HETATM    9  C   UNL     1      -8.466  12.036  67.485  1.00  0.00    -0.165 A  
HETATM   10  C   UNL     1      -7.367  12.025  66.600  1.00  0.00     0.126 A  
HETATM   11  O   UNL     1      -5.785  10.627  65.378  1.00  0.00    -0.127 OA 
HETATM   12  C   UNL     1      -6.804  10.812  66.260  1.00  0.00    -0.135 A  
HETATM   13  C   UNL     1      -8.910  10.799  68.051  1.00  0.00    -0.132 A  
HETATM   14  C   UNL     1      -7.264   9.625  66.776  1.00  0.00    -0.090 A  
HETATM   15  C   UNL     1      -5.728   9.187  65.327  1.00  0.00    -0.054 C  
HETATM   16  O   UNL     1      -6.610   8.546  66.271  1.00  0.00    -0.060 OA 
HETATM   17  C   UNL     1      -8.294   9.586  67.684  1.00  0.00    -0.125 A  
ENDROOT
BRANCH   7  18
HETATM   18  C   UNL     1      -9.786  14.026  66.528  1.00  0.00    -0.298 A  
HETATM   19  O   UNL     1     -12.104  16.094  63.736  1.00  0.00    -1.355 OA 
HETATM   20  C   UNL     1     -11.419  14.069  64.739  1.00  0.00    -0.369 A  
HETATM   21  C   UNL     1      -9.571  15.396  66.317  1.00  0.00    -0.342 A  
HETATM   22  H   UNL     1     -12.759  15.638  63.223  1.00  0.00     0.000 HD 
HETATM   23  C   UNL     1     -10.674  13.356  65.677  1.00  0.00    -0.283 A  
HETATM   24  C   UNL     1     -11.265  15.461  64.621  1.00  0.00    -0.364 A  
HETATM   25  C   UNL     1     -10.302  16.132  65.375  1.00  0.00    -0.330 A  
BRANCH  25  26
HETATM   26  O   UNL     1      -9.931  17.448  65.378  1.00  0.00    -0.479 OA 
HETATM   27  C   UNL     1     -10.374  18.329  66.386  1.00  0.00    -0.400 C  
ENDBRANCH  25  26
BRANCH  20  28
HETATM   28  O   UNL     1     -12.382  13.478  63.945  1.00  0.00    -0.634 OA 
HETATM   29  C   UNL     1     -12.193  12.098  63.648  1.00  0.00    -0.562 C  
ENDBRANCH  20  28
ENDBRANCH   7  18
BRANCH   8  30
HETATM   30  O   UNL     1      -9.775  10.310  70.303  1.00  0.00    -0.045 OA 
BRANCH  30  31
HETATM   31  C   UNL     1      -9.904   8.979  70.813  1.00  0.00    -0.243 C  
HETATM   32  O   UNL     1      -8.668   8.254  70.796  1.00  0.00    -0.128 OA 
HETATM   33  C   UNL     1      -8.857   6.844  70.995  1.00  0.00    -0.140 C  
HETATM   34  C   UNL     1      -7.550   6.064  71.150  1.00  0.00    -0.100 C  
HETATM   35  O   UNL     1      -7.815   4.661  71.216  1.00  0.00    -0.082 OA 
HETATM   36  C   UNL     1      -8.479   4.197  70.044  1.00  0.00    -0.064 C  
HETATM   37  C   UNL     1      -8.784   2.712  70.184  1.00  0.00    -0.126 C  
HETATM   38  O   UNL     1      -9.735   4.846  69.879  1.00  0.00    -0.166 OA 
HETATM   39  C   UNL     1      -9.597   6.265  69.795  1.00  0.00    -0.151 C  
HETATM   40  C   UNL     1     -11.003   6.836  69.796  1.00  0.00    -0.297 C  
HETATM   41  O   UNL     1     -11.679   6.428  68.595  1.00  0.00    -0.433 OA 
HETATM   42  C   UNL     1     -11.016   8.362  69.910  1.00  0.00    -0.166 C  
HETATM   43  H   UNL     1     -12.559   6.785  68.596  1.00  0.00     0.000 HD 
HETATM   44  O   UNL     1     -12.306   8.807  70.397  1.00  0.00    -0.440 OA 
HETATM   45  H   UNL     1     -12.983   8.431  69.847  1.00  0.00     0.000 HD 
ENDBRANCH  30  31
ENDBRANCH   8  30
TORSDOF 5
ENDMDL
MODEL       12
REMARK 921   NORMALIZED FREE ENERGY PREDICTED BY IDOCK:   -8.29 KCAL/MOL
REMARK 922        TOTAL FREE ENERGY PREDICTED BY IDOCK:  -11.95 KCAL/MOL
REMARK 923 INTER-LIGAND FREE ENERGY PREDICTED BY IDOCK:  -10.95 KCAL/MOL
REMARK 924 INTRA-LIGAND FREE ENERGY PREDICTED BY IDOCK:   -1.00 KCAL/MOL
REMARK 927      BINDING AFFINITY PREDICTED BY RF-SCORE:    0.00 PKD
ROOT
HETATM    1  C   UNL     1     -11.533  11.606  68.463  1.00  0.00    -0.358 C  
HETATM    2  C   UNL     1     -12.508  12.066  69.507  1.00  0.00     0.170 C  
HETATM    3  O   UNL     1     -12.360  13.495  69.481  1.00  0.00    -0.268 OA 
HETATM    4  C   UNL     1     -11.120  13.825  68.989  1.00  0.00    -0.259 C  
HETATM    5  C   UNL     1     -10.381  12.576  68.607  1.00  0.00    -0.193 C  
HETATM    6  O   UNL     1     -10.667  14.957  69.003  1.00  0.00    -0.231 OA 
HETATM    7  C   UNL     1      -9.444  12.526  67.387  1.00  0.00    -0.184 C  
HETATM    8  C   UNL     1     -11.060  10.165  68.459  1.00  0.00    -0.214 C  
HETATM    9  C   UNL     1      -9.208  11.083  66.915  1.00  0.00    -0.168 A  
HETATM   10  C   UNL     1      -8.234  10.840  65.923  1.00  0.00    -0.155 A  
HETATM   11  O   UNL     1      -7.263   9.180  64.423  1.00  0.00    -0.096 OA 
HETATM   12  C   UNL     1      -8.107   9.562  65.419  1.00  0.00    -0.125 A  
HETATM   13  C   UNL     1      -9.978   9.983  67.410  1.00  0.00    -0.242 A  
HETATM   14  C   UNL     1      -8.880   8.521  65.871  1.00  0.00    -0.182 A  
HETATM   15  C   UNL     1      -7.666   7.808  64.238  1.00  0.00    -0.124 C  
HETATM   16  O   UNL     1      -8.636   7.361  65.207  1.00  0.00    -0.104 OA 
HETATM   17  C   UNL     1      -9.803   8.692  66.874  1.00  0.00    -0.305 A  
ENDROOT
BRANCH   7  18
HETATM   18  C   UNL     1      -9.898  13.479  66.282  1.00  0.00    -0.306 A  
HETATM   19  O   UNL     1     -11.748  16.369  63.901  1.00  0.00    -1.504 OA 
HETATM   20  C   UNL     1     -11.464  14.115  64.546  1.00  0.00    -0.372 A  
HETATM   21  C   UNL     1      -9.432  14.801  66.296  1.00  0.00    -0.332 A  
HETATM   22  H   UNL     1     -12.468  16.132  63.328  1.00  0.00     0.000 HD 
HETATM   23  C   UNL     1     -10.880  13.133  65.344  1.00  0.00    -0.299 A  
HETATM   24  C   UNL     1     -11.056  15.455  64.657  1.00  0.00    -0.347 A  
HETATM   25  C   UNL     1      -9.998  15.804  65.499  1.00  0.00    -0.306 A  
BRANCH  25  26
HETATM   26  O   UNL     1      -9.393  17.011  65.713  1.00  0.00    -0.524 OA 
HETATM   27  C   UNL     1     -10.036  18.031  66.445  1.00  0.00    -0.362 C  
ENDBRANCH  25  26
BRANCH  20  28
HETATM   28  O   UNL     1     -12.506  13.850  63.679  1.00  0.00    -0.768 OA 
HETATM   29  C   UNL     1     -12.764  12.477  63.406  1.00  0.00    -0.191 C  
ENDBRANCH  20  28
ENDBRANCH   7  18
BRANCH   8  30
HETATM   30  O   UNL     1     -10.793   9.521  69.687  1.00  0.00    -0.231 OA 
BRANCH  30  31
HETATM   31  C   UNL     1      -9.760   8.557  69.915  1.00  0.00    -0.179 C  
HETATM   32  O   UNL     1     -10.271   7.247  70.193  1.00  0.00    -0.198 OA 
HETATM   33  C   UNL     1      -9.269   6.371  70.733  1.00  0.00    -0.158 C  
HETATM   34  C   UNL     1      -9.737   4.923  70.885  1.00  0.00    -0.195 C  
HETATM   35  O   UNL     1      -8.734   4.144  71.542  1.00  0.00    -0.102 OA 
HETATM   36  C   UNL     1      -8.438   4.658  72.837  1.00  0.00    -0.110 C  
HETATM   37  C   UNL     1      -7.331   3.829  73.474  1.00  0.00    -0.065 C  
HETATM   38  O   UNL     1      -7.938   5.989  72.756  1.00  0.00    -0.106 OA 
HETATM   39  C   UNL     1      -8.863   6.868  72.116  1.00  0.00    -0.131 C  
HETATM   40  C   UNL     1      -8.147   8.195  71.940  1.00  0.00    -0.134 C  
HETATM   41  O   UNL     1      -7.883   8.763  73.233  1.00  0.00    -0.400 OA 
HETATM   42  C   UNL     1      -8.944   9.183  71.087  1.00  0.00    -0.179 C  
HETATM   43  H   UNL     1      -7.434   9.593  73.124  1.00  0.00     0.000 HD 
HETATM   44  O   UNL     1      -8.056  10.192  70.545  1.00  0.00    -0.416 OA 
HETATM   45  H   UNL     1      -7.559  10.573  71.259  1.00  0.00     0.000 HD 
ENDBRANCH  30  31
ENDBRANCH   8  30
TORSDOF 5
ENDMDL
MODEL       13
REMARK 921   NORMALIZED FREE ENERGY PREDICTED BY IDOCK:   -8.26 KCAL/MOL
REMARK 922        TOTAL FREE ENERGY PREDICTED BY IDOCK:  -11.90 KCAL/MOL
REMARK 923 INTER-LIGAND FREE ENERGY PREDICTED BY IDOCK:  -10.42 KCAL/MOL
REMARK 924 INTRA-LIGAND FREE ENERGY PREDICTED BY IDOCK:   -1.48 KCAL/MOL
REMARK 927      BINDING AFFINITY PREDICTED BY RF-SCORE:    0.00 PKD
ROOT
HETATM    1  C   UNL     1     -10.199  10.361  65.325  1.00  0.00    -0.332 C  
HETATM    2  C   UNL     1     -10.193  10.719  63.867  1.00  0.00    -0.309 C  
HETATM    3  O   UNL     1      -8.880  10.320  63.441  1.00  0.00    -0.180 OA 
HETATM    4  C   UNL     1      -8.028  10.303  64.518  1.00  0.00    -0.133 C  
HETATM    5  C   UNL     1      -8.783  10.659  65.765  1.00  0.00    -0.192 C  
HETATM    6  O   UNL     1      -6.821  10.153  64.422  1.00  0.00    -0.127 OA 
HETATM    7  C   UNL     1      -8.465  10.008  67.123  1.00  0.00    -0.125 C  
HETATM    8  C   UNL     1     -11.222  10.993  66.250  1.00  0.00     0.065 C  
HETATM    9  C   UNL     1      -9.641  10.141  68.103  1.00  0.00    -0.151 A  
HETATM   10  C   UNL     1      -9.455   9.760  69.449  1.00  0.00    -0.212 A  
HETATM   11  O   UNL     1     -10.542   9.377  71.598  1.00  0.00    -0.340 OA 
HETATM   12  C   UNL     1     -10.543   9.771  70.296  1.00  0.00    -0.292 A  
HETATM   13  C   UNL     1     -10.935  10.588  67.685  1.00  0.00    -0.375 A  
HETATM   14  C   UNL     1     -11.791  10.162  69.875  1.00  0.00    -0.135 A  
HETATM   15  C   UNL     1     -11.946   9.472  71.912  1.00  0.00    -0.311 C  
HETATM   16  O   UNL     1     -12.732  10.045  70.848  1.00  0.00    -0.329 OA 
HETATM   17  C   UNL     1     -12.014  10.594  68.590  1.00  0.00    -0.014 A  
ENDROOT
BRANCH   7  18
HETATM   18  C   UNL     1      -7.944   8.581  66.962  1.00  0.00    -0.100 A  
HETATM   19  O   UNL     1      -7.010   4.523  67.290  1.00  0.00    -0.058 OA 
HETATM   20  C   UNL     1      -6.436   6.794  67.593  1.00  0.00    -0.049 A  
HETATM   21  C   UNL     1      -8.777   7.620  66.369  1.00  0.00    -0.166 A  
HETATM   22  H   UNL     1      -6.222   4.246  67.742  1.00  0.00     0.000 HD 
HETATM   23  C   UNL     1      -6.732   8.153  67.517  1.00  0.00    -0.062 A  
HETATM   24  C   UNL     1      -7.339   5.842  67.090  1.00  0.00    -0.077 A  
HETATM   25  C   UNL     1      -8.497   6.249  66.427  1.00  0.00    -0.125 A  
BRANCH  25  26
HETATM   26  O   UNL     1      -9.470   5.517  65.804  1.00  0.00    -0.141 OA 
HETATM   27  C   UNL     1     -10.554   4.978  66.529  1.00  0.00    -0.231 C  
ENDBRANCH  25  26
BRANCH  20  28
HETATM   28  O   UNL     1      -5.305   6.310  68.221  1.00  0.00    -0.007 OA 
HETATM   29  C   UNL     1      -5.281   6.411  69.641  1.00  0.00    -0.013 C  
ENDBRANCH  20  28
ENDBRANCH   7  18
BRANCH   8  30
HETATM   30  O   UNL     1     -11.556  12.355  66.086  1.00  0.00    -0.359 OA 
BRANCH  30  31
HETATM   31  C   UNL     1     -10.676  13.461  66.310  1.00  0.00    -0.287 C  
HETATM   32  O   UNL     1     -10.942  14.144  67.542  1.00  0.00    -0.274 OA 
HETATM   33  C   UNL     1     -10.291  15.422  67.611  1.00  0.00    -0.262 C  
HETATM   34  C   UNL     1     -10.417  16.103  68.975  1.00  0.00    -0.261 C  
HETATM   35  O   UNL     1      -9.856  17.417  68.927  1.00  0.00    -0.298 OA 
HETATM   36  C   UNL     1     -10.510  18.231  67.957  1.00  0.00    -0.367 C  
HETATM   37  C   UNL     1      -9.846  19.600  67.907  1.00  0.00    -0.511 C  
HETATM   38  O   UNL     1     -10.375  17.677  66.652  1.00  0.00    -0.336 OA 
HETATM   39  C   UNL     1     -10.908  16.355  66.575  1.00  0.00    -0.073 C  
HETATM   40  C   UNL     1     -10.549  15.824  65.199  1.00  0.00    -0.411 C  
HETATM   41  O   UNL     1     -11.239  16.593  64.201  1.00  0.00    -1.410 OA 
HETATM   42  C   UNL     1     -10.881  14.339  65.038  1.00  0.00    -0.403 C  
HETATM   43  H   UNL     1     -11.014  16.262  63.340  1.00  0.00     0.000 HD 
HETATM   44  O   UNL     1     -10.100  13.775  63.957  1.00  0.00    -0.649 OA 
HETATM   45  H   UNL     1     -10.225  14.310  63.182  1.00  0.00     0.000 HD 
ENDBRANCH  30  31
ENDBRANCH   8  30
TORSDOF 5
ENDMDL
MODEL       14
REMARK 921   NORMALIZED FREE ENERGY PREDICTED BY IDOCK:   -8.20 KCAL/MOL
REMARK 922        TOTAL FREE ENERGY PREDICTED BY IDOCK:  -11.83 KCAL/MOL
REMARK 923 INTER-LIGAND FREE ENERGY PREDICTED BY IDOCK:  -10.94 KCAL/MOL
REMARK 924 INTRA-LIGAND FREE ENERGY PREDICTED BY IDOCK:   -0.89 KCAL/MOL
REMARK 927      BINDING AFFINITY PREDICTED BY RF-SCORE:    0.00 PKD
ROOT
HETATM    1  C   UNL     1      -9.831  11.119  66.892  1.00  0.00    -0.223 C  
HETATM    2  C   UNL     1      -9.500  11.521  65.484  1.00  0.00    -0.212 C  
HETATM    3  O   UNL     1     -10.271  12.719  65.299  1.00  0.00    -0.285 OA 
HETATM    4  C   UNL     1     -11.337  12.723  66.166  1.00  0.00    -0.328 C  
HETATM    5  C   UNL     1     -11.289  11.498  67.031  1.00  0.00    -0.340 C  
HETATM    6  O   UNL     1     -12.241  13.540  66.120  1.00  0.00    -0.419 OA 
HETATM    7  C   UNL     1     -11.726  11.526  68.507  1.00  0.00    -0.379 C  
HETATM    8  C   UNL     1      -9.572   9.695  67.348  1.00  0.00    -0.148 C  
HETATM    9  C   UNL     1     -11.139  10.344  69.293  1.00  0.00    -0.303 A  
HETATM   10  C   UNL     1     -11.582  10.114  70.612  1.00  0.00    -0.429 A  
HETATM   11  O   UNL     1     -11.238   8.822  72.652  1.00  0.00    -0.187 OA 
HETATM   12  C   UNL     1     -10.970   9.125  71.354  1.00  0.00    -0.344 A  
HETATM   13  C   UNL     1     -10.120   9.499  68.750  1.00  0.00    -0.202 A  
HETATM   14  C   UNL     1      -9.962   8.347  70.838  1.00  0.00    -0.191 A  
HETATM   15  C   UNL     1     -10.219   7.837  72.917  1.00  0.00    -0.315 C  
HETATM   16  O   UNL     1      -9.458   7.473  71.748  1.00  0.00    -0.144 OA 
HETATM   17  C   UNL     1      -9.532   8.492  69.542  1.00  0.00    -0.165 A  
ENDROOT
BRANCH   7  18
HETATM   18  C   UNL     1     -11.476  12.890  69.148  1.00  0.00    -0.360 A  
HETATM   19  O   UNL     1     -11.198  16.939  70.134  1.00  0.00    -0.400 OA 
HETATM   20  C   UNL     1     -10.219  14.954  69.310  1.00  0.00    -0.214 A  
HETATM   21  C   UNL     1     -12.526  13.517  69.834  1.00  0.00    -0.194 A  
HETATM   22  H   UNL     1     -10.417  17.434  69.921  1.00  0.00     0.000 HD 
HETATM   23  C   UNL     1     -10.291  13.610  68.951  1.00  0.00    -0.127 A  
HETATM   24  C   UNL     1     -11.325  15.592  69.898  1.00  0.00    -0.337 A  
HETATM   25  C   UNL     1     -12.474  14.865  70.212  1.00  0.00    -0.336 A  
BRANCH  25  26
HETATM   26  O   UNL     1     -13.627  15.250  70.839  1.00  0.00    -0.421 OA 
HETATM   27  C   UNL     1     -13.674  15.425  72.238  1.00  0.00    -0.526 C  
ENDBRANCH  25  26
BRANCH  20  28
HETATM   28  O   UNL     1      -9.114  15.740  69.046  1.00  0.00    -0.210 OA 
HETATM   29  C   UNL     1      -7.863  15.242  69.507  1.00  0.00    -0.204 C  
ENDBRANCH  20  28
ENDBRANCH   7  18
BRANCH   8  30
HETATM   30  O   UNL     1      -9.840   8.626  66.465  1.00  0.00    -0.237 OA 
BRANCH  30  31
HETATM   31  C   UNL     1      -9.412   7.272  66.642  1.00  0.00    -0.177 C  
HETATM   32  O   UNL     1      -8.300   6.926  65.805  1.00  0.00    -0.132 OA 
HETATM   33  C   UNL     1      -8.083   5.507  65.742  1.00  0.00    -0.112 C  
HETATM   34  C   UNL     1      -6.807   5.113  64.996  1.00  0.00    -0.049 C  
HETATM   35  O   UNL     1      -6.728   3.692  64.866  1.00  0.00    -0.045 OA 
HETATM   36  C   UNL     1      -7.845   3.167  64.155  1.00  0.00    -0.081 C  
HETATM   37  C   UNL     1      -7.740   1.650  64.088  1.00  0.00    -0.060 C  
HETATM   38  O   UNL     1      -9.062   3.450  64.836  1.00  0.00    -0.127 OA 
HETATM   39  C   UNL     1      -9.256   4.853  65.022  1.00  0.00    -0.102 C  
HETATM   40  C   UNL     1     -10.484   5.007  65.899  1.00  0.00    -0.186 C  
HETATM   41  O   UNL     1     -11.638   4.534  65.185  1.00  0.00    -1.102 OA 
HETATM   42  C   UNL     1     -10.705   6.452  66.352  1.00  0.00     0.101 C  
HETATM   43  H   UNL     1     -12.406   4.630  65.734  1.00  0.00     0.000 HD 
HETATM   44  O   UNL     1     -11.540   6.474  67.536  1.00  0.00    -0.693 OA 
HETATM   45  H   UNL     1     -12.329   5.974  67.359  1.00  0.00     0.000 HD 
ENDBRANCH  30  31
ENDBRANCH   8  30
TORSDOF 5
ENDMDL
MODEL       15
REMARK 921   NORMALIZED FREE ENERGY PREDICTED BY IDOCK:   -8.17 KCAL/MOL
REMARK 922        TOTAL FREE ENERGY PREDICTED BY IDOCK:  -11.80 KCAL/MOL
REMARK 923 INTER-LIGAND FREE ENERGY PREDICTED BY IDOCK:  -10.39 KCAL/MOL
REMARK 924 INTRA-LIGAND FREE ENERGY PREDICTED BY IDOCK:   -1.41 KCAL/MOL
REMARK 927      BINDING AFFINITY PREDICTED BY RF-SCORE:    0.00 PKD
ROOT
HETATM    1  C   UNL     1     -11.710  10.951  70.570  1.00  0.00    -0.441 C  
HETATM    2  C   UNL     1     -12.833  11.559  71.358  1.00  0.00    -0.384 C  
HETATM    3  O   UNL     1     -13.275  10.471  72.186  1.00  0.00    -0.458 OA 
HETATM    4  C   UNL     1     -12.934   9.275  71.602  1.00  0.00    -0.374 C  
HETATM    5  C   UNL     1     -12.177   9.532  70.331  1.00  0.00     0.003 C  
HETATM    6  O   UNL     1     -13.321   8.192  72.006  1.00  0.00    -0.322 OA 
HETATM    7  C   UNL     1     -11.020   8.625  69.876  1.00  0.00    -0.169 C  
HETATM    8  C   UNL     1     -11.245  11.615  69.288  1.00  0.00    -0.265 C  
HETATM    9  C   UNL     1     -10.108   9.338  68.865  1.00  0.00    -0.207 A  
HETATM   10  C   UNL     1      -9.104   8.594  68.209  1.00  0.00    -0.141 A  
HETATM   11  O   UNL     1      -7.161   8.699  66.739  1.00  0.00    -0.076 OA 
HETATM   12  C   UNL     1      -8.215   9.259  67.391  1.00  0.00    -0.117 A  
HETATM   13  C   UNL     1     -10.209  10.741  68.605  1.00  0.00    -0.198 A  
HETATM   14  C   UNL     1      -8.294  10.615  67.181  1.00  0.00    -0.125 A  
HETATM   15  C   UNL     1      -6.534   9.872  66.180  1.00  0.00    -0.079 C  
HETATM   16  O   UNL     1      -7.292  11.080  66.389  1.00  0.00    -0.142 OA 
HETATM   17  C   UNL     1      -9.285  11.376  67.751  1.00  0.00    -0.159 A  
ENDROOT
BRANCH   7  18
HETATM   18  C   UNL     1     -10.278   8.011  71.062  1.00  0.00    -0.217 A  
HETATM   19  O   UNL     1      -7.653   6.051  73.654  1.00  0.00    -0.096 OA 
HETATM   20  C   UNL     1      -9.662   6.097  72.413  1.00  0.00    -0.157 A  
HETATM   21  C   UNL     1      -9.186   8.702  71.607  1.00  0.00    -0.326 A  
HETATM   22  H   UNL     1      -7.805   5.147  73.899  1.00  0.00     0.000 HD 
HETATM   23  C   UNL     1     -10.544   6.718  71.530  1.00  0.00    -0.245 A  
HETATM   24  C   UNL     1      -8.513   6.771  72.861  1.00  0.00    -0.116 A  
HETATM   25  C   UNL     1      -8.290   8.101  72.501  1.00  0.00    -0.172 A  
BRANCH  25  26
HETATM   26  O   UNL     1      -7.296   8.967  72.866  1.00  0.00    -0.347 OA 
HETATM   27  C   UNL     1      -6.034   8.935  72.237  1.00  0.00    -0.066 C  
ENDBRANCH  25  26
BRANCH  20  28
HETATM   28  O   UNL     1      -9.819   4.789  72.827  1.00  0.00    -0.139 OA 
HETATM   29  C   UNL     1     -11.061   4.468  73.444  1.00  0.00    -0.322 C  
ENDBRANCH  20  28
ENDBRANCH   7  18
BRANCH   8  30
HETATM   30  O   UNL     1     -12.201  12.175  68.413  1.00  0.00    -0.324 OA 
BRANCH  30  31
HETATM   31  C   UNL     1     -12.229  13.535  67.969  1.00  0.00    -0.123 C  
HETATM   32  O   UNL     1     -11.325  13.787  66.885  1.00  0.00    -0.308 OA 
HETATM   33  C   UNL     1     -11.115  15.190  66.661  1.00  0.00    -0.308 C  
HETATM   34  C   UNL     1     -10.290  15.496  65.410  1.00  0.00    -0.394 C  
HETATM   35  O   UNL     1     -10.019  16.896  65.325  1.00  0.00    -0.526 OA 
HETATM   36  C   UNL     1      -9.297  17.360  66.463  1.00  0.00    -0.270 C  
HETATM   37  C   UNL     1      -9.078  18.863  66.351  1.00  0.00    -0.317 C  
HETATM   38  O   UNL     1     -10.045  17.158  67.658  1.00  0.00    -0.284 OA 
HETATM   39  C   UNL     1     -10.374  15.782  67.854  1.00  0.00    -0.261 C  
HETATM   40  C   UNL     1     -11.304  15.728  69.052  1.00  0.00    -0.354 C  
HETATM   41  O   UNL     1     -10.586  16.140  70.227  1.00  0.00    -0.265 OA 
HETATM   42  C   UNL     1     -11.904  14.337  69.267  1.00  0.00    -0.330 C  
HETATM   43  H   UNL     1     -11.168  16.107  70.976  1.00  0.00     0.000 HD 
HETATM   44  O   UNL     1     -13.112  14.439  70.060  1.00  0.00    -0.467 OA 
HETATM   45  H   UNL     1     -12.914  14.928  70.851  1.00  0.00     0.000 HD 
ENDBRANCH  30  31
ENDBRANCH   8  30
TORSDOF 5
ENDMDL
MODEL       16
REMARK 921   NORMALIZED FREE ENERGY PREDICTED BY IDOCK:   -8.13 KCAL/MOL
REMARK 922        TOTAL FREE ENERGY PREDICTED BY IDOCK:  -11.75 KCAL/MOL
REMARK 923 INTER-LIGAND FREE ENERGY PREDICTED BY IDOCK:   -9.98 KCAL/MOL
REMARK 924 INTRA-LIGAND FREE ENERGY PREDICTED BY IDOCK:   -1.77 KCAL/MOL
REMARK 927      BINDING AFFINITY PREDICTED BY RF-SCORE:    0.00 PKD
ROOT
HETATM    1  C   UNL     1     -12.004  13.740  68.886  1.00  0.00    -0.394 C  
HETATM    2  C   UNL     1     -13.100  14.339  69.718  1.00  0.00     0.646 C  
HETATM    3  O   UNL     1     -12.476  15.502  70.287  1.00  0.00    -0.399 OA 
HETATM    4  C   UNL     1     -11.113  15.330  70.318  1.00  0.00    -0.293 C  
HETATM    5  C   UNL     1     -10.757  14.009  69.701  1.00  0.00     0.066 C  
HETATM    6  O   UNL     1     -10.349  16.089  70.890  1.00  0.00     0.323 OA 
HETATM    7  C   UNL     1      -9.482  13.820  68.860  1.00  0.00     0.081 C  
HETATM    8  C   UNL     1     -12.094  12.288  68.455  1.00  0.00    -0.070 C  
HETATM    9  C   UNL     1      -9.581  12.585  67.952  1.00  0.00    -0.206 A  
HETATM   10  C   UNL     1      -8.434  12.161  67.249  1.00  0.00    -0.178 A  
HETATM   11  O   UNL     1      -7.564  10.641  65.551  1.00  0.00    -0.143 OA 
HETATM   12  C   UNL     1      -8.555  11.124  66.347  1.00  0.00    -0.172 A  
HETATM   13  C   UNL     1     -10.811  11.880  67.755  1.00  0.00    -0.254 A  
HETATM   14  C   UNL     1      -9.750  10.482  66.133  1.00  0.00    -0.209 A  
HETATM   15  C   UNL     1      -8.297   9.694  64.748  1.00  0.00    -0.151 C  
HETATM   16  O   UNL     1      -9.668   9.530  65.166  1.00  0.00    -0.277 OA 
HETATM   17  C   UNL     1     -10.884  10.818  66.832  1.00  0.00    -0.288 A  
ENDROOT
BRANCH   7  18
HETATM   18  C   UNL     1      -9.087  15.103  68.130  1.00  0.00    -0.176 A  
HETATM   19  O   UNL     1      -7.583  18.025  65.552  1.00  0.00    -0.530 OA 
HETATM   20  C   UNL     1      -7.455  16.802  67.569  1.00  0.00    -0.159 A  
HETATM   21  C   UNL     1      -9.833  15.500  67.010  1.00  0.00    -0.236 A  
HETATM   22  H   UNL     1      -6.750  18.444  65.733  1.00  0.00     0.000 HD 
HETATM   23  C   UNL     1      -7.921  15.816  68.436  1.00  0.00    -0.141 A  
HETATM   24  C   UNL     1      -8.163  17.107  66.394  1.00  0.00    -0.292 A  
HETATM   25  C   UNL     1      -9.388  16.493  66.129  1.00  0.00    -0.304 A  
BRANCH  25  26
HETATM   26  O   UNL     1     -10.273  16.679  65.102  1.00  0.00    -0.592 OA 
HETATM   27  C   UNL     1     -11.190  15.672  64.737  1.00  0.00    -0.382 C  
ENDBRANCH  25  26
BRANCH  20  28
HETATM   28  O   UNL     1      -6.260  17.466  67.766  1.00  0.00    -0.143 OA 
HETATM   29  C   UNL     1      -5.980  17.876  69.101  1.00  0.00    -0.224 C  
ENDBRANCH  20  28
ENDBRANCH   7  18
BRANCH   8  30
HETATM   30  O   UNL     1     -12.592  11.328  69.363  1.00  0.00    -0.239 OA 
BRANCH  30  31
HETATM   31  C   UNL     1     -11.880  10.793  70.483  1.00  0.00    -0.356 C  
HETATM   32  O   UNL     1     -11.096   9.642  70.148  1.00  0.00    -0.244 OA 
HETATM   33  C   UNL     1     -10.651   8.924  71.310  1.00  0.00    -0.281 C  
HETATM   34  C   UNL     1      -9.675   7.789  70.995  1.00  0.00    -0.163 C  
HETATM   35  O   UNL     1      -9.379   7.047  72.180  1.00  0.00    -0.136 OA 
HETATM   36  C   UNL     1     -10.555   6.483  72.753  1.00  0.00    -0.230 C  
HETATM   37  C   UNL     1     -10.196   5.748  74.037  1.00  0.00    -0.275 C  
HETATM   38  O   UNL     1     -11.480   7.499  73.125  1.00  0.00    -0.282 OA 
HETATM   39  C   UNL     1     -11.857   8.310  72.011  1.00  0.00    -0.347 C  
HETATM   40  C   UNL     1     -12.697   9.445  72.569  1.00  0.00    -0.192 C  
HETATM   41  O   UNL     1     -13.917   8.909  73.106  1.00  0.00    -1.118 OA 
HETATM   42  C   UNL     1     -13.012  10.512  71.519  1.00  0.00    -0.460 C  
HETATM   43  H   UNL     1     -14.443   9.618  73.455  1.00  0.00     0.000 HD 
HETATM   44  O   UNL     1     -13.358  11.758  72.173  1.00  0.00    -0.558 OA 
HETATM   45  H   UNL     1     -14.047  11.587  72.804  1.00  0.00     0.000 HD 
ENDBRANCH  30  31
ENDBRANCH   8  30
TORSDOF 5
ENDMDL
MODEL       17
REMARK 921   NORMALIZED FREE ENERGY PREDICTED BY IDOCK:   -8.13 KCAL/MOL
REMARK 922        TOTAL FREE ENERGY PREDICTED BY IDOCK:  -11.74 KCAL/MOL
REMARK 923 INTER-LIGAND FREE ENERGY PREDICTED BY IDOCK:  -10.74 KCAL/MOL
REMARK 924 INTRA-LIGAND FREE ENERGY PREDICTED BY IDOCK:   -1.00 KCAL/MOL
REMARK 927      BINDING AFFINITY PREDICTED BY RF-SCORE:    0.00 PKD
ROOT
HETATM    1  C   UNL     1     -11.554  13.395  68.232  1.00  0.00    -0.379 C  
HETATM    2  C   UNL     1     -12.644  14.075  69.006  1.00  0.00     0.350 C  
HETATM    3  O   UNL     1     -12.006  15.271  69.483  1.00  0.00    -0.320 OA 
HETATM    4  C   UNL     1     -10.647  15.082  69.536  1.00  0.00    -0.254 C  
HETATM    5  C   UNL     1     -10.307  13.711  69.030  1.00  0.00    -0.048 C  
HETATM    6  O   UNL     1      -9.874  15.874  70.049  1.00  0.00    -0.185 OA 
HETATM    7  C   UNL     1      -9.031  13.436  68.216  1.00  0.00    -0.176 C  
HETATM    8  C   UNL     1     -11.663  11.914  67.920  1.00  0.00    -0.298 C  
HETATM    9  C   UNL     1      -9.143  12.133  67.410  1.00  0.00    -0.181 A  
HETATM   10  C   UNL     1      -7.999  11.637  66.750  1.00  0.00    -0.140 A  
HETATM   11  O   UNL     1      -7.143   9.972  65.187  1.00  0.00    -0.123 OA 
HETATM   12  C   UNL     1      -8.132  10.533  65.934  1.00  0.00    -0.154 A  
HETATM   13  C   UNL     1     -10.383  11.433  67.263  1.00  0.00    -0.230 A  
HETATM   14  C   UNL     1      -9.335   9.892  65.766  1.00  0.00    -0.204 A  
HETATM   15  C   UNL     1      -7.887   8.973  64.459  1.00  0.00    -0.123 C  
HETATM   16  O   UNL     1      -9.262   8.864  64.880  1.00  0.00    -0.100 OA 
HETATM   17  C   UNL     1     -10.467  10.300  66.428  1.00  0.00    -0.233 A  
ENDROOT
BRANCH   7  18
HETATM   18  C   UNL     1      -8.613  14.650  67.386  1.00  0.00    -0.212 A  
HETATM   19  O   UNL     1      -7.678  18.437  65.893  1.00  0.00    -0.470 OA 
HETATM   20  C   UNL     1      -9.167  16.613  66.080  1.00  0.00    -0.277 A  
HETATM   21  C   UNL     1      -7.320  15.167  67.550  1.00  0.00    -0.222 A  
HETATM   22  H   UNL     1      -8.328  18.941  65.418  1.00  0.00     0.000 HD 
HETATM   23  C   UNL     1      -9.514  15.361  66.584  1.00  0.00    -0.281 A  
HETATM   24  C   UNL     1      -7.901  17.161  66.350  1.00  0.00    -0.317 A  
HETATM   25  C   UNL     1      -6.946  16.420  67.046  1.00  0.00    -0.219 A  
BRANCH  25  26
HETATM   26  O   UNL     1      -5.647  16.714  67.360  1.00  0.00    -0.129 OA 
HETATM   27  C   UNL     1      -5.324  17.833  68.156  1.00  0.00    -0.149 C  
ENDBRANCH  25  26
BRANCH  20  28
HETATM   28  O   UNL     1     -10.050  17.403  65.371  1.00  0.00    -0.562 OA 
HETATM   29  C   UNL     1     -10.660  18.469  66.091  1.00  0.00    -0.338 C  
ENDBRANCH  20  28
ENDBRANCH   7  18
BRANCH   8  30
HETATM   30  O   UNL     1     -12.179  11.038  68.899  1.00  0.00    -0.519 OA 
BRANCH  30  31
HETATM   31  C   UNL     1     -11.532  10.685  70.126  1.00  0.00    -0.329 C  
HETATM   32  O   UNL     1     -10.698   9.525  70.002  1.00  0.00    -0.214 OA 
HETATM   33  C   UNL     1     -10.315   8.987  71.277  1.00  0.00    -0.313 C  
HETATM   34  C   UNL     1      -9.293   7.853  71.184  1.00  0.00    -0.151 C  
HETATM   35  O   UNL     1      -9.059   7.290  72.477  1.00  0.00    -0.131 OA 
HETATM   36  C   UNL     1     -10.257   6.768  73.046  1.00  0.00    -0.214 C  
HETATM   37  C   UNL     1      -9.966   6.227  74.439  1.00  0.00    -0.346 C  
HETATM   38  O   UNL     1     -11.229   7.794  73.215  1.00  0.00    -0.350 OA 
HETATM   39  C   UNL     1     -11.550   8.434  71.979  1.00  0.00    -0.351 C  
HETATM   40  C   UNL     1     -12.454   9.604  72.321  1.00  0.00    -0.174 C  
HETATM   41  O   UNL     1     -13.694   9.105  72.847  1.00  0.00    -0.847 OA 
HETATM   42  C   UNL     1     -12.724  10.508  71.116  1.00  0.00    -0.418 C  
HETATM   43  H   UNL     1     -14.260   9.837  73.062  1.00  0.00     0.000 HD 
HETATM   44  O   UNL     1     -13.144  11.819  71.569  1.00  0.00    -0.407 OA 
HETATM   45  H   UNL     1     -13.870  11.711  72.173  1.00  0.00     0.000 HD 
ENDBRANCH  30  31
ENDBRANCH   8  30
TORSDOF 5
ENDMDL
MODEL       18
REMARK 921   NORMALIZED FREE ENERGY PREDICTED BY IDOCK:   -8.09 KCAL/MOL
REMARK 922        TOTAL FREE ENERGY PREDICTED BY IDOCK:  -11.68 KCAL/MOL
REMARK 923 INTER-LIGAND FREE ENERGY PREDICTED BY IDOCK:  -10.08 KCAL/MOL
REMARK 924 INTRA-LIGAND FREE ENERGY PREDICTED BY IDOCK:   -1.60 KCAL/MOL
REMARK 927      BINDING AFFINITY PREDICTED BY RF-SCORE:    0.00 PKD
ROOT
HETATM    1  C   UNL     1     -10.516  11.715  68.402  1.00  0.00    -0.230 C  
HETATM    2  C   UNL     1     -11.243  12.897  68.976  1.00  0.00    -0.267 C  
HETATM    3  O   UNL     1     -12.025  12.314  70.031  1.00  0.00    -0.327 OA 
HETATM    4  C   UNL     1     -12.235  10.982  69.773  1.00  0.00    -0.318 C  
HETATM    5  C   UNL     1     -11.530  10.597  68.505  1.00  0.00    -0.333 C  
HETATM    6  O   UNL     1     -12.995  10.279  70.418  1.00  0.00    -0.272 OA 
HETATM    7  C   UNL     1     -10.869   9.218  68.327  1.00  0.00    -0.132 C  
HETATM    8  C   UNL     1      -9.915  11.805  67.012  1.00  0.00    -0.204 C  
HETATM    9  C   UNL     1      -9.821   9.234  67.204  1.00  0.00    -0.251 A  
HETATM   10  C   UNL     1      -9.249   8.013  66.786  1.00  0.00    -0.206 A  
HETATM   11  O   UNL     1      -7.535   6.965  65.403  1.00  0.00    -0.079 OA 
HETATM   12  C   UNL     1      -8.227   8.043  65.861  1.00  0.00    -0.127 A  
HETATM   13  C   UNL     1      -9.368  10.450  66.602  1.00  0.00    -0.185 A  
HETATM   14  C   UNL     1      -7.770   9.220  65.319  1.00  0.00    -0.103 A  
HETATM   15  C   UNL     1      -6.531   7.611  64.594  1.00  0.00    -0.044 C  
HETATM   16  O   UNL     1      -6.723   9.035  64.472  1.00  0.00    -0.077 OA 
HETATM   17  C   UNL     1      -8.329  10.430  65.649  1.00  0.00    -0.163 A  
ENDROOT
BRANCH   7  18
HETATM   18  C   UNL     1     -10.355   8.659  69.653  1.00  0.00    -0.213 A  
HETATM   19  O   UNL     1      -8.320   6.714  72.740  1.00  0.00    -0.118 OA 
HETATM   20  C   UNL     1     -10.147   6.848  71.249  1.00  0.00    -0.190 A  
HETATM   21  C   UNL     1      -9.256   9.278  70.267  1.00  0.00    -0.273 A  
HETATM   22  H   UNL     1      -8.612   5.865  73.048  1.00  0.00     0.000 HD 
HETATM   23  C   UNL     1     -10.834   7.464  70.204  1.00  0.00    -0.270 A  
HETATM   24  C   UNL     1      -8.983   7.434  71.776  1.00  0.00    -0.122 A  
HETATM   25  C   UNL     1      -8.554   8.682  71.323  1.00  0.00    -0.187 A  
BRANCH  25  26
HETATM   26  O   UNL     1      -7.509   9.465  71.730  1.00  0.00    -0.297 OA 
HETATM   27  C   UNL     1      -6.225   9.319  71.165  1.00  0.00    -0.075 C  
ENDBRANCH  25  26
BRANCH  20  28
HETATM   28  O   UNL     1     -10.515   5.620  71.763  1.00  0.00    -0.214 OA 
HETATM   29  C   UNL     1     -11.738   5.582  72.491  1.00  0.00    -0.158 C  
ENDBRANCH  20  28
ENDBRANCH   7  18
BRANCH   8  30
HETATM   30  O   UNL     1     -10.625  12.478  65.993  1.00  0.00    -0.254 OA 
BRANCH  30  31
HETATM   31  C   UNL     1     -10.238  13.714  65.385  1.00  0.00    -0.313 C  
HETATM   32  O   UNL     1      -9.802  14.692  66.339  1.00  0.00    -0.260 OA 
HETATM   33  C   UNL     1      -9.728  16.011  65.775  1.00  0.00    -0.305 C  
HETATM   34  C   UNL     1      -9.109  17.047  66.716  1.00  0.00    -0.246 C  
HETATM   35  O   UNL     1      -9.185  18.351  66.136  1.00  0.00    -0.468 OA 
HETATM   36  C   UNL     1     -10.533  18.730  65.875  1.00  0.00    -0.376 C  
HETATM   37  C   UNL     1     -10.558  20.101  65.212  1.00  0.00     0.035 C  
HETATM   38  O   UNL     1     -11.145  17.835  64.953  1.00  0.00    -0.821 OA 
HETATM   39  C   UNL     1     -11.133  16.488  65.430  1.00  0.00    -0.019 C  
HETATM   40  C   UNL     1     -11.651  15.624  64.295  1.00  0.00    -0.189 C  
HETATM   41  O   UNL     1     -13.029  15.948  64.045  1.00  0.00    -0.379 OA 
HETATM   42  C   UNL     1     -11.510  14.129  64.585  1.00  0.00    -0.387 C  
HETATM   43  H   UNL     1     -13.353  15.408  63.335  1.00  0.00     0.000 HD 
HETATM   44  O   UNL     1     -11.538  13.382  63.344  1.00  0.00    -0.666 OA 
HETATM   45  H   UNL     1     -12.314  13.635  62.856  1.00  0.00     0.000 HD 
ENDBRANCH  30  31
ENDBRANCH   8  30
TORSDOF 5
ENDMDL
MODEL       19
REMARK 921   NORMALIZED FREE ENERGY PREDICTED BY IDOCK:   -8.01 KCAL/MOL
REMARK 922        TOTAL FREE ENERGY PREDICTED BY IDOCK:  -11.58 KCAL/MOL
REMARK 923 INTER-LIGAND FREE ENERGY PREDICTED BY IDOCK:   -9.99 KCAL/MOL
REMARK 924 INTRA-LIGAND FREE ENERGY PREDICTED BY IDOCK:   -1.59 KCAL/MOL
REMARK 927      BINDING AFFINITY PREDICTED BY RF-SCORE:    0.00 PKD
ROOT
HETATM    1  C   UNL     1      -9.195  10.346  67.891  1.00  0.00    -0.143 C  
HETATM    2  C   UNL     1      -8.389  10.938  66.773  1.00  0.00    -0.138 C  
HETATM    3  O   UNL     1      -7.235  10.084  66.718  1.00  0.00    -0.089 OA 
HETATM    4  C   UNL     1      -7.046   9.478  67.936  1.00  0.00    -0.081 C  
HETATM    5  C   UNL     1      -8.143   9.886  68.877  1.00  0.00    -0.105 C  
HETATM    6  O   UNL     1      -6.056   8.825  68.220  1.00  0.00    -0.048 OA 
HETATM    7  C   UNL     1      -8.729   8.912  69.915  1.00  0.00    -0.140 C  
HETATM    8  C   UNL     1     -10.273  11.176  68.564  1.00  0.00    -0.198 C  
HETATM    9  C   UNL     1     -10.116   9.364  70.395  1.00  0.00    -0.310 A  
HETATM   10  C   UNL     1     -10.718   8.688  71.476  1.00  0.00    -0.352 A  
HETATM   11  O   UNL     1     -12.748   8.423  72.803  1.00  0.00    -0.249 OA 
HETATM   12  C   UNL     1     -12.010   9.020  71.829  1.00  0.00    -0.368 A  
HETATM   13  C   UNL     1     -10.841  10.416  69.749  1.00  0.00    -0.342 A  
HETATM   14  C   UNL     1     -12.713  10.003  71.175  1.00  0.00    -0.387 A  
HETATM   15  C   UNL     1     -14.021   9.075  72.617  1.00  0.00    -0.308 C  
HETATM   16  O   UNL     1     -13.983  10.134  71.639  1.00  0.00    -0.007 OA 
HETATM   17  C   UNL     1     -12.154  10.729  70.152  1.00  0.00    -0.427 A  
ENDROOT
BRANCH   7  18
HETATM   18  C   UNL     1      -8.677   7.464  69.428  1.00  0.00    -0.137 A  
HETATM   19  O   UNL     1      -9.227   3.387  68.707  1.00  0.00    -0.139 OA 
HETATM   20  C   UNL     1      -8.039   5.148  69.740  1.00  0.00    -0.082 A  
HETATM   21  C   UNL     1      -9.602   7.042  68.462  1.00  0.00    -0.137 A  
HETATM   22  H   UNL     1      -8.710   2.741  69.174  1.00  0.00     0.000 HD 
HETATM   23  C   UNL     1      -7.848   6.500  70.016  1.00  0.00    -0.111 A  
HETATM   24  C   UNL     1      -9.048   4.741  68.849  1.00  0.00    -0.115 A  
HETATM   25  C   UNL     1      -9.807   5.689  68.162  1.00  0.00    -0.137 A  
BRANCH  25  26
HETATM   26  O   UNL     1     -10.778   5.533  67.212  1.00  0.00    -0.241 OA 
HETATM   27  C   UNL     1     -10.497   4.910  65.977  1.00  0.00    -0.283 C  
ENDBRANCH  25  26
BRANCH  20  28
HETATM   28  O   UNL     1      -7.322   4.148  70.367  1.00  0.00    -0.044 OA 
HETATM   29  C   UNL     1      -7.207   4.249  71.783  1.00  0.00    -0.055 C  
ENDBRANCH  20  28
ENDBRANCH   7  18
BRANCH   8  30
HETATM   30  O   UNL     1     -10.037  12.546  68.811  1.00  0.00    -0.166 OA 
BRANCH  30  31
HETATM   31  C   UNL     1     -10.706  13.635  68.169  1.00  0.00    -0.248 C  
HETATM   32  O   UNL     1      -9.895  14.280  67.178  1.00  0.00    -0.243 OA 
HETATM   33  C   UNL     1     -10.431  15.550  66.773  1.00  0.00    -0.295 C  
HETATM   34  C   UNL     1      -9.684  16.186  65.599  1.00  0.00    -0.204 C  
HETATM   35  O   UNL     1     -10.194  17.496  65.339  1.00  0.00    -0.593 OA 
HETATM   36  C   UNL     1     -10.057  18.347  66.474  1.00  0.00    -0.388 C  
HETATM   37  C   UNL     1     -10.659  19.711  66.164  1.00  0.00    -0.584 C  
HETATM   38  O   UNL     1     -10.785  17.836  67.585  1.00  0.00    -0.386 OA 
HETATM   39  C   UNL     1     -10.357  16.521  67.944  1.00  0.00    -0.294 C  
HETATM   40  C   UNL     1     -11.316  16.033  69.014  1.00  0.00    -0.363 C  
HETATM   41  O   UNL     1     -11.160  16.841  70.192  1.00  0.00    -0.451 OA 
HETATM   42  C   UNL     1     -11.106  14.557  69.361  1.00  0.00    -0.268 C  
HETATM   43  H   UNL     1     -11.760  16.536  70.862  1.00  0.00     0.000 HD 
HETATM   44  O   UNL     1     -12.303  14.021  69.976  1.00  0.00    -0.335 OA 
HETATM   45  H   UNL     1     -12.547  14.583  70.703  1.00  0.00     0.000 HD 
ENDBRANCH  30  31
ENDBRANCH   8  30
TORSDOF 5
ENDMDL
MODEL       20
REMARK 921   NORMALIZED FREE ENERGY PREDICTED BY IDOCK:   -8.00 KCAL/MOL
REMARK 922        TOTAL FREE ENERGY PREDICTED BY IDOCK:  -11.57 KCAL/MOL
REMARK 923 INTER-LIGAND FREE ENERGY PREDICTED BY IDOCK:  -10.23 KCAL/MOL
REMARK 924 INTRA-LIGAND FREE ENERGY PREDICTED BY IDOCK:   -1.34 KCAL/MOL
REMARK 927      BINDING AFFINITY PREDICTED BY RF-SCORE:    0.00 PKD
ROOT
HETATM    1  C   UNL     1     -10.313  12.337  67.624  1.00  0.00    -0.214 C  
HETATM    2  C   UNL     1      -9.648  11.382  66.677  1.00  0.00    -0.191 C  
HETATM    3  O   UNL     1      -9.336  12.211  65.546  1.00  0.00    -0.131 OA 
HETATM    4  C   UNL     1     -10.178  13.295  65.518  1.00  0.00    -0.290 C  
HETATM    5  C   UNL     1     -11.093  13.254  66.706  1.00  0.00    -0.313 C  
HETATM    6  O   UNL     1     -10.241  14.078  64.585  1.00  0.00    -0.420 OA 
HETATM    7  C   UNL     1     -11.540  14.534  67.435  1.00  0.00    -0.406 C  
HETATM    8  C   UNL     1     -11.175  11.802  68.752  1.00  0.00    -0.251 C  
HETATM    9  C   UNL     1     -12.036  14.232  68.857  1.00  0.00    -0.356 A  
HETATM   10  C   UNL     1     -12.650  15.262  69.600  1.00  0.00    -0.087 A  
HETATM   11  O   UNL     1     -13.528  15.922  71.778  1.00  0.00    -0.406 OA 
HETATM   12  C   UNL     1     -12.988  15.020  70.915  1.00  0.00    -0.405 A  
HETATM   13  C   UNL     1     -11.848  12.954  69.474  1.00  0.00    -0.383 A  
HETATM   14  C   UNL     1     -12.765  13.802  71.511  1.00  0.00    -0.346 A  
HETATM   15  C   UNL     1     -13.525  15.162  73.003  1.00  0.00    -0.452 C  
HETATM   16  O   UNL     1     -13.117  13.790  72.824  1.00  0.00    -0.462 OA 
HETATM   17  C   UNL     1     -12.221  12.749  70.817  1.00  0.00    -0.338 A  
ENDROOT
BRANCH   7  18
HETATM   18  C   UNL     1     -10.478  15.630  67.363  1.00  0.00    -0.291 A  
HETATM   19  O   UNL     1      -7.339  18.202  66.374  1.00  0.00    -0.217 OA 
HETATM   20  C   UNL     1      -8.186  16.376  67.609  1.00  0.00    -0.153 A  
HETATM   21  C   UNL     1     -10.720  16.755  66.561  1.00  0.00    -0.104 A  
HETATM   22  H   UNL     1      -6.465  18.046  66.710  1.00  0.00     0.000 HD 
HETATM   23  C   UNL     1      -9.209  15.489  67.939  1.00  0.00    -0.187 A  
HETATM   24  C   UNL     1      -8.425  17.434  66.715  1.00  0.00    -0.254 A  
HETATM   25  C   UNL     1      -9.710  17.664  66.221  1.00  0.00    -0.263 A  
BRANCH  25  26
HETATM   26  O   UNL     1     -10.187  18.655  65.408  1.00  0.00    -0.376 OA 
HETATM   27  C   UNL     1     -10.370  19.968  65.890  1.00  0.00    -0.424 C  
ENDBRANCH  25  26
BRANCH  20  28
HETATM   28  O   UNL     1      -6.892  16.226  68.065  1.00  0.00    -0.122 OA 
HETATM   29  C   UNL     1      -6.707  15.323  69.151  1.00  0.00    -0.135 C  
ENDBRANCH  20  28
ENDBRANCH   7  18
BRANCH   8  30
HETATM   30  O   UNL     1     -12.017  10.694  68.512  1.00  0.00    -0.425 OA 
BRANCH  30  31
HETATM   31  C   UNL     1     -11.887   9.402  69.115  1.00  0.00     0.862 C  
HETATM   32  O   UNL     1     -11.785   9.462  70.543  1.00  0.00    -0.262 OA 
HETATM   33  C   UNL     1     -11.334   8.223  71.112  1.00  0.00    -0.263 C  
HETATM   34  C   UNL     1     -11.374   8.198  72.641  1.00  0.00    -0.381 C  
HETATM   35  O   UNL     1     -10.795   6.987  73.133  1.00  0.00    -0.290 OA 
HETATM   36  C   UNL     1      -9.440   6.847  72.717  1.00  0.00    -0.142 C  
HETATM   37  C   UNL     1      -8.885   5.522  73.220  1.00  0.00    -0.121 C  
HETATM   38  O   UNL     1      -9.344   6.802  71.297  1.00  0.00    -0.164 OA 
HETATM   39  C   UNL     1      -9.892   7.972  70.688  1.00  0.00    -0.184 C  
HETATM   40  C   UNL     1      -9.885   7.722  69.191  1.00  0.00    -0.173 C  
HETATM   41  O   UNL     1      -8.526   7.631  68.733  1.00  0.00    -0.128 OA 
HETATM   42  C   UNL     1     -10.627   8.810  68.412  1.00  0.00    -0.137 C  
HETATM   43  H   UNL     1      -8.521   7.475  67.797  1.00  0.00     0.000 HD 
HETATM   44  O   UNL     1     -11.020   8.302  67.113  1.00  0.00    -0.446 OA 
HETATM   45  H   UNL     1     -10.253   7.941  66.684  1.00  0.00     0.000 HD 
ENDBRANCH  30  31
ENDBRANCH   8  30
TORSDOF 5
ENDMDL
MODEL       21
REMARK 921   NORMALIZED FREE ENERGY PREDICTED BY IDOCK:   -7.98 KCAL/MOL
REMARK 922        TOTAL FREE ENERGY PREDICTED BY IDOCK:  -11.55 KCAL/MOL
REMARK 923 INTER-LIGAND FREE ENERGY PREDICTED BY IDOCK:  -10.17 KCAL/MOL
REMARK 924 INTRA-LIGAND FREE ENERGY PREDICTED BY IDOCK:   -1.37 KCAL/MOL
REMARK 927      BINDING AFFINITY PREDICTED BY RF-SCORE:    0.00 PKD
ROOT
HETATM    1  C   UNL     1     -11.517  10.632  70.447  1.00  0.00    -0.422 C  
HETATM    2  C   UNL     1     -12.702  11.106  71.237  1.00  0.00    -0.426 C  
HETATM    3  O   UNL     1     -13.081   9.940  71.986  1.00  0.00    -0.423 OA 
HETATM    4  C   UNL     1     -12.636   8.811  71.342  1.00  0.00    -0.294 C  
HETATM    5  C   UNL     1     -11.871   9.199  70.111  1.00  0.00     0.125 C  
HETATM    6  O   UNL     1     -12.950   7.678  71.670  1.00  0.00    -0.334 OA 
HETATM    7  C   UNL     1     -10.637   8.410  69.637  1.00  0.00    -0.219 C  
HETATM    8  C   UNL     1     -11.072  11.405  69.220  1.00  0.00    -0.254 C  
HETATM    9  C   UNL     1      -9.757   9.248  68.696  1.00  0.00    -0.158 A  
HETATM   10  C   UNL     1      -8.685   8.622  68.026  1.00  0.00    -0.141 A  
HETATM   11  O   UNL     1      -6.720   8.960  66.622  1.00  0.00    -0.070 OA 
HETATM   12  C   UNL     1      -7.829   9.400  67.276  1.00  0.00    -0.099 A  
HETATM   13  C   UNL     1      -9.957  10.654  68.517  1.00  0.00    -0.176 A  
HETATM   14  C   UNL     1      -8.004  10.756  67.143  1.00  0.00    -0.124 A  
HETATM   15  C   UNL     1      -6.170  10.207  66.151  1.00  0.00    -0.082 C  
HETATM   16  O   UNL     1      -7.021  11.342  66.410  1.00  0.00    -0.124 OA 
HETATM   17  C   UNL     1      -9.063  11.406  67.729  1.00  0.00    -0.158 A  
ENDROOT
BRANCH   7  18
HETATM   18  C   UNL     1      -9.880   7.781  70.805  1.00  0.00    -0.183 A  
HETATM   19  O   UNL     1      -8.615   6.179  74.449  1.00  0.00    -0.118 OA 
HETATM   20  C   UNL     1      -8.706   7.973  72.916  1.00  0.00    -0.213 A  
HETATM   21  C   UNL     1     -10.060   6.415  71.070  1.00  0.00    -0.212 A  
HETATM   22  H   UNL     1      -8.181   6.727  75.092  1.00  0.00     0.000 HD 
HETATM   23  C   UNL     1      -9.136   8.540  71.717  1.00  0.00    -0.304 A  
HETATM   24  C   UNL     1      -8.994   6.628  73.208  1.00  0.00    -0.123 A  
HETATM   25  C   UNL     1      -9.631   5.821  72.264  1.00  0.00    -0.147 A  
BRANCH  25  26
HETATM   26  O   UNL     1      -9.946   4.491  72.299  1.00  0.00    -0.165 OA 
HETATM   27  C   UNL     1     -10.967   4.005  73.142  1.00  0.00    -0.166 C  
ENDBRANCH  25  26
BRANCH  20  28
HETATM   28  O   UNL     1      -8.058   8.699  73.895  1.00  0.00    -0.398 OA 
HETATM   29  C   UNL     1      -6.638   8.605  73.914  1.00  0.00    -0.052 C  
ENDBRANCH  20  28
ENDBRANCH   7  18
BRANCH   8  30
HETATM   30  O   UNL     1     -12.046  11.946  68.352  1.00  0.00    -0.448 OA 
BRANCH  30  31
HETATM   31  C   UNL     1     -12.126  13.313  67.938  1.00  0.00    -0.228 C  
HETATM   32  O   UNL     1     -11.257  13.613  66.838  1.00  0.00    -0.298 OA 
HETATM   33  C   UNL     1     -11.095  15.026  66.637  1.00  0.00    -0.326 C  
HETATM   34  C   UNL     1     -10.311  15.381  65.373  1.00  0.00    -0.394 C  
HETATM   35  O   UNL     1     -10.084  16.791  65.310  1.00  0.00    -0.577 OA 
HETATM   36  C   UNL     1      -9.349  17.254  66.439  1.00  0.00    -0.258 C  
HETATM   37  C   UNL     1      -9.178  18.765  66.352  1.00  0.00    -0.312 C  
HETATM   38  O   UNL     1     -10.060  17.006  67.647  1.00  0.00    -0.279 OA 
HETATM   39  C   UNL     1     -10.343  15.617  67.824  1.00  0.00    -0.266 C  
HETATM   40  C   UNL     1     -11.241  15.511  69.042  1.00  0.00    -0.303 C  
HETATM   41  O   UNL     1     -10.507  15.922  70.207  1.00  0.00    -0.291 OA 
HETATM   42  C   UNL     1     -11.794  14.099  69.243  1.00  0.00    -0.338 C  
HETATM   43  H   UNL     1     -11.069  15.856  70.970  1.00  0.00     0.000 HD 
HETATM   44  O   UNL     1     -12.985  14.149  70.067  1.00  0.00    -0.396 OA 
HETATM   45  H   UNL     1     -12.782  14.628  70.862  1.00  0.00     0.000 HD 
ENDBRANCH  30  31
ENDBRANCH   8  30
TORSDOF 5
ENDMDL
MODEL       22
REMARK 921   NORMALIZED FREE ENERGY PREDICTED BY IDOCK:   -7.70 KCAL/MOL
REMARK 922        TOTAL FREE ENERGY PREDICTED BY IDOCK:  -11.18 KCAL/MOL
REMARK 923 INTER-LIGAND FREE ENERGY PREDICTED BY IDOCK:   -9.69 KCAL/MOL
REMARK 924 INTRA-LIGAND FREE ENERGY PREDICTED BY IDOCK:   -1.49 KCAL/MOL
REMARK 927      BINDING AFFINITY PREDICTED BY RF-SCORE:    0.00 PKD
ROOT
HETATM    1  C   UNL     1      -9.351   9.603  66.221  1.00  0.00    -0.238 C  
HETATM    2  C   UNL     1      -8.625   8.823  65.164  1.00  0.00    -0.182 C  
HETATM    3  O   UNL     1      -8.392   9.803  64.140  1.00  0.00    -0.144 OA 
HETATM    4  C   UNL     1      -9.318  10.813  64.245  1.00  0.00    -0.245 C  
HETATM    5  C   UNL     1     -10.212  10.558  65.422  1.00  0.00    -0.340 C  
HETATM    6  O   UNL     1      -9.453  11.695  63.413  1.00  0.00    -0.277 OA 
HETATM    7  C   UNL     1     -10.749  11.702  66.301  1.00  0.00    -0.317 C  
HETATM    8  C   UNL     1     -10.155   8.869  67.278  1.00  0.00    -0.239 C  
HETATM    9  C   UNL     1     -11.201  11.194  67.678  1.00  0.00    -0.364 A  
HETATM   10  C   UNL     1     -11.885  12.076  68.541  1.00  0.00    -0.369 A  
HETATM   11  O   UNL     1     -12.785  12.399  70.784  1.00  0.00    -0.238 OA 
HETATM   12  C   UNL     1     -12.187  11.652  69.818  1.00  0.00    -0.219 A  
HETATM   13  C   UNL     1     -10.907   9.870  68.136  1.00  0.00    -0.282 A  
HETATM   14  C   UNL     1     -11.863  10.393  70.263  1.00  0.00    -0.312 A  
HETATM   15  C   UNL     1     -12.708  11.500  71.909  1.00  0.00    -0.144 C  
HETATM   16  O   UNL     1     -12.196  10.197  71.566  1.00  0.00    -0.373 OA 
HETATM   17  C   UNL     1     -11.247   9.477  69.446  1.00  0.00    -0.066 A  
ENDROOT
BRANCH   7  18
HETATM   18  C   UNL     1      -9.776  12.879  66.358  1.00  0.00    -0.263 A  
HETATM   19  O   UNL     1      -7.580  16.309  67.289  1.00  0.00    -0.140 OA 
HETATM   20  C   UNL     1      -9.276  15.229  66.048  1.00  0.00    -0.273 A  
HETATM   21  C   UNL     1      -8.650  12.786  67.190  1.00  0.00    -0.197 A  
HETATM   22  H   UNL     1      -7.822  17.150  66.920  1.00  0.00     0.000 HD 
HETATM   23  C   UNL     1     -10.039  14.106  65.735  1.00  0.00    -0.352 A  
HETATM   24  C   UNL     1      -8.219  15.135  66.970  1.00  0.00    -0.228 A  
HETATM   25  C   UNL     1      -7.864  13.899  67.513  1.00  0.00    -0.181 A  
BRANCH  25  26
HETATM   26  O   UNL     1      -6.846  13.559  68.361  1.00  0.00    -0.084 OA 
HETATM   27  C   UNL     1      -5.513  13.483  67.906  1.00  0.00    -0.107 C  
ENDBRANCH  25  26
BRANCH  20  28
HETATM   28  O   UNL     1      -9.553  16.485  65.544  1.00  0.00    -0.502 OA 
HETATM   29  C   UNL     1     -10.568  17.223  66.216  1.00  0.00    -0.184 C  
ENDBRANCH  20  28
ENDBRANCH   7  18
BRANCH   8  30
HETATM   30  O   UNL     1     -10.911   7.735  66.910  1.00  0.00    -0.311 OA 
BRANCH  30  31
HETATM   31  C   UNL     1     -10.885   6.466  67.571  1.00  0.00    -0.354 C  
HETATM   32  O   UNL     1     -10.088   6.475  68.762  1.00  0.00    -0.149 OA 
HETATM   33  C   UNL     1      -9.799   5.150  69.238  1.00  0.00    -0.190 C  
HETATM   34  C   UNL     1      -9.094   5.125  70.595  1.00  0.00    -0.141 C  
HETATM   35  O   UNL     1      -8.730   3.786  70.939  1.00  0.00    -0.070 OA 
HETATM   36  C   UNL     1      -7.858   3.214  69.969  1.00  0.00    -0.043 C  
HETATM   37  C   UNL     1      -7.541   1.775  70.352  1.00  0.00    -0.035 C  
HETATM   38  O   UNL     1      -8.484   3.154  68.692  1.00  0.00    -0.070 OA 
HETATM   39  C   UNL     1      -8.892   4.445  68.237  1.00  0.00    -0.105 C  
HETATM   40  C   UNL     1      -9.688   4.222  66.964  1.00  0.00    -0.206 C  
HETATM   41  O   UNL     1      -8.818   3.696  65.949  1.00  0.00    -0.115 OA 
HETATM   42  C   UNL     1     -10.363   5.501  66.463  1.00  0.00    -0.256 C  
HETATM   43  H   UNL     1      -9.316   3.556  65.153  1.00  0.00     0.000 HD 
HETATM   44  O   UNL     1     -11.467   5.163  65.588  1.00  0.00    -0.787 OA 
HETATM   45  H   UNL     1     -11.149   4.575  64.913  1.00  0.00     0.000 HD 
ENDBRANCH  30  31
ENDBRANCH   8  30
TORSDOF 5
ENDMDL
MODEL       23
REMARK 921   NORMALIZED FREE ENERGY PREDICTED BY IDOCK:   -7.70 KCAL/MOL
REMARK 922        TOTAL FREE ENERGY PREDICTED BY IDOCK:  -11.18 KCAL/MOL
REMARK 923 INTER-LIGAND FREE ENERGY PREDICTED BY IDOCK:   -9.87 KCAL/MOL
REMARK 924 INTRA-LIGAND FREE ENERGY PREDICTED BY IDOCK:   -1.31 KCAL/MOL
REMARK 927      BINDING AFFINITY PREDICTED BY RF-SCORE:    0.00 PKD
ROOT
HETATM    1  C   UNL     1     -10.017  11.490  66.762  1.00  0.00    -0.235 C  
HETATM    2  C   UNL     1      -9.631  11.929  65.379  1.00  0.00    -0.165 C  
HETATM    3  O   UNL     1     -10.273  13.209  65.254  1.00  0.00    -0.299 OA 
HETATM    4  C   UNL     1     -11.342  13.278  66.114  1.00  0.00    -0.309 C  
HETATM    5  C   UNL     1     -11.430  12.011  66.913  1.00  0.00    -0.402 C  
HETATM    6  O   UNL     1     -12.157  14.185  66.107  1.00  0.00    -0.405 OA 
HETATM    7  C   UNL     1     -11.877  12.006  68.386  1.00  0.00    -0.360 C  
HETATM    8  C   UNL     1      -9.911  10.026  67.143  1.00  0.00    -0.201 C  
HETATM    9  C   UNL     1     -11.423  10.730  69.111  1.00  0.00    -0.368 A  
HETATM   10  C   UNL     1     -11.902  10.479  70.414  1.00  0.00    -0.431 A  
HETATM   11  O   UNL     1     -11.715   9.053  72.384  1.00  0.00    -0.290 OA 
HETATM   12  C   UNL     1     -11.402   9.394  71.105  1.00  0.00    -0.351 A  
HETATM   13  C   UNL     1     -10.491   9.814  68.529  1.00  0.00    -0.239 A  
HETATM   14  C   UNL     1     -10.475   8.544  70.553  1.00  0.00    -0.204 A  
HETATM   15  C   UNL     1     -10.805   7.955  72.602  1.00  0.00    -0.364 C  
HETATM   16  O   UNL     1     -10.073   7.576  71.418  1.00  0.00    -0.186 OA 
HETATM   17  C   UNL     1     -10.018   8.711  69.269  1.00  0.00    -0.195 A  
ENDROOT
BRANCH   7  18
HETATM   18  C   UNL     1     -11.494  13.301  69.101  1.00  0.00    -0.357 A  
HETATM   19  O   UNL     1     -10.827  17.243  70.310  1.00  0.00    -0.184 OA 
HETATM   20  C   UNL     1     -10.046  15.225  69.365  1.00  0.00    -0.264 A  
HETATM   21  C   UNL     1     -12.476  13.985  69.833  1.00  0.00    -0.301 A  
HETATM   22  H   UNL     1     -10.003  17.673  70.116  1.00  0.00     0.000 HD 
HETATM   23  C   UNL     1     -10.248  13.916  68.931  1.00  0.00    -0.135 A  
HETATM   24  C   UNL     1     -11.083  15.930  69.999  1.00  0.00    -0.354 A  
HETATM   25  C   UNL     1     -12.294  15.298  70.285  1.00  0.00    -0.366 A  
BRANCH  25  26
HETATM   26  O   UNL     1     -13.402  15.754  70.945  1.00  0.00    -0.576 OA 
HETATM   27  C   UNL     1     -14.175  14.895  71.754  1.00  0.00    -0.544 C  
ENDBRANCH  25  26
BRANCH  20  28
HETATM   28  O   UNL     1      -8.873  15.916  69.133  1.00  0.00    -0.227 OA 
HETATM   29  C   UNL     1      -7.664  15.204  69.375  1.00  0.00    -0.213 C  
ENDBRANCH  20  28
ENDBRANCH   7  18
BRANCH   8  30
HETATM   30  O   UNL     1     -10.278   9.038  66.202  1.00  0.00    -0.267 OA 
BRANCH  30  31
HETATM   31  C   UNL     1      -9.519   7.867  65.886  1.00  0.00     0.070 C  
HETATM   32  O   UNL     1      -9.948   6.711  66.617  1.00  0.00    -0.175 OA 
HETATM   33  C   UNL     1      -8.998   5.636  66.547  1.00  0.00    -0.126 C  
HETATM   34  C   UNL     1      -9.497   4.333  67.175  1.00  0.00    -0.181 C  
HETATM   35  O   UNL     1      -8.456   3.354  67.179  1.00  0.00    -0.096 OA 
HETATM   36  C   UNL     1      -7.320   3.800  67.914  1.00  0.00    -0.062 C  
HETATM   37  C   UNL     1      -6.223   2.747  67.846  1.00  0.00    -0.031 C  
HETATM   38  O   UNL     1      -6.772   4.981  67.338  1.00  0.00    -0.052 OA 
HETATM   39  C   UNL     1      -7.727   6.041  67.283  1.00  0.00    -0.097 C  
HETATM   40  C   UNL     1      -7.077   7.168  66.501  1.00  0.00    -0.078 C  
HETATM   41  O   UNL     1      -5.957   7.675  67.246  1.00  0.00    -0.044 OA 
HETATM   42  C   UNL     1      -8.053   8.303  66.187  1.00  0.00    -0.111 C  
HETATM   43  H   UNL     1      -5.550   8.379  66.757  1.00  0.00     0.000 HD 
HETATM   44  O   UNL     1      -7.562   9.077  65.065  1.00  0.00    -0.098 OA 
HETATM   45  H   UNL     1      -6.668   9.343  65.248  1.00  0.00     0.000 HD 
ENDBRANCH  30  31
ENDBRANCH   8  30
TORSDOF 5
ENDMDL
MODEL       24
REMARK 921   NORMALIZED FREE ENERGY PREDICTED BY IDOCK:   -7.68 KCAL/MOL
REMARK 922        TOTAL FREE ENERGY PREDICTED BY IDOCK:  -11.16 KCAL/MOL
REMARK 923 INTER-LIGAND FREE ENERGY PREDICTED BY IDOCK:   -9.78 KCAL/MOL
REMARK 924 INTRA-LIGAND FREE ENERGY PREDICTED BY IDOCK:   -1.37 KCAL/MOL
REMARK 927      BINDING AFFINITY PREDICTED BY RF-SCORE:    0.00 PKD
ROOT
HETATM    1  C   UNL     1      -9.233  10.491  67.746  1.00  0.00    -0.151 C  
HETATM    2  C   UNL     1      -8.501  11.133  66.603  1.00  0.00    -0.164 C  
HETATM    3  O   UNL     1      -7.343  10.297  66.449  1.00  0.00    -0.103 OA 
HETATM    4  C   UNL     1      -7.076   9.651  67.632  1.00  0.00    -0.088 C  
HETATM    5  C   UNL     1      -8.119  10.011  68.650  1.00  0.00    -0.102 C  
HETATM    6  O   UNL     1      -6.064   9.002  67.834  1.00  0.00    -0.049 OA 
HETATM    7  C   UNL     1      -8.631   8.994  69.685  1.00  0.00    -0.137 C  
HETATM    8  C   UNL     1     -10.277  11.283  68.510  1.00  0.00    -0.205 C  
HETATM    9  C   UNL     1      -9.992   9.411  70.262  1.00  0.00    -0.284 A  
HETATM   10  C   UNL     1     -10.522   8.690  71.353  1.00  0.00    -0.327 A  
HETATM   11  O   UNL     1     -12.466   8.353  72.787  1.00  0.00    -0.297 OA 
HETATM   12  C   UNL     1     -11.793   8.993  71.793  1.00  0.00    -0.372 A  
HETATM   13  C   UNL     1     -10.765  10.475  69.698  1.00  0.00    -0.302 A  
HETATM   14  C   UNL     1     -12.545   9.988  71.217  1.00  0.00    -0.393 A  
HETATM   15  C   UNL     1     -13.754   8.994  72.700  1.00  0.00    -0.359 C  
HETATM   16  O   UNL     1     -13.787  10.087  71.760  1.00  0.00    -0.174 OA 
HETATM   17  C   UNL     1     -12.056  10.757  70.190  1.00  0.00    -0.427 A  
ENDROOT
BRANCH   7  18
HETATM   18  C   UNL     1      -8.593   7.565  69.146  1.00  0.00    -0.136 A  
HETATM   19  O   UNL     1      -7.693   3.937  67.282  1.00  0.00    -0.079 OA 
HETATM   20  C   UNL     1      -8.885   5.975  67.342  1.00  0.00    -0.106 A  
HETATM   21  C   UNL     1      -7.805   6.613  69.810  1.00  0.00    -0.115 A  
HETATM   22  H   UNL     1      -8.040   3.739  66.420  1.00  0.00     0.000 HD 
HETATM   23  C   UNL     1      -9.186   7.202  67.930  1.00  0.00    -0.129 A  
HETATM   24  C   UNL     1      -8.005   5.081  67.975  1.00  0.00    -0.090 A  
HETATM   25  C   UNL     1      -7.495   5.370  69.242  1.00  0.00    -0.073 A  
BRANCH  25  26
HETATM   26  O   UNL     1      -6.692   4.633  70.067  1.00  0.00    -0.035 OA 
HETATM   27  C   UNL     1      -6.596   4.925  71.444  1.00  0.00    -0.038 C  
ENDBRANCH  25  26
BRANCH  20  28
HETATM   28  O   UNL     1      -9.359   5.607  66.098  1.00  0.00    -0.157 OA 
HETATM   29  C   UNL     1     -10.653   5.014  66.067  1.00  0.00    -0.232 C  
ENDBRANCH  20  28
ENDBRANCH   7  18
BRANCH   8  30
HETATM   30  O   UNL     1     -10.042  12.647  68.791  1.00  0.00    -0.165 OA 
BRANCH  30  31
HETATM   31  C   UNL     1     -10.691  13.753  68.156  1.00  0.00    -0.248 C  
HETATM   32  O   UNL     1      -9.841  14.440  67.229  1.00  0.00    -0.240 OA 
HETATM   33  C   UNL     1     -10.371  15.718  66.844  1.00  0.00    -0.295 C  
HETATM   34  C   UNL     1      -9.575  16.404  65.731  1.00  0.00    -0.192 C  
HETATM   35  O   UNL     1     -10.086  17.717  65.493  1.00  0.00    -0.566 OA 
HETATM   36  C   UNL     1     -10.013  18.528  66.662  1.00  0.00    -0.372 C  
HETATM   37  C   UNL     1     -10.615  19.896  66.373  1.00  0.00    -0.532 C  
HETATM   38  O   UNL     1     -10.788  17.970  67.718  1.00  0.00    -0.383 OA 
HETATM   39  C   UNL     1     -10.364  16.648  68.051  1.00  0.00    -0.303 C  
HETATM   40  C   UNL     1     -11.367  16.113  69.055  1.00  0.00    -0.340 C  
HETATM   41  O   UNL     1     -11.278  16.879  70.268  1.00  0.00    -0.423 OA 
HETATM   42  C   UNL     1     -11.158  14.628  69.359  1.00  0.00    -0.268 C  
HETATM   43  H   UNL     1     -11.906  16.545  70.896  1.00  0.00     0.000 HD 
HETATM   44  O   UNL     1     -12.378  14.059  69.896  1.00  0.00    -0.330 OA 
HETATM   45  H   UNL     1     -12.663  14.592  70.630  1.00  0.00     0.000 HD 
ENDBRANCH  30  31
ENDBRANCH   8  30
TORSDOF 5
ENDMDL
MODEL       25
REMARK 921   NORMALIZED FREE ENERGY PREDICTED BY IDOCK:   -7.59 KCAL/MOL
REMARK 922        TOTAL FREE ENERGY PREDICTED BY IDOCK:  -11.04 KCAL/MOL
REMARK 923 INTER-LIGAND FREE ENERGY PREDICTED BY IDOCK:   -9.53 KCAL/MOL
REMARK 924 INTRA-LIGAND FREE ENERGY PREDICTED BY IDOCK:   -1.51 KCAL/MOL
REMARK 927      BINDING AFFINITY PREDICTED BY RF-SCORE:    0.00 PKD
ROOT
HETATM    1  C   UNL     1     -11.102   9.765  70.135  1.00  0.00    -0.335 C  
HETATM    2  C   UNL     1     -11.851  10.289  71.325  1.00  0.00    -0.335 C  
HETATM    3  O   UNL     1     -12.108   9.104  72.095  1.00  0.00    -0.362 OA 
HETATM    4  C   UNL     1     -12.087   8.003  71.273  1.00  0.00    -0.291 C  
HETATM    5  C   UNL     1     -11.755   8.425  69.872  1.00  0.00     0.422 C  
HETATM    6  O   UNL     1     -12.425   6.887  71.630  1.00  0.00    -0.350 OA 
HETATM    7  C   UNL     1     -10.895   7.552  68.941  1.00  0.00    -0.063 C  
HETATM    8  C   UNL     1     -11.010  10.604  68.874  1.00  0.00    -0.249 C  
HETATM    9  C   UNL     1     -10.290   8.375  67.793  1.00  0.00    -0.297 A  
HETATM   10  C   UNL     1      -9.625   7.701  66.747  1.00  0.00    -0.269 A  
HETATM   11  O   UNL     1      -8.251   7.953  64.747  1.00  0.00    -0.148 OA 
HETATM   12  C   UNL     1      -8.984   8.448  65.780  1.00  0.00    -0.159 A  
HETATM   13  C   UNL     1     -10.334   9.805  67.775  1.00  0.00    -0.274 A  
HETATM   14  C   UNL     1      -8.996   9.822  65.795  1.00  0.00    -0.160 A  
HETATM   15  C   UNL     1      -7.728   9.170  64.177  1.00  0.00    -0.121 C  
HETATM   16  O   UNL     1      -8.260  10.362  64.789  1.00  0.00    -0.163 OA 
HETATM   17  C   UNL     1      -9.676  10.526  66.759  1.00  0.00    -0.220 A  
ENDROOT
BRANCH   7  18
HETATM   18  C   UNL     1      -9.875   6.722  69.720  1.00  0.00    -0.175 A  
HETATM   19  O   UNL     1      -7.732   4.479  72.516  1.00  0.00    -0.082 OA 
HETATM   20  C   UNL     1      -8.163   6.527  71.422  1.00  0.00    -0.120 A  
HETATM   21  C   UNL     1     -10.034   5.330  69.770  1.00  0.00    -0.306 A  
HETATM   22  H   UNL     1      -7.117   4.902  73.103  1.00  0.00     0.000 HD 
HETATM   23  C   UNL     1      -8.878   7.304  70.513  1.00  0.00    -0.153 A  
HETATM   24  C   UNL     1      -8.417   5.149  71.532  1.00  0.00    -0.124 A  
HETATM   25  C   UNL     1      -9.321   4.527  70.670  1.00  0.00    -0.155 A  
BRANCH  25  26
HETATM   26  O   UNL     1      -9.671   3.211  70.546  1.00  0.00    -0.161 OA 
HETATM   27  C   UNL     1      -9.283   2.455  69.420  1.00  0.00    -0.123 C  
ENDBRANCH  25  26
BRANCH  20  28
HETATM   28  O   UNL     1      -7.242   7.063  72.300  1.00  0.00    -0.072 OA 
HETATM   29  C   UNL     1      -7.719   8.088  73.166  1.00  0.00    -0.150 C  
ENDBRANCH  20  28
ENDBRANCH   7  18
BRANCH   8  30
HETATM   30  O   UNL     1     -12.137  11.340  68.449  1.00  0.00    -0.598 OA 
BRANCH  30  31
HETATM   31  C   UNL     1     -12.151  12.736  68.134  1.00  0.00    -0.108 C  
HETATM   32  O   UNL     1     -11.504  13.033  66.890  1.00  0.00    -0.305 OA 
HETATM   33  C   UNL     1     -11.233  14.435  66.735  1.00  0.00    -0.337 C  
HETATM   34  C   UNL     1     -10.696  14.808  65.352  1.00  0.00    -0.371 C  
HETATM   35  O   UNL     1     -10.334  16.190  65.316  1.00  0.00    -0.513 OA 
HETATM   36  C   UNL     1      -9.333  16.494  66.283  1.00  0.00    -0.302 C  
HETATM   37  C   UNL     1      -9.018  17.983  66.242  1.00  0.00    -0.194 C  
HETATM   38  O   UNL     1      -9.798  16.224  67.601  1.00  0.00    -0.233 OA 
HETATM   39  C   UNL     1     -10.189  14.860  67.761  1.00  0.00    -0.236 C  
HETATM   40  C   UNL     1     -10.818  14.749  69.137  1.00  0.00    -0.260 C  
HETATM   41  O   UNL     1      -9.816  14.998  70.136  1.00  0.00    -0.488 OA 
HETATM   42  C   UNL     1     -11.468  13.385  69.377  1.00  0.00    -0.274 C  
HETATM   43  H   UNL     1     -10.210  14.930  70.997  1.00  0.00     0.000 HD 
HETATM   44  O   UNL     1     -12.448  13.487  70.440  1.00  0.00    -0.321 OA 
HETATM   45  H   UNL     1     -12.032  13.883  71.198  1.00  0.00     0.000 HD 
ENDBRANCH  30  31
ENDBRANCH   8  30
TORSDOF 5
ENDMDL
MODEL       26
REMARK 921   NORMALIZED FREE ENERGY PREDICTED BY IDOCK:   -7.58 KCAL/MOL
REMARK 922        TOTAL FREE ENERGY PREDICTED BY IDOCK:  -11.03 KCAL/MOL
REMARK 923 INTER-LIGAND FREE ENERGY PREDICTED BY IDOCK:  -10.05 KCAL/MOL
REMARK 924 INTRA-LIGAND FREE ENERGY PREDICTED BY IDOCK:   -0.98 KCAL/MOL
REMARK 927      BINDING AFFINITY PREDICTED BY RF-SCORE:    0.00 PKD
ROOT
HETATM    1  C   UNL     1     -11.536  10.926  68.628  1.00  0.00    -0.373 C  
HETATM    2  C   UNL     1     -12.445  11.007  69.819  1.00  0.00    -0.183 C  
HETATM    3  O   UNL     1     -12.526  12.419  70.070  1.00  0.00    -0.116 OA 
HETATM    4  C   UNL     1     -11.417  13.046  69.555  1.00  0.00    -0.222 C  
HETATM    5  C   UNL     1     -10.540  12.039  68.870  1.00  0.00    -0.192 C  
HETATM    6  O   UNL     1     -11.147  14.218  69.760  1.00  0.00    -0.221 OA 
HETATM    7  C   UNL     1      -9.753  12.380  67.592  1.00  0.00    -0.195 C  
HETATM    8  C   UNL     1     -10.847   9.616  68.294  1.00  0.00    -0.182 C  
HETATM    9  C   UNL     1      -9.350  11.114  66.821  1.00  0.00    -0.193 A  
HETATM   10  C   UNL     1      -8.471  11.233  65.724  1.00  0.00    -0.018 A  
HETATM   11  O   UNL     1      -7.430  10.076  63.847  1.00  0.00    -0.132 OA 
HETATM   12  C   UNL     1      -8.204  10.114  64.965  1.00  0.00    -0.152 A  
HETATM   13  C   UNL     1      -9.878   9.824  67.146  1.00  0.00    -0.238 A  
HETATM   14  C   UNL     1      -8.748   8.887  65.260  1.00  0.00    -0.186 A  
HETATM   15  C   UNL     1      -7.633   8.713  63.422  1.00  0.00    -0.117 C  
HETATM   16  O   UNL     1      -8.404   7.931  64.357  1.00  0.00    -0.100 OA 
HETATM   17  C   UNL     1      -9.566   8.705  66.348  1.00  0.00    -0.316 A  
ENDROOT
BRANCH   7  18
HETATM   18  C   UNL     1     -10.474  13.427  66.743  1.00  0.00    -0.275 A  
HETATM   19  O   UNL     1     -11.844  16.017  63.767  1.00  0.00    -1.334 OA 
HETATM   20  C   UNL     1     -10.568  15.617  65.714  1.00  0.00    -0.361 A  
HETATM   21  C   UNL     1     -11.469  13.003  65.850  1.00  0.00    -0.374 A  
HETATM   22  H   UNL     1     -11.505  16.902  63.705  1.00  0.00     0.000 HD 
HETATM   23  C   UNL     1     -10.078  14.769  66.705  1.00  0.00    -0.269 A  
HETATM   24  C   UNL     1     -11.485  15.140  64.761  1.00  0.00    -0.383 A  
HETATM   25  C   UNL     1     -11.983  13.839  64.851  1.00  0.00    -0.390 A  
BRANCH  25  26
HETATM   26  O   UNL     1     -12.918  13.191  64.092  1.00  0.00    -0.584 OA 
HETATM   27  C   UNL     1     -12.582  12.043  63.344  1.00  0.00    -0.469 C  
ENDBRANCH  25  26
BRANCH  20  28
HETATM   28  O   UNL     1     -10.136  16.921  65.565  1.00  0.00    -0.575 OA 
HETATM   29  C   UNL     1     -10.257  17.759  66.709  1.00  0.00    -0.351 C  
ENDBRANCH  20  28
ENDBRANCH   7  18
BRANCH   8  30
HETATM   30  O   UNL     1     -10.344   8.813  69.342  1.00  0.00    -0.206 OA 
BRANCH  30  31
HETATM   31  C   UNL     1      -9.375   7.770  69.199  1.00  0.00    -0.151 C  
HETATM   32  O   UNL     1      -9.941   6.547  68.708  1.00  0.00    -0.137 OA 
HETATM   33  C   UNL     1      -9.055   5.429  68.872  1.00  0.00    -0.118 C  
HETATM   34  C   UNL     1      -9.556   4.145  68.209  1.00  0.00    -0.128 C  
HETATM   35  O   UNL     1      -8.688   3.053  68.522  1.00  0.00    -0.084 OA 
HETATM   36  C   UNL     1      -8.610   2.832  69.927  1.00  0.00    -0.059 C  
HETATM   37  C   UNL     1      -7.637   1.697  70.212  1.00  0.00    -0.035 C  
HETATM   38  O   UNL     1      -8.090   3.977  70.596  1.00  0.00    -0.057 OA 
HETATM   39  C   UNL     1      -8.883   5.140  70.359  1.00  0.00    -0.125 C  
HETATM   40  C   UNL     1      -8.134   6.306  70.975  1.00  0.00    -0.121 C  
HETATM   41  O   UNL     1      -8.087   6.137  72.402  1.00  0.00    -0.105 OA 
HETATM   42  C   UNL     1      -8.764   7.657  70.630  1.00  0.00    -0.140 C  
HETATM   43  H   UNL     1      -7.618   6.866  72.788  1.00  0.00     0.000 HD 
HETATM   44  O   UNL     1      -7.787   8.713  70.797  1.00  0.00    -0.084 OA 
HETATM   45  H   UNL     1      -7.414   8.645  71.669  1.00  0.00     0.000 HD 
ENDBRANCH  30  31
ENDBRANCH   8  30
TORSDOF 5
ENDMDL
MODEL       27
REMARK 921   NORMALIZED FREE ENERGY PREDICTED BY IDOCK:   -7.58 KCAL/MOL
REMARK 922        TOTAL FREE ENERGY PREDICTED BY IDOCK:  -11.03 KCAL/MOL
REMARK 923 INTER-LIGAND FREE ENERGY PREDICTED BY IDOCK:   -9.43 KCAL/MOL
REMARK 924 INTRA-LIGAND FREE ENERGY PREDICTED BY IDOCK:   -1.60 KCAL/MOL
REMARK 927      BINDING AFFINITY PREDICTED BY RF-SCORE:    0.00 PKD
ROOT
HETATM    1  C   UNL     1     -10.335  11.164  69.157  1.00  0.00    -0.186 C  
HETATM    2  C   UNL     1      -9.526   9.985  68.701  1.00  0.00    -0.156 C  
HETATM    3  O   UNL     1      -9.157  10.343  67.360  1.00  0.00    -0.135 OA 
HETATM    4  C   UNL     1     -10.056  11.252  66.858  1.00  0.00    -0.212 C  
HETATM    5  C   UNL     1     -11.077  11.584  67.907  1.00  0.00    -0.317 C  
HETATM    6  O   UNL     1     -10.076  11.610  65.692  1.00  0.00    -0.222 OA 
HETATM    7  C   UNL     1     -11.667  12.999  68.050  1.00  0.00    -0.397 C  
HETATM    8  C   UNL     1     -11.267  11.023  70.346  1.00  0.00    -0.015 C  
HETATM    9  C   UNL     1     -12.277  13.219  69.443  1.00  0.00    -0.210 A  
HETATM   10  C   UNL     1     -13.020  14.394  69.684  1.00  0.00     0.468 A  
HETATM   11  O   UNL     1     -14.140  15.752  71.372  1.00  0.00    -0.498 OA 
HETATM   12  C   UNL     1     -13.467  14.642  70.965  1.00  0.00    -0.320 A  
HETATM   13  C   UNL     1     -12.074  12.297  70.518  1.00  0.00    -0.371 A  
HETATM   14  C   UNL     1     -13.231  13.771  72.001  1.00  0.00    -0.432 A  
HETATM   15  C   UNL     1     -14.210  15.521  72.794  1.00  0.00    -0.167 C  
HETATM   16  O   UNL     1     -13.705  14.230  73.189  1.00  0.00    -0.534 OA 
HETATM   17  C   UNL     1     -12.561  12.588  71.808  1.00  0.00    -0.119 A  
ENDROOT
BRANCH   7  18
HETATM   18  C   UNL     1     -10.669  14.077  67.627  1.00  0.00    -0.261 A  
HETATM   19  O   UNL     1      -7.653  16.374  65.876  1.00  0.00     0.160 OA 
HETATM   20  C   UNL     1      -8.438  15.019  67.644  1.00  0.00    -0.160 A  
HETATM   21  C   UNL     1     -10.946  14.843  66.486  1.00  0.00    -0.327 A  
HETATM   22  H   UNL     1      -6.785  16.402  66.260  1.00  0.00     0.000 HD 
HETATM   23  C   UNL     1      -9.419  14.228  68.239  1.00  0.00    -0.209 A  
HETATM   24  C   UNL     1      -8.704  15.692  66.439  1.00  0.00    -0.318 A  
HETATM   25  C   UNL     1      -9.979  15.651  65.874  1.00  0.00    -0.351 A  
BRANCH  25  26
HETATM   26  O   UNL     1     -10.481  16.273  64.764  1.00  0.00    -0.607 OA 
HETATM   27  C   UNL     1     -11.724  15.894  64.214  1.00  0.00    -0.132 C  
ENDBRANCH  25  26
BRANCH  20  28
HETATM   28  O   UNL     1      -7.156  15.124  68.147  1.00  0.00    -0.103 OA 
HETATM   29  C   UNL     1      -7.008  15.887  69.340  1.00  0.00    -0.211 C  
ENDBRANCH  20  28
ENDBRANCH   7  18
BRANCH   8  30
HETATM   30  O   UNL     1     -12.015   9.836  70.501  1.00  0.00    -0.261 OA 
BRANCH  30  31
HETATM   31  C   UNL     1     -11.786   8.831  71.494  1.00  0.00    -0.311 C  
HETATM   32  O   UNL     1     -10.527   8.984  72.161  1.00  0.00    -0.321 OA 
HETATM   33  C   UNL     1     -10.158   7.814  72.909  1.00  0.00    -0.301 C  
HETATM   34  C   UNL     1      -8.905   8.003  73.766  1.00  0.00    -0.247 C  
HETATM   35  O   UNL     1      -8.531   6.767  74.378  1.00  0.00    -0.136 OA 
HETATM   36  C   UNL     1      -8.263   5.761  73.405  1.00  0.00    -0.112 C  
HETATM   37  C   UNL     1      -7.920   4.453  74.104  1.00  0.00    -0.092 C  
HETATM   38  O   UNL     1      -9.416   5.496  72.613  1.00  0.00    -0.147 OA 
HETATM   39  C   UNL     1      -9.883   6.668  71.943  1.00  0.00    -0.166 C  
HETATM   40  C   UNL     1     -11.197   6.292  71.283  1.00  0.00    -0.297 C  
HETATM   41  O   UNL     1     -10.948   5.317  70.258  1.00  0.00    -0.166 OA 
HETATM   42  C   UNL     1     -11.922   7.502  70.689  1.00  0.00    -0.133 C  
HETATM   43  H   UNL     1     -11.770   5.081  69.845  1.00  0.00     0.000 HD 
HETATM   44  O   UNL     1     -13.331   7.201  70.530  1.00  0.00    -0.396 OA 
HETATM   45  H   UNL     1     -13.414   6.391  70.040  1.00  0.00     0.000 HD 
ENDBRANCH  30  31
ENDBRANCH   8  30
TORSDOF 5
ENDMDL
MODEL       28
REMARK 921   NORMALIZED FREE ENERGY PREDICTED BY IDOCK:   -7.56 KCAL/MOL
REMARK 922        TOTAL FREE ENERGY PREDICTED BY IDOCK:  -11.00 KCAL/MOL
REMARK 923 INTER-LIGAND FREE ENERGY PREDICTED BY IDOCK:  -10.60 KCAL/MOL
REMARK 924 INTRA-LIGAND FREE ENERGY PREDICTED BY IDOCK:   -0.40 KCAL/MOL
REMARK 927      BINDING AFFINITY PREDICTED BY RF-SCORE:    0.00 PKD
ROOT
HETATM    1  C   UNL     1     -10.911  11.485  64.995  1.00  0.00    -0.336 C  
HETATM    2  C   UNL     1     -10.974  12.004  63.588  1.00  0.00    -0.448 C  
HETATM    3  O   UNL     1      -9.905  11.300  62.935  1.00  0.00    -0.322 OA 
HETATM    4  C   UNL     1      -8.973  10.905  63.864  1.00  0.00    -0.107 C  
HETATM    5  C   UNL     1      -9.428  11.306  65.237  1.00  0.00    -0.248 C  
HETATM    6  O   UNL     1      -7.889  10.428  63.574  1.00  0.00    -0.149 OA 
HETATM    7  C   UNL     1      -9.159  10.429  66.473  1.00  0.00    -0.175 C  
HETATM    8  C   UNL     1     -11.575  12.265  66.115  1.00  0.00    -0.390 C  
HETATM    9  C   UNL     1     -10.112  10.771  67.628  1.00  0.00    -0.205 A  
HETATM   10  C   UNL     1      -9.888  10.190  68.894  1.00  0.00    -0.194 A  
HETATM   11  O   UNL     1     -10.770   9.872  71.145  1.00  0.00    -0.283 OA 
HETATM   12  C   UNL     1     -10.811  10.408  69.895  1.00  0.00    -0.298 A  
HETATM   13  C   UNL     1     -11.251  11.621  67.450  1.00  0.00    -0.358 A  
HETATM   14  C   UNL     1     -11.923  11.191  69.703  1.00  0.00    -0.359 A  
HETATM   15  C   UNL     1     -12.031  10.328  71.676  1.00  0.00    -0.160 C  
HETATM   16  O   UNL     1     -12.730  11.231  70.795  1.00  0.00    -0.318 OA 
HETATM   17  C   UNL     1     -12.160  11.825  68.508  1.00  0.00    -0.134 A  
ENDROOT
BRANCH   7  18
HETATM   18  C   UNL     1      -9.118   8.943  66.117  1.00  0.00    -0.251 A  
HETATM   19  O   UNL     1      -8.576   4.804  65.963  1.00  0.00    -0.115 OA 
HETATM   20  C   UNL     1      -7.922   6.986  65.338  1.00  0.00    -0.129 A  
HETATM   21  C   UNL     1     -10.086   8.089  66.665  1.00  0.00    -0.329 A  
HETATM   22  H   UNL     1      -7.814   4.434  65.535  1.00  0.00     0.000 HD 
HETATM   23  C   UNL     1      -8.065   8.371  65.391  1.00  0.00    -0.133 A  
HETATM   24  C   UNL     1      -8.846   6.151  65.990  1.00  0.00    -0.153 A  
HETATM   25  C   UNL     1      -9.967   6.694  66.618  1.00  0.00    -0.140 A  
BRANCH  25  26
HETATM   26  O   UNL     1     -11.018   6.084  67.245  1.00  0.00    -0.313 OA 
HETATM   27  C   UNL     1     -11.150   6.119  68.649  1.00  0.00    -0.294 C  
ENDBRANCH  25  26
BRANCH  20  28
HETATM   28  O   UNL     1      -6.849   6.369  64.725  1.00  0.00    -0.047 OA 
HETATM   29  C   UNL     1      -5.616   7.082  64.746  1.00  0.00    -0.032 C  
ENDBRANCH  20  28
ENDBRANCH   7  18
BRANCH   8  30
HETATM   30  O   UNL     1     -11.498  13.675  66.116  1.00  0.00    -0.311 OA 
BRANCH  30  31
HETATM   31  C   UNL     1     -10.292  14.443  66.088  1.00  0.00    -0.298 C  
HETATM   32  O   UNL     1      -9.626  14.480  67.357  1.00  0.00    -0.206 OA 
HETATM   33  C   UNL     1      -8.613  15.497  67.415  1.00  0.00    -0.178 C  
HETATM   34  C   UNL     1      -7.772  15.455  68.692  1.00  0.00    -0.143 C  
HETATM   35  O   UNL     1      -6.876  16.568  68.732  1.00  0.00    -0.155 OA 
HETATM   36  C   UNL     1      -7.578  17.807  68.698  1.00  0.00    -0.276 C  
HETATM   37  C   UNL     1      -6.581  18.958  68.691  1.00  0.00    -0.287 C  
HETATM   38  O   UNL     1      -8.334  17.932  67.498  1.00  0.00    -0.224 OA 
HETATM   39  C   UNL     1      -9.276  16.868  67.348  1.00  0.00    -0.222 C  
HETATM   40  C   UNL     1      -9.885  17.023  65.967  1.00  0.00    -0.241 C  
HETATM   41  O   UNL     1     -10.646  18.241  65.921  1.00  0.00    -0.477 OA 
HETATM   42  C   UNL     1     -10.772  15.837  65.581  1.00  0.00    -0.348 C  
HETATM   43  H   UNL     1     -11.027  18.339  65.057  1.00  0.00     0.000 HD 
HETATM   44  O   UNL     1     -10.916  15.780  64.141  1.00  0.00    -0.811 OA 
HETATM   45  H   UNL     1     -11.208  16.629  63.831  1.00  0.00     0.000 HD 
ENDBRANCH  30  31
ENDBRANCH   8  30
TORSDOF 5
ENDMDL
MODEL       29
REMARK 921   NORMALIZED FREE ENERGY PREDICTED BY IDOCK:   -7.50 KCAL/MOL
REMARK 922        TOTAL FREE ENERGY PREDICTED BY IDOCK:  -10.92 KCAL/MOL
REMARK 923 INTER-LIGAND FREE ENERGY PREDICTED BY IDOCK:   -9.38 KCAL/MOL
REMARK 924 INTRA-LIGAND FREE ENERGY PREDICTED BY IDOCK:   -1.54 KCAL/MOL
REMARK 927      BINDING AFFINITY PREDICTED BY RF-SCORE:    0.00 PKD
ROOT
HETATM    1  C   UNL     1      -8.027  12.226  68.462  1.00  0.00    -0.107 C  
HETATM    2  C   UNL     1      -6.904  11.938  69.416  1.00  0.00    -0.048 C  
HETATM    3  O   UNL     1      -7.122  10.562  69.767  1.00  0.00    -0.126 OA 
HETATM    4  C   UNL     1      -8.444  10.238  69.578  1.00  0.00    -0.142 C  
HETATM    5  C   UNL     1      -9.180  11.423  69.026  1.00  0.00     0.055 C  
HETATM    6  O   UNL     1      -8.940   9.185  69.942  1.00  0.00    -0.149 OA 
HETATM    7  C   UNL     1     -10.316  11.270  67.998  1.00  0.00    -0.204 C  
HETATM    8  C   UNL     1      -8.426  13.663  68.181  1.00  0.00    -0.175 C  
HETATM    9  C   UNL     1     -10.564  12.577  67.231  1.00  0.00    -0.246 A  
HETATM   10  C   UNL     1     -11.687  12.667  66.381  1.00  0.00    -0.466 A  
HETATM   11  O   UNL     1     -12.832  14.009  64.697  1.00  0.00    -0.661 OA 
HETATM   12  C   UNL     1     -11.842  13.797  65.606  1.00  0.00    -0.365 A  
HETATM   13  C   UNL     1      -9.667  13.689  67.309  1.00  0.00    -0.243 A  
HETATM   14  C   UNL     1     -10.952  14.842  65.657  1.00  0.00    -0.344 A  
HETATM   15  C   UNL     1     -12.403  15.259  64.117  1.00  0.00    -0.044 C  
HETATM   16  O   UNL     1     -11.256  15.832  64.776  1.00  0.00    -0.427 OA 
HETATM   17  C   UNL     1      -9.874  14.830  66.508  1.00  0.00    -0.287 A  
ENDROOT
BRANCH   7  18
HETATM   18  C   UNL     1     -10.112  10.048  67.103  1.00  0.00    -0.265 A  
HETATM   19  O   UNL     1      -8.920   6.478  65.292  1.00  0.00    -0.366 OA 
HETATM   20  C   UNL     1      -8.840   8.834  65.437  1.00  0.00    -0.178 A  
HETATM   21  C   UNL     1     -10.739   8.843  67.451  1.00  0.00    -0.225 A  
HETATM   22  H   UNL     1      -8.243   6.479  64.626  1.00  0.00     0.000 HD 
HETATM   23  C   UNL     1      -9.203  10.038  66.037  1.00  0.00    -0.204 A  
HETATM   24  C   UNL     1      -9.402   7.623  65.877  1.00  0.00     0.069 A  
HETATM   25  C   UNL     1     -10.397   7.622  66.856  1.00  0.00    -0.318 A  
BRANCH  25  26
HETATM   26  O   UNL     1     -11.125   6.591  67.383  1.00  0.00    -0.357 OA 
HETATM   27  C   UNL     1     -10.896   6.132  68.696  1.00  0.00    -0.332 C  
ENDBRANCH  25  26
BRANCH  20  28
HETATM   28  O   UNL     1      -7.875   8.752  64.453  1.00  0.00    -0.117 OA 
HETATM   29  C   UNL     1      -6.633   9.390  64.733  1.00  0.00    -0.079 C  
ENDBRANCH  20  28
ENDBRANCH   7  18
BRANCH   8  30
HETATM   30  O   UNL     1      -8.439  14.597  69.240  1.00  0.00    -0.090 OA 
BRANCH  30  31
HETATM   31  C   UNL     1      -7.738  15.844  69.259  1.00  0.00    -0.222 C  
HETATM   32  O   UNL     1      -8.560  16.951  68.867  1.00  0.00    -0.253 OA 
HETATM   33  C   UNL     1      -7.790  18.129  68.576  1.00  0.00    -0.297 C  
HETATM   34  C   UNL     1      -8.643  19.372  68.317  1.00  0.00    -0.338 C  
HETATM   35  O   UNL     1      -7.816  20.465  67.912  1.00  0.00    -0.250 OA 
HETATM   36  C   UNL     1      -7.092  20.162  66.723  1.00  0.00    -0.244 C  
HETATM   37  C   UNL     1      -6.190  21.334  66.363  1.00  0.00    -0.319 C  
HETATM   38  O   UNL     1      -6.231  19.046  66.921  1.00  0.00    -0.178 OA 
HETATM   39  C   UNL     1      -6.951  17.882  67.328  1.00  0.00    -0.186 C  
HETATM   40  C   UNL     1      -5.912  16.829  67.668  1.00  0.00    -0.145 C  
HETATM   41  O   UNL     1      -5.201  16.464  66.474  1.00  0.00    -0.298 OA 
HETATM   42  C   UNL     1      -6.527  15.584  68.311  1.00  0.00    -0.118 C  
HETATM   43  H   UNL     1      -4.551  15.805  66.686  1.00  0.00     0.000 HD 
HETATM   44  O   UNL     1      -5.512  14.859  69.049  1.00  0.00    -0.092 OA 
HETATM   45  H   UNL     1      -4.774  14.701  68.471  1.00  0.00     0.000 HD 
ENDBRANCH  30  31
ENDBRANCH   8  30
TORSDOF 5
ENDMDL
MODEL       30
REMARK 921   NORMALIZED FREE ENERGY PREDICTED BY IDOCK:   -7.48 KCAL/MOL
REMARK 922        TOTAL FREE ENERGY PREDICTED BY IDOCK:  -10.90 KCAL/MOL
REMARK 923 INTER-LIGAND FREE ENERGY PREDICTED BY IDOCK:   -9.41 KCAL/MOL
REMARK 924 INTRA-LIGAND FREE ENERGY PREDICTED BY IDOCK:   -1.49 KCAL/MOL
REMARK 927      BINDING AFFINITY PREDICTED BY RF-SCORE:    0.00 PKD
ROOT
HETATM    1  C   UNL     1      -7.153  13.936  68.883  1.00  0.00    -0.110 C  
HETATM    2  C   UNL     1      -5.999  13.771  69.829  1.00  0.00    -0.122 C  
HETATM    3  O   UNL     1      -5.409  15.081  69.853  1.00  0.00    -0.098 OA 
HETATM    4  C   UNL     1      -5.728  15.755  68.699  1.00  0.00    -0.101 C  
HETATM    5  C   UNL     1      -6.620  14.901  67.846  1.00  0.00    -0.173 C  
HETATM    6  O   UNL     1      -5.235  16.825  68.384  1.00  0.00    -0.113 OA 
HETATM    7  C   UNL     1      -7.756  15.503  66.999  1.00  0.00    -0.246 C  
HETATM    8  C   UNL     1      -7.782  12.713  68.243  1.00  0.00    -0.135 C  
HETATM    9  C   UNL     1      -8.806  14.445  66.628  1.00  0.00    -0.188 A  
HETATM   10  C   UNL     1      -9.819  14.783  65.705  1.00  0.00    -0.373 A  
HETATM   11  O   UNL     1     -11.899  14.067  64.653  1.00  0.00    -0.376 OA 
HETATM   12  C   UNL     1     -10.825  13.871  65.463  1.00  0.00    -0.306 A  
HETATM   13  C   UNL     1      -8.822  13.145  67.225  1.00  0.00    -0.208 A  
HETATM   14  C   UNL     1     -10.854  12.640  66.074  1.00  0.00    -0.277 A  
HETATM   15  C   UNL     1     -12.652  12.862  64.903  1.00  0.00    -0.458 C  
HETATM   16  O   UNL     1     -11.956  11.918  65.742  1.00  0.00    -0.451 OA 
HETATM   17  C   UNL     1      -9.864  12.240  66.937  1.00  0.00    -0.216 A  
ENDROOT
BRANCH   7  18
HETATM   18  C   UNL     1      -8.337  16.763  67.640  1.00  0.00    -0.191 A  
HETATM   19  O   UNL     1     -10.610  20.077  68.779  1.00  0.00    -0.515 OA 
HETATM   20  C   UNL     1      -8.787  19.143  67.603  1.00  0.00    -0.295 A  
HETATM   21  C   UNL     1      -9.337  16.625  68.615  1.00  0.00    -0.247 A  
HETATM   22  H   UNL     1     -10.437  20.931  68.403  1.00  0.00     0.000 HD 
HETATM   23  C   UNL     1      -8.026  18.051  67.189  1.00  0.00    -0.224 A  
HETATM   24  C   UNL     1      -9.857  18.963  68.497  1.00  0.00    -0.399 A  
HETATM   25  C   UNL     1     -10.110  17.708  69.052  1.00  0.00    -0.300 A  
BRANCH  25  26
HETATM   26  O   UNL     1     -11.035  17.316  69.980  1.00  0.00     0.178 OA 
HETATM   27  C   UNL     1     -11.172  15.960  70.347  1.00  0.00    -0.378 C  
ENDBRANCH  25  26
BRANCH  20  28
HETATM   28  O   UNL     1      -8.592  20.419  67.113  1.00  0.00    -0.339 OA 
HETATM   29  C   UNL     1      -7.266  20.929  67.196  1.00  0.00    -0.334 C  
ENDBRANCH  20  28
ENDBRANCH   7  18
BRANCH   8  30
HETATM   30  O   UNL     1      -6.954  11.653  67.815  1.00  0.00    -0.075 OA 
BRANCH  30  31
HETATM   31  C   UNL     1      -7.015  10.304  68.289  1.00  0.00    -0.073 C  
HETATM   32  O   UNL     1      -7.780   9.446  67.433  1.00  0.00    -0.094 OA 
HETATM   33  C   UNL     1      -8.110   8.198  68.061  1.00  0.00    -0.128 C  
HETATM   34  C   UNL     1      -8.780   7.194  67.121  1.00  0.00    -0.121 C  
HETATM   35  O   UNL     1      -9.190   6.032  67.845  1.00  0.00    -0.114 OA 
HETATM   36  C   UNL     1     -10.111   6.360  68.882  1.00  0.00    -0.162 C  
HETATM   37  C   UNL     1     -10.477   5.101  69.656  1.00  0.00    -0.262 C  
HETATM   38  O   UNL     1      -9.521   7.247  69.827  1.00  0.00    -0.151 OA 
HETATM   39  C   UNL     1      -9.072   8.457  69.215  1.00  0.00    -0.150 C  
HETATM   40  C   UNL     1      -8.320   9.228  70.283  1.00  0.00    -0.186 C  
HETATM   41  O   UNL     1      -9.237   9.619  71.318  1.00  0.00    -0.321 OA 
HETATM   42  C   UNL     1      -7.606  10.460  69.724  1.00  0.00    -0.133 C  
HETATM   43  H   UNL     1      -8.766  10.101  71.987  1.00  0.00     0.000 HD 
HETATM   44  O   UNL     1      -6.540  10.860  70.620  1.00  0.00    -0.447 OA 
HETATM   45  H   UNL     1      -6.899  10.955  71.495  1.00  0.00     0.000 HD 
ENDBRANCH  30  31
ENDBRANCH   8  30
TORSDOF 5
ENDMDL
MODEL       31
REMARK 921   NORMALIZED FREE ENERGY PREDICTED BY IDOCK:   -7.48 KCAL/MOL
REMARK 922        TOTAL FREE ENERGY PREDICTED BY IDOCK:  -10.90 KCAL/MOL
REMARK 923 INTER-LIGAND FREE ENERGY PREDICTED BY IDOCK:   -9.81 KCAL/MOL
REMARK 924 INTRA-LIGAND FREE ENERGY PREDICTED BY IDOCK:   -1.09 KCAL/MOL
REMARK 927      BINDING AFFINITY PREDICTED BY RF-SCORE:    0.00 PKD
ROOT
HETATM    1  C   UNL     1     -10.383  10.493  65.506  1.00  0.00    -0.287 C  
HETATM    2  C   UNL     1     -10.295  10.838  64.048  1.00  0.00    -0.286 C  
HETATM    3  O   UNL     1      -8.980  10.385  63.687  1.00  0.00    -0.192 OA 
HETATM    4  C   UNL     1      -8.180  10.344  64.803  1.00  0.00    -0.141 C  
HETATM    5  C   UNL     1      -8.978  10.740  66.011  1.00  0.00    -0.196 C  
HETATM    6  O   UNL     1      -6.977  10.147  64.766  1.00  0.00    -0.133 OA 
HETATM    7  C   UNL     1      -8.751  10.089  67.387  1.00  0.00    -0.125 C  
HETATM    8  C   UNL     1     -11.423  11.172  66.378  1.00  0.00     0.243 C  
HETATM    9  C   UNL     1      -9.965  10.276  68.309  1.00  0.00    -0.166 A  
HETATM   10  C   UNL     1      -9.858   9.900  69.664  1.00  0.00    -0.255 A  
HETATM   11  O   UNL     1     -11.059   9.578  71.763  1.00  0.00    -0.352 OA 
HETATM   12  C   UNL     1     -10.983   9.960  70.459  1.00  0.00    -0.326 A  
HETATM   13  C   UNL     1     -11.219  10.770  67.827  1.00  0.00    -0.385 A  
HETATM   14  C   UNL     1     -12.193  10.396  69.977  1.00  0.00    -0.189 A  
HETATM   15  C   UNL     1     -12.471   9.730  72.009  1.00  0.00    -0.308 C  
HETATM   16  O   UNL     1     -13.183  10.325  70.905  1.00  0.00    -0.395 OA 
HETATM   17  C   UNL     1     -12.339  10.826  68.680  1.00  0.00     0.455 A  
ENDROOT
BRANCH   7  18
HETATM   18  C   UNL     1      -8.279   8.641  67.260  1.00  0.00    -0.105 A  
HETATM   19  O   UNL     1      -6.404   5.038  66.286  1.00  0.00    -0.034 OA 
HETATM   20  C   UNL     1      -8.223   6.529  66.075  1.00  0.00    -0.127 A  
HETATM   21  C   UNL     1      -7.124   8.244  67.950  1.00  0.00    -0.083 A  
HETATM   22  H   UNL     1      -6.769   4.471  65.617  1.00  0.00     0.000 HD 
HETATM   23  C   UNL     1      -8.860   7.735  66.364  1.00  0.00    -0.180 A  
HETATM   24  C   UNL     1      -7.007   6.201  66.698  1.00  0.00    -0.067 A  
HETATM   25  C   UNL     1      -6.471   7.034  67.681  1.00  0.00    -0.051 A  
BRANCH  25  26
HETATM   26  O   UNL     1      -5.356   6.888  68.460  1.00  0.00    -0.015 OA 
HETATM   27  C   UNL     1      -5.224   7.579  69.683  1.00  0.00    -0.022 C  
ENDBRANCH  25  26
BRANCH  20  28
HETATM   28  O   UNL     1      -8.696   5.645  65.125  1.00  0.00    -0.150 OA 
HETATM   29  C   UNL     1      -9.873   4.921  65.469  1.00  0.00    -0.092 C  
ENDBRANCH  20  28
ENDBRANCH   7  18
BRANCH   8  30
HETATM   30  O   UNL     1     -11.695  12.545  66.189  1.00  0.00    -0.377 OA 
BRANCH  30  31
HETATM   31  C   UNL     1     -10.754  13.610  66.351  1.00  0.00    -0.281 C  
HETATM   32  O   UNL     1     -10.947  14.344  67.567  1.00  0.00    -0.280 OA 
HETATM   33  C   UNL     1     -10.230  15.589  67.575  1.00  0.00    -0.254 C  
HETATM   34  C   UNL     1     -10.280  16.318  68.920  1.00  0.00    -0.256 C  
HETATM   35  O   UNL     1      -9.655  17.599  68.813  1.00  0.00    -0.299 OA 
HETATM   36  C   UNL     1     -10.297  18.414  67.836  1.00  0.00    -0.401 C  
HETATM   37  C   UNL     1      -9.566  19.745  67.723  1.00  0.00    -0.469 C  
HETATM   38  O   UNL     1     -10.229  17.815  66.547  1.00  0.00    -0.331 OA 
HETATM   39  C   UNL     1     -10.831  16.520  66.528  1.00  0.00    -0.046 C  
HETATM   40  C   UNL     1     -10.541  15.929  65.161  1.00  0.00    -0.397 C  
HETATM   41  O   UNL     1     -11.222  16.701  64.159  1.00  0.00    -1.410 OA 
HETATM   42  C   UNL     1     -10.953  14.459  65.058  1.00  0.00    -0.389 C  
HETATM   43  H   UNL     1     -11.041  16.332  63.303  1.00  0.00     0.000 HD 
HETATM   44  O   UNL     1     -10.235  13.822  63.973  1.00  0.00    -0.652 OA 
HETATM   45  H   UNL     1     -10.356  14.339  63.185  1.00  0.00     0.000 HD 
ENDBRANCH  30  31
ENDBRANCH   8  30
TORSDOF 5
ENDMDL
MODEL       32
REMARK 921   NORMALIZED FREE ENERGY PREDICTED BY IDOCK:   -7.44 KCAL/MOL
REMARK 922        TOTAL FREE ENERGY PREDICTED BY IDOCK:  -10.85 KCAL/MOL
REMARK 923 INTER-LIGAND FREE ENERGY PREDICTED BY IDOCK:   -9.56 KCAL/MOL
REMARK 924 INTRA-LIGAND FREE ENERGY PREDICTED BY IDOCK:   -1.30 KCAL/MOL
REMARK 927      BINDING AFFINITY PREDICTED BY RF-SCORE:    0.00 PKD
ROOT
HETATM    1  C   UNL     1     -10.184  10.761  68.333  1.00  0.00    -0.192 C  
HETATM    2  C   UNL     1     -10.731  12.107  68.706  1.00  0.00    -0.219 C  
HETATM    3  O   UNL     1     -11.422  11.846  69.939  1.00  0.00    -0.265 OA 
HETATM    4  C   UNL     1     -11.774  10.520  70.002  1.00  0.00    -0.312 C  
HETATM    5  C   UNL     1     -11.268   9.805  68.783  1.00  0.00    -0.070 C  
HETATM    6  O   UNL     1     -12.503  10.054  70.862  1.00  0.00    -0.312 OA 
HETATM    7  C   UNL     1     -10.752   8.356  68.845  1.00  0.00    -0.095 C  
HETATM    8  C   UNL     1      -9.756  10.493  66.902  1.00  0.00    -0.180 C  
HETATM    9  C   UNL     1      -9.855   8.023  67.643  1.00  0.00    -0.214 A  
HETATM   10  C   UNL     1      -9.445   6.688  67.446  1.00  0.00    -0.143 A  
HETATM   11  O   UNL     1      -8.011   5.195  66.156  1.00  0.00    -0.102 OA 
HETATM   12  C   UNL     1      -8.548   6.413  66.435  1.00  0.00    -0.134 A  
HETATM   13  C   UNL     1      -9.380   9.031  66.744  1.00  0.00    -0.213 A  
HETATM   14  C   UNL     1      -8.064   7.395  65.604  1.00  0.00    -0.129 A  
HETATM   15  C   UNL     1      -7.066   5.544  65.124  1.00  0.00    -0.065 C  
HETATM   16  O   UNL     1      -7.151   6.924  64.714  1.00  0.00    -0.055 OA 
HETATM   17  C   UNL     1      -8.474   8.701  65.717  1.00  0.00    -0.165 A  
ENDROOT
BRANCH   7  18
HETATM   18  C   UNL     1     -10.125   8.032  70.200  1.00  0.00    -0.194 A  
HETATM   19  O   UNL     1      -8.947   7.845  74.203  1.00  0.00    -0.393 OA 
HETATM   20  C   UNL     1      -8.551   8.521  71.975  1.00  0.00    -0.183 A  
HETATM   21  C   UNL     1     -10.846   7.240  71.106  1.00  0.00    -0.260 A  
HETATM   22  H   UNL     1      -8.177   8.315  74.501  1.00  0.00     0.000 HD 
HETATM   23  C   UNL     1      -8.931   8.619  70.638  1.00  0.00    -0.199 A  
HETATM   24  C   UNL     1      -9.348   7.812  72.890  1.00  0.00    -0.219 A  
HETATM   25  C   UNL     1     -10.479   7.121  72.453  1.00  0.00    -0.218 A  
BRANCH  25  26
HETATM   26  O   UNL     1     -11.352   6.320  73.137  1.00  0.00    -0.162 OA 
HETATM   27  C   UNL     1     -11.206   4.917  73.140  1.00  0.00    -0.326 C  
ENDBRANCH  25  26
BRANCH  20  28
HETATM   28  O   UNL     1      -7.439   9.164  72.484  1.00  0.00    -0.246 OA 
HETATM   29  C   UNL     1      -6.214   8.946  71.792  1.00  0.00    -0.072 C  
ENDBRANCH  20  28
ENDBRANCH   7  18
BRANCH   8  30
HETATM   30  O   UNL     1     -10.528  11.012  65.840  1.00  0.00    -0.254 OA 
BRANCH  30  31
HETATM   31  C   UNL     1     -10.340  12.288  65.220  1.00  0.00    -0.281 C  
HETATM   32  O   UNL     1      -9.589  13.198  66.033  1.00  0.00    -0.244 OA 
HETATM   33  C   UNL     1      -9.678  14.553  65.565  1.00  0.00    -0.197 C  
HETATM   34  C   UNL     1      -8.758  15.522  66.309  1.00  0.00    -0.248 C  
HETATM   35  O   UNL     1      -8.994  16.863  65.875  1.00  0.00    -0.509 OA 
HETATM   36  C   UNL     1     -10.344  17.258  66.106  1.00  0.00    -0.317 C  
HETATM   37  C   UNL     1     -10.559  18.671  65.582  1.00  0.00    -0.171 C  
HETATM   38  O   UNL     1     -11.249  16.427  65.388  1.00  0.00    -0.093 OA 
HETATM   39  C   UNL     1     -11.108  15.052  65.744  1.00  0.00    -0.346 C  
HETATM   40  C   UNL     1     -11.995  14.267  64.795  1.00  0.00    -0.440 C  
HETATM   41  O   UNL     1     -13.369  14.606  65.044  1.00  0.00    -0.267 OA 
HETATM   42  C   UNL     1     -11.798  12.755  64.923  1.00  0.00    -0.379 C  
HETATM   43  H   UNL     1     -13.924  14.116  64.450  1.00  0.00     0.000 HD 
HETATM   44  O   UNL     1     -12.256  12.096  63.716  1.00  0.00    -0.474 OA 
HETATM   45  H   UNL     1     -13.145  12.381  63.535  1.00  0.00     0.000 HD 
ENDBRANCH  30  31
ENDBRANCH   8  30
TORSDOF 5
ENDMDL
MODEL       33
REMARK 921   NORMALIZED FREE ENERGY PREDICTED BY IDOCK:   -7.41 KCAL/MOL
REMARK 922        TOTAL FREE ENERGY PREDICTED BY IDOCK:  -10.81 KCAL/MOL
REMARK 923 INTER-LIGAND FREE ENERGY PREDICTED BY IDOCK:   -9.61 KCAL/MOL
REMARK 924 INTRA-LIGAND FREE ENERGY PREDICTED BY IDOCK:   -1.21 KCAL/MOL
REMARK 927      BINDING AFFINITY PREDICTED BY RF-SCORE:    0.00 PKD
ROOT
HETATM    1  C   UNL     1     -10.063  13.230  68.410  1.00  0.00    -0.237 C  
HETATM    2  C   UNL     1     -10.321  14.472  69.211  1.00  0.00    -0.142 C  
HETATM    3  O   UNL     1     -11.190  14.010  70.257  1.00  0.00    -0.070 OA 
HETATM    4  C   UNL     1     -11.845  12.874  69.848  1.00  0.00    -0.303 C  
HETATM    5  C   UNL     1     -11.383  12.493  68.472  1.00  0.00    -0.337 C  
HETATM    6  O   UNL     1     -12.757  12.358  70.472  1.00  0.00    -0.120 OA 
HETATM    7  C   UNL     1     -11.230  11.023  68.042  1.00  0.00    -0.372 C  
HETATM    8  C   UNL     1      -9.548  13.344  66.987  1.00  0.00    -0.244 C  
HETATM    9  C   UNL     1     -10.303  10.883  66.825  1.00  0.00    -0.289 A  
HETATM   10  C   UNL     1     -10.195   9.628  66.190  1.00  0.00    -0.276 A  
HETATM   11  O   UNL     1      -9.011   8.323  64.504  1.00  0.00     0.175 OA 
HETATM   12  C   UNL     1      -9.277   9.477  65.172  1.00  0.00    -0.244 A  
HETATM   13  C   UNL     1      -9.507  11.970  66.344  1.00  0.00    -0.238 A  
HETATM   14  C   UNL     1      -8.486  10.517  64.746  1.00  0.00    -0.147 A  
HETATM   15  C   UNL     1      -7.898   8.734  63.684  1.00  0.00    -0.145 C  
HETATM   16  O   UNL     1      -7.612  10.145  63.774  1.00  0.00    -0.147 OA 
HETATM   17  C   UNL     1      -8.591  11.772  65.292  1.00  0.00     0.547 A  
ENDROOT
BRANCH   7  18
HETATM   18  C   UNL     1     -10.855  10.123  69.219  1.00  0.00    -0.269 A  
HETATM   19  O   UNL     1      -9.934   8.442  72.930  1.00  0.00    -0.262 OA 
HETATM   20  C   UNL     1      -9.250   9.332  70.852  1.00  0.00    -0.233 A  
HETATM   21  C   UNL     1     -11.879   9.607  70.028  1.00  0.00    -0.009 A  
HETATM   22  H   UNL     1      -9.032   8.382  73.221  1.00  0.00     0.000 HD 
HETATM   23  C   UNL     1      -9.529   9.916  69.618  1.00  0.00    -0.252 A  
HETATM   24  C   UNL     1     -10.297   8.922  71.696  1.00  0.00    -0.345 A  
HETATM   25  C   UNL     1     -11.623   9.009  71.269  1.00  0.00    -0.317 A  
BRANCH  25  26
HETATM   26  O   UNL     1     -12.782   8.614  71.878  1.00  0.00    -0.325 OA 
HETATM   27  C   UNL     1     -13.751   9.556  72.284  1.00  0.00    -0.371 C  
ENDBRANCH  25  26
BRANCH  20  28
HETATM   28  O   UNL     1      -7.966   9.196  71.342  1.00  0.00    -0.314 OA 
HETATM   29  C   UNL     1      -6.937   9.841  70.598  1.00  0.00    -0.094 C  
ENDBRANCH  20  28
ENDBRANCH   7  18
BRANCH   8  30
HETATM   30  O   UNL     1     -10.051  14.364  66.150  1.00  0.00    -0.284 OA 
BRANCH  30  31
HETATM   31  C   UNL     1      -9.339  15.538  65.746  1.00  0.00    -0.257 C  
HETATM   32  O   UNL     1      -8.202  15.813  66.576  1.00  0.00    -0.273 OA 
HETATM   33  C   UNL     1      -7.690  17.140  66.380  1.00  0.00    -0.310 C  
HETATM   34  C   UNL     1      -6.381  17.409  67.124  1.00  0.00    -0.158 C  
HETATM   35  O   UNL     1      -6.003  18.780  66.984  1.00  0.00    -0.162 OA 
HETATM   36  C   UNL     1      -7.002  19.654  67.502  1.00  0.00    -0.226 C  
HETATM   37  C   UNL     1      -6.578  21.100  67.283  1.00  0.00    -0.429 C  
HETATM   38  O   UNL     1      -8.233  19.493  66.804  1.00  0.00    -0.271 OA 
HETATM   39  C   UNL     1      -8.716  18.151  66.878  1.00  0.00    -0.259 C  
HETATM   40  C   UNL     1      -9.924  18.077  65.963  1.00  0.00    -0.216 C  
HETATM   41  O   UNL     1     -10.969  18.909  66.492  1.00  0.00    -0.225 OA 
HETATM   42  C   UNL     1     -10.435  16.646  65.783  1.00  0.00    -0.311 C  
HETATM   43  H   UNL     1     -11.725  18.862  65.919  1.00  0.00     0.000 HD 
HETATM   44  O   UNL     1     -11.223  16.555  64.570  1.00  0.00    -0.846 OA 
HETATM   45  H   UNL     1     -11.891  17.230  64.591  1.00  0.00     0.000 HD 
ENDBRANCH  30  31
ENDBRANCH   8  30
TORSDOF 5
ENDMDL
MODEL       34
REMARK 921   NORMALIZED FREE ENERGY PREDICTED BY IDOCK:   -7.36 KCAL/MOL
REMARK 922        TOTAL FREE ENERGY PREDICTED BY IDOCK:  -10.74 KCAL/MOL
REMARK 923 INTER-LIGAND FREE ENERGY PREDICTED BY IDOCK:   -9.10 KCAL/MOL
REMARK 924 INTRA-LIGAND FREE ENERGY PREDICTED BY IDOCK:   -1.64 KCAL/MOL
REMARK 927      BINDING AFFINITY PREDICTED BY RF-SCORE:    0.00 PKD
ROOT
HETATM    1  C   UNL     1     -10.769   9.691  69.840  1.00  0.00    -0.283 C  
HETATM    2  C   UNL     1     -11.507  10.176  71.054  1.00  0.00    -0.354 C  
HETATM    3  O   UNL     1     -11.682   8.978  71.827  1.00  0.00    -0.324 OA 
HETATM    4  C   UNL     1     -11.633   7.881  71.001  1.00  0.00    -0.282 C  
HETATM    5  C   UNL     1     -11.364   8.322  69.592  1.00  0.00     0.206 C  
HETATM    6  O   UNL     1     -11.907   6.749  71.364  1.00  0.00    -0.301 OA 
HETATM    7  C   UNL     1     -10.492   7.493  68.632  1.00  0.00    -0.207 C  
HETATM    8  C   UNL     1     -10.755  10.536  68.581  1.00  0.00    -0.215 C  
HETATM    9  C   UNL     1      -9.963   8.347  67.470  1.00  0.00    -0.259 A  
HETATM   10  C   UNL     1      -9.297   7.708  66.402  1.00  0.00    -0.228 A  
HETATM   11  O   UNL     1      -7.999   8.030  64.362  1.00  0.00    -0.139 OA 
HETATM   12  C   UNL     1      -8.723   8.487  65.420  1.00  0.00    -0.159 A  
HETATM   13  C   UNL     1     -10.076   9.773  67.458  1.00  0.00    -0.246 A  
HETATM   14  C   UNL     1      -8.800   9.859  65.440  1.00  0.00    -0.168 A  
HETATM   15  C   UNL     1      -7.551   9.272  63.782  1.00  0.00    -0.112 C  
HETATM   16  O   UNL     1      -8.122  10.436  64.414  1.00  0.00    -0.162 OA 
HETATM   17  C   UNL     1      -9.483  10.527  66.426  1.00  0.00    -0.208 A  
ENDROOT
BRANCH   7  18
HETATM   18  C   UNL     1      -9.411   6.712  69.377  1.00  0.00    -0.147 A  
HETATM   19  O   UNL     1      -6.003   4.633  70.606  1.00  0.00    -0.016 OA 
HETATM   20  C   UNL     1      -8.241   4.645  69.854  1.00  0.00    -0.067 A  
HETATM   21  C   UNL     1      -8.318   7.411  69.911  1.00  0.00    -0.134 A  
HETATM   22  H   UNL     1      -5.971   3.686  70.552  1.00  0.00     0.000 HD 
HETATM   23  C   UNL     1      -9.384   5.312  69.418  1.00  0.00    -0.172 A  
HETATM   24  C   UNL     1      -7.116   5.370  70.282  1.00  0.00    -0.062 A  
HETATM   25  C   UNL     1      -7.162   6.762  70.362  1.00  0.00    -0.076 A  
BRANCH  25  26
HETATM   26  O   UNL     1      -6.230   7.659  70.807  1.00  0.00    -0.034 OA 
HETATM   27  C   UNL     1      -6.587   8.988  71.118  1.00  0.00    -0.086 C  
ENDBRANCH  25  26
BRANCH  20  28
HETATM   28  O   UNL     1      -8.121   3.269  69.819  1.00  0.00    -0.049 OA 
HETATM   29  C   UNL     1      -8.914   2.544  70.752  1.00  0.00    -0.094 C  
ENDBRANCH  20  28
ENDBRANCH   7  18
BRANCH   8  30
HETATM   30  O   UNL     1     -11.929  11.218  68.192  1.00  0.00    -0.610 OA 
BRANCH  30  31
HETATM   31  C   UNL     1     -12.027  12.619  67.919  1.00  0.00    -0.249 C  
HETATM   32  O   UNL     1     -11.408  12.990  66.680  1.00  0.00    -0.299 OA 
HETATM   33  C   UNL     1     -11.221  14.409  66.564  1.00  0.00    -0.340 C  
HETATM   34  C   UNL     1     -10.718  14.852  65.189  1.00  0.00    -0.411 C  
HETATM   35  O   UNL     1     -10.437  16.254  65.192  1.00  0.00    -0.591 OA 
HETATM   36  C   UNL     1      -9.448  16.588  66.161  1.00  0.00    -0.315 C  
HETATM   37  C   UNL     1      -9.222  18.094  66.162  1.00  0.00    -0.136 C  
HETATM   38  O   UNL     1      -9.886  16.254  67.474  1.00  0.00    -0.233 OA 
HETATM   39  C   UNL     1     -10.196  14.865  67.596  1.00  0.00    -0.236 C  
HETATM   40  C   UNL     1     -10.807  14.678  68.972  1.00  0.00    -0.245 C  
HETATM   41  O   UNL     1      -9.813  14.956  69.972  1.00  0.00    -0.462 OA 
HETATM   42  C   UNL     1     -11.374  13.271  69.176  1.00  0.00    -0.282 C  
HETATM   43  H   UNL     1     -10.195  14.840  70.833  1.00  0.00     0.000 HD 
HETATM   44  O   UNL     1     -12.349  13.285  70.247  1.00  0.00    -0.315 OA 
HETATM   45  H   UNL     1     -11.951  13.683  71.014  1.00  0.00     0.000 HD 
ENDBRANCH  30  31
ENDBRANCH   8  30
TORSDOF 5
ENDMDL
MODEL       35
REMARK 921   NORMALIZED FREE ENERGY PREDICTED BY IDOCK:   -7.32 KCAL/MOL
REMARK 922        TOTAL FREE ENERGY PREDICTED BY IDOCK:  -10.69 KCAL/MOL
REMARK 923 INTER-LIGAND FREE ENERGY PREDICTED BY IDOCK:  -10.77 KCAL/MOL
REMARK 924 INTRA-LIGAND FREE ENERGY PREDICTED BY IDOCK:    0.08 KCAL/MOL
REMARK 927      BINDING AFFINITY PREDICTED BY RF-SCORE:    0.00 PKD
ROOT
HETATM    1  C   UNL     1     -11.152  14.620  65.646  1.00  0.00    -0.338 C  
HETATM    2  C   UNL     1     -12.275  15.012  64.730  1.00  0.00    -0.218 C  
HETATM    3  O   UNL     1     -12.585  13.783  64.054  1.00  0.00    -0.685 OA 
HETATM    4  C   UNL     1     -11.490  12.954  64.071  1.00  0.00    -0.422 C  
HETATM    5  C   UNL     1     -10.375  13.607  64.834  1.00  0.00    -0.408 C  
HETATM    6  O   UNL     1     -11.419  11.914  63.438  1.00  0.00    -0.412 OA 
HETATM    7  C   UNL     1      -9.409  12.797  65.717  1.00  0.00     0.075 C  
HETATM    8  C   UNL     1     -10.248  15.690  66.227  1.00  0.00    -0.299 C  
HETATM    9  C   UNL     1      -8.705  13.690  66.751  1.00  0.00    -0.101 A  
HETATM   10  C   UNL     1      -7.654  13.146  67.520  1.00  0.00    -0.166 A  
HETATM   11  O   UNL     1      -6.132  13.514  69.389  1.00  0.00    -0.091 OA 
HETATM   12  C   UNL     1      -7.104  13.913  68.525  1.00  0.00    -0.104 A  
HETATM   13  C   UNL     1      -9.112  15.040  66.995  1.00  0.00    -0.249 A  
HETATM   14  C   UNL     1      -7.530  15.194  68.780  1.00  0.00    -0.132 A  
HETATM   15  C   UNL     1      -6.071  14.652  70.273  1.00  0.00    -0.167 C  
HETATM   16  O   UNL     1      -6.898  15.753  69.845  1.00  0.00    -0.153 OA 
HETATM   17  C   UNL     1      -8.510  15.790  68.025  1.00  0.00    -0.161 A  
ENDROOT
BRANCH   7  18
HETATM   18  C   UNL     1     -10.084  11.563  66.314  1.00  0.00    -0.261 A  
HETATM   19  O   UNL     1     -11.279   8.279  68.602  1.00  0.00    -0.321 OA 
HETATM   20  C   UNL     1     -10.141   9.178  66.738  1.00  0.00    -0.271 A  
HETATM   21  C   UNL     1     -11.004  11.735  67.359  1.00  0.00    -0.314 A  
HETATM   22  H   UNL     1     -10.952   7.410  68.404  1.00  0.00     0.000 HD 
HETATM   23  C   UNL     1      -9.709  10.258  65.970  1.00  0.00    -0.274 A  
HETATM   24  C   UNL     1     -10.977   9.387  67.848  1.00  0.00    -0.058 A  
HETATM   25  C   UNL     1     -11.458  10.664  68.140  1.00  0.00    -0.228 A  
BRANCH  25  26
HETATM   26  O   UNL     1     -12.324  11.089  69.110  1.00  0.00    -0.451 OA 
HETATM   27  C   UNL     1     -11.998  12.169  69.956  1.00  0.00    -0.315 C  
ENDBRANCH  25  26
BRANCH  20  28
HETATM   28  O   UNL     1      -9.722   7.883  66.507  1.00  0.00    -0.216 OA 
HETATM   29  C   UNL     1      -8.348   7.715  66.174  1.00  0.00    -0.134 C  
ENDBRANCH  20  28
ENDBRANCH   7  18
BRANCH   8  30
HETATM   30  O   UNL     1      -9.854  16.778  65.418  1.00  0.00    -0.547 OA 
BRANCH  30  31
HETATM   31  C   UNL     1      -9.153  17.941  65.868  1.00  0.00     0.171 C  
HETATM   32  O   UNL     1      -7.816  17.654  66.299  1.00  0.00    -0.276 OA 
HETATM   33  C   UNL     1      -7.235  18.737  67.042  1.00  0.00    -0.209 C  
HETATM   34  C   UNL     1      -5.755  18.532  67.372  1.00  0.00    -0.151 C  
HETATM   35  O   UNL     1      -5.285  19.586  68.215  1.00  0.00    -0.186 OA 
HETATM   36  C   UNL     1      -6.014  19.643  69.438  1.00  0.00    -0.269 C  
HETATM   37  C   UNL     1      -5.511  20.810  70.278  1.00  0.00    -0.307 C  
HETATM   38  O   UNL     1      -7.394  19.894  69.198  1.00  0.00    -0.295 OA 
HETATM   39  C   UNL     1      -7.981  18.895  68.362  1.00  0.00    -0.338 C  
HETATM   40  C   UNL     1      -9.388  19.368  68.046  1.00  0.00    -0.336 C  
HETATM   41  O   UNL     1     -10.163  19.384  69.256  1.00  0.00    -0.596 OA 
HETATM   42  C   UNL     1     -10.077  18.497  66.994  1.00  0.00    -0.360 C  
HETATM   43  H   UNL     1     -11.043  19.680  69.059  1.00  0.00     0.000 HD 
HETATM   44  O   UNL     1     -11.161  19.236  66.378  1.00  0.00    -0.199 OA 
HETATM   45  H   UNL     1     -11.724  19.575  67.064  1.00  0.00     0.000 HD 
ENDBRANCH  30  31
ENDBRANCH   8  30
TORSDOF 5
ENDMDL
MODEL       36
REMARK 921   NORMALIZED FREE ENERGY PREDICTED BY IDOCK:   -7.28 KCAL/MOL
REMARK 922        TOTAL FREE ENERGY PREDICTED BY IDOCK:  -10.64 KCAL/MOL
REMARK 923 INTER-LIGAND FREE ENERGY PREDICTED BY IDOCK:   -9.17 KCAL/MOL
REMARK 924 INTRA-LIGAND FREE ENERGY PREDICTED BY IDOCK:   -1.46 KCAL/MOL
REMARK 927      BINDING AFFINITY PREDICTED BY RF-SCORE:    0.00 PKD
ROOT
HETATM    1  C   UNL     1      -9.962   8.418  69.851  1.00  0.00    -0.190 C  
HETATM    2  C   UNL     1     -10.278   9.801  70.339  1.00  0.00    -0.281 C  
HETATM    3  O   UNL     1     -10.907   9.561  71.608  1.00  0.00    -0.343 OA 
HETATM    4  C   UNL     1     -11.444   8.296  71.629  1.00  0.00    -0.278 C  
HETATM    5  C   UNL     1     -11.138   7.598  70.336  1.00  0.00    -0.270 C  
HETATM    6  O   UNL     1     -12.169   7.884  72.519  1.00  0.00    -0.286 OA 
HETATM    7  C   UNL     1     -10.837   6.089  70.277  1.00  0.00    -0.398 C  
HETATM    8  C   UNL     1      -9.683   8.186  68.377  1.00  0.00    -0.161 C  
HETATM    9  C   UNL     1     -10.089   5.712  68.990  1.00  0.00    -0.259 A  
HETATM   10  C   UNL     1      -9.893   4.348  68.689  1.00  0.00    -0.141 A  
HETATM   11  O   UNL     1      -8.792   2.753  67.208  1.00  0.00    -0.118 OA 
HETATM   12  C   UNL     1      -9.122   4.015  67.595  1.00  0.00    -0.145 A  
HETATM   13  C   UNL     1      -9.538   6.699  68.111  1.00  0.00    -0.120 A  
HETATM   14  C   UNL     1      -8.562   4.970  66.781  1.00  0.00    -0.109 A  
HETATM   15  C   UNL     1      -7.883   3.032  66.123  1.00  0.00    -0.081 C  
HETATM   16  O   UNL     1      -7.796   4.433  65.795  1.00  0.00    -0.093 OA 
HETATM   17  C   UNL     1      -8.767   6.310  66.997  1.00  0.00    -0.108 A  
ENDROOT
BRANCH   7  18
HETATM   18  C   UNL     1     -10.167   5.593  71.558  1.00  0.00    -0.263 A  
HETATM   19  O   UNL     1      -7.948   3.613  74.491  1.00  0.00    -0.072 OA 
HETATM   20  C   UNL     1      -9.994   4.004  73.378  1.00  0.00    -0.131 A  
HETATM   21  C   UNL     1      -8.851   5.995  71.832  1.00  0.00    -0.138 A  
HETATM   22  H   UNL     1      -8.337   2.907  74.994  1.00  0.00     0.000 HD 
HETATM   23  C   UNL     1     -10.752   4.632  72.392  1.00  0.00    -0.186 A  
HETATM   24  C   UNL     1      -8.644   4.346  73.561  1.00  0.00    -0.096 A  
HETATM   25  C   UNL     1      -8.072   5.383  72.822  1.00  0.00    -0.109 A  
BRANCH  25  26
HETATM   26  O   UNL     1      -6.819   5.929  72.877  1.00  0.00    -0.072 OA 
HETATM   27  C   UNL     1      -6.633   7.327  72.895  1.00  0.00    -0.063 C  
ENDBRANCH  25  26
BRANCH  20  28
HETATM   28  O   UNL     1     -10.489   2.979  74.160  1.00  0.00    -0.149 OA 
HETATM   29  C   UNL     1     -11.660   2.327  73.678  1.00  0.00    -0.146 C  
ENDBRANCH  20  28
ENDBRANCH   7  18
BRANCH   8  30
HETATM   30  O   UNL     1     -10.447   8.877  67.412  1.00  0.00    -0.258 OA 
BRANCH  30  31
HETATM   31  C   UNL     1     -10.185  10.200  66.933  1.00  0.00    -0.236 C  
HETATM   32  O   UNL     1     -11.162  11.154  67.369  1.00  0.00    -0.289 OA 
HETATM   33  C   UNL     1     -11.087  12.388  66.639  1.00  0.00    -0.289 C  
HETATM   34  C   UNL     1     -12.001  13.484  67.188  1.00  0.00    -0.381 C  
HETATM   35  O   UNL     1     -11.965  14.633  66.338  1.00  0.00    -0.356 OA 
HETATM   36  C   UNL     1     -12.386  14.318  65.014  1.00  0.00    -0.428 C  
HETATM   37  C   UNL     1     -12.281  15.558  64.137  1.00  0.00    -0.019 C  
HETATM   38  O   UNL     1     -11.532  13.343  64.425  1.00  0.00    -0.355 OA 
HETATM   39  C   UNL     1     -11.491  12.138  65.190  1.00  0.00    -0.323 C  
HETATM   40  C   UNL     1     -10.427  11.261  64.556  1.00  0.00    -0.334 C  
HETATM   41  O   UNL     1     -10.852  10.883  63.237  1.00  0.00    -0.680 OA 
HETATM   42  C   UNL     1     -10.126  10.012  65.387  1.00  0.00    -0.247 C  
HETATM   43  H   UNL     1     -10.187  10.335  62.839  1.00  0.00     0.000 HD 
HETATM   44  O   UNL     1      -8.820   9.491  65.035  1.00  0.00    -0.171 OA 
HETATM   45  H   UNL     1      -8.784   9.376  64.092  1.00  0.00     0.000 HD 
ENDBRANCH  30  31
ENDBRANCH   8  30
TORSDOF 5
ENDMDL
MODEL       37
REMARK 921   NORMALIZED FREE ENERGY PREDICTED BY IDOCK:   -7.20 KCAL/MOL
REMARK 922        TOTAL FREE ENERGY PREDICTED BY IDOCK:  -10.53 KCAL/MOL
REMARK 923 INTER-LIGAND FREE ENERGY PREDICTED BY IDOCK:   -9.01 KCAL/MOL
REMARK 924 INTRA-LIGAND FREE ENERGY PREDICTED BY IDOCK:   -1.53 KCAL/MOL
REMARK 927      BINDING AFFINITY PREDICTED BY RF-SCORE:    0.00 PKD
ROOT
HETATM    1  C   UNL     1      -9.284   9.772  66.575  1.00  0.00    -0.194 C  
HETATM    2  C   UNL     1      -8.446   8.938  65.650  1.00  0.00    -0.157 C  
HETATM    3  O   UNL     1      -8.310   9.777  64.491  1.00  0.00    -0.143 OA 
HETATM    4  C   UNL     1      -9.352  10.670  64.439  1.00  0.00    -0.251 C  
HETATM    5  C   UNL     1     -10.235  10.485  65.639  1.00  0.00    -0.315 C  
HETATM    6  O   UNL     1      -9.574  11.395  63.484  1.00  0.00    -0.277 OA 
HETATM    7  C   UNL     1     -10.925  11.673  66.333  1.00  0.00    -0.345 C  
HETATM    8  C   UNL     1     -10.017   9.112  67.728  1.00  0.00    -0.189 C  
HETATM    9  C   UNL     1     -11.344  11.324  67.769  1.00  0.00    -0.354 A  
HETATM   10  C   UNL     1     -12.149  12.234  68.486  1.00  0.00    -0.124 A  
HETATM   11  O   UNL     1     -13.131  12.776  70.652  1.00  0.00     0.084 OA 
HETATM   12  C   UNL     1     -12.425  11.972  69.812  1.00  0.00     0.086 A  
HETATM   13  C   UNL     1     -10.903  10.129  68.422  1.00  0.00    -0.284 A  
HETATM   14  C   UNL     1     -11.962  10.843  70.442  1.00  0.00    -0.362 A  
HETATM   15  C   UNL     1     -12.971  12.070  71.900  1.00  0.00    -0.323 C  
HETATM   16  O   UNL     1     -12.298  10.803  71.758  1.00  0.00    -0.269 OA 
HETATM   17  C   UNL     1     -11.222   9.897  69.775  1.00  0.00    -0.279 A  
ENDROOT
BRANCH   7  18
HETATM   18  C   UNL     1     -10.103  12.956  66.216  1.00  0.00    -0.281 A  
HETATM   19  O   UNL     1      -8.331  16.713  66.652  1.00  0.00    -0.206 OA 
HETATM   20  C   UNL     1      -9.897  15.290  65.602  1.00  0.00    -0.348 A  
HETATM   21  C   UNL     1      -8.964  13.104  67.021  1.00  0.00    -0.228 A  
HETATM   22  H   UNL     1      -8.678  17.466  66.188  1.00  0.00     0.000 HD 
HETATM   23  C   UNL     1     -10.522  14.053  65.453  1.00  0.00    -0.365 A  
HETATM   24  C   UNL     1      -8.826  15.441  66.500  1.00  0.00    -0.312 A  
HETATM   25  C   UNL     1      -8.315  14.335  67.181  1.00  0.00    -0.180 A  
BRANCH  25  26
HETATM   26  O   UNL     1      -7.253  14.230  68.036  1.00  0.00    -0.110 OA 
HETATM   27  C   UNL     1      -7.261  14.870  69.293  1.00  0.00    -0.172 C  
ENDBRANCH  25  26
BRANCH  20  28
HETATM   28  O   UNL     1     -10.332  16.429  64.954  1.00  0.00    -0.590 OA 
HETATM   29  C   UNL     1     -11.570  16.324  64.258  1.00  0.00     0.034 C  
ENDBRANCH  20  28
ENDBRANCH   7  18
BRANCH   8  30
HETATM   30  O   UNL     1     -10.622   7.851  67.531  1.00  0.00    -0.261 OA 
BRANCH  30  31
HETATM   31  C   UNL     1     -10.524   6.732  68.418  1.00  0.00    -0.205 C  
HETATM   32  O   UNL     1     -11.232   6.932  69.648  1.00  0.00    -0.273 OA 
HETATM   33  C   UNL     1     -10.871   5.969  70.650  1.00  0.00    -0.297 C  
HETATM   34  C   UNL     1     -11.727   6.049  71.916  1.00  0.00    -0.226 C  
HETATM   35  O   UNL     1     -11.229   5.150  72.909  1.00  0.00    -0.274 OA 
HETATM   36  C   UNL     1      -9.881   5.451  73.258  1.00  0.00    -0.162 C  
HETATM   37  C   UNL     1      -9.380   4.437  74.279  1.00  0.00    -0.121 C  
HETATM   38  O   UNL     1      -9.022   5.332  72.129  1.00  0.00    -0.129 OA 
HETATM   39  C   UNL     1      -9.422   6.194  71.063  1.00  0.00    -0.171 C  
HETATM   40  C   UNL     1      -8.542   5.849  69.876  1.00  0.00    -0.129 C  
HETATM   41  O   UNL     1      -7.180   6.193  70.181  1.00  0.00    -0.072 OA 
HETATM   42  C   UNL     1      -8.984   6.554  68.592  1.00  0.00    -0.126 C  
HETATM   43  H   UNL     1      -6.629   5.976  69.438  1.00  0.00     0.000 HD 
HETATM   44  O   UNL     1      -8.469   5.845  67.439  1.00  0.00    -0.105 OA 
HETATM   45  H   UNL     1      -7.531   5.736  67.545  1.00  0.00     0.000 HD 
ENDBRANCH  30  31
ENDBRANCH   8  30
TORSDOF 5
ENDMDL
MODEL       38
REMARK 921   NORMALIZED FREE ENERGY PREDICTED BY IDOCK:   -7.13 KCAL/MOL
REMARK 922        TOTAL FREE ENERGY PREDICTED BY IDOCK:  -10.45 KCAL/MOL
REMARK 923 INTER-LIGAND FREE ENERGY PREDICTED BY IDOCK:   -9.26 KCAL/MOL
REMARK 924 INTRA-LIGAND FREE ENERGY PREDICTED BY IDOCK:   -1.20 KCAL/MOL
REMARK 927      BINDING AFFINITY PREDICTED BY RF-SCORE:    0.00 PKD
ROOT
HETATM    1  C   UNL     1      -9.424   9.893  66.204  1.00  0.00    -0.254 C  
HETATM    2  C   UNL     1      -8.636   9.344  65.051  1.00  0.00    -0.172 C  
HETATM    3  O   UNL     1      -8.664  10.418  64.097  1.00  0.00    -0.181 OA 
HETATM    4  C   UNL     1      -9.756  11.219  64.332  1.00  0.00    -0.254 C  
HETATM    5  C   UNL     1     -10.503  10.715  65.531  1.00  0.00    -0.246 C  
HETATM    6  O   UNL     1     -10.112  12.112  63.581  1.00  0.00    -0.395 OA 
HETATM    7  C   UNL     1     -11.187  11.670  66.525  1.00  0.00    -0.356 C  
HETATM    8  C   UNL     1     -10.000   8.947  67.241  1.00  0.00    -0.216 C  
HETATM    9  C   UNL     1     -11.440  10.991  67.880  1.00  0.00    -0.358 A  
HETATM   10  C   UNL     1     -12.220  11.662  68.845  1.00  0.00    -0.112 A  
HETATM   11  O   UNL     1     -13.011  11.650  71.152  1.00  0.00    -0.328 OA 
HETATM   12  C   UNL     1     -12.348  11.102  70.099  1.00  0.00    -0.295 A  
HETATM   13  C   UNL     1     -10.870   9.722  68.214  1.00  0.00    -0.256 A  
HETATM   14  C   UNL     1     -11.761   9.903  70.424  1.00  0.00    -0.258 A  
HETATM   15  C   UNL     1     -12.689  10.709  72.196  1.00  0.00    -0.017 C  
HETATM   16  O   UNL     1     -11.962   9.557  71.723  1.00  0.00    -0.370 OA 
HETATM   17  C   UNL     1     -11.039   9.182  69.505  1.00  0.00    -0.068 A  
ENDROOT
BRANCH   7  18
HETATM   18  C   UNL     1     -10.455  13.007  66.624  1.00  0.00    -0.271 A  
HETATM   19  O   UNL     1      -8.048  16.382  66.109  1.00  0.00    -0.314 OA 
HETATM   20  C   UNL     1      -8.475  14.303  67.145  1.00  0.00    -0.200 A  
HETATM   21  C   UNL     1     -10.921  14.092  65.866  1.00  0.00    -0.286 A  
HETATM   22  H   UNL     1      -7.195  16.433  66.523  1.00  0.00     0.000 HD 
HETATM   23  C   UNL     1      -9.248  13.156  67.319  1.00  0.00    -0.221 A  
HETATM   24  C   UNL     1      -8.913  15.332  66.293  1.00  0.00    -0.279 A  
HETATM   25  C   UNL     1     -10.167  15.257  65.683  1.00  0.00    -0.372 A  
BRANCH  25  26
HETATM   26  O   UNL     1     -10.822  16.153  64.884  1.00  0.00    -0.582 OA 
HETATM   27  C   UNL     1     -11.925  15.759  64.098  1.00  0.00     0.020 C  
ENDBRANCH  25  26
BRANCH  20  28
HETATM   28  O   UNL     1      -7.231  14.460  67.723  1.00  0.00    -0.140 OA 
HETATM   29  C   UNL     1      -6.780  13.391  68.547  1.00  0.00    -0.096 C  
ENDBRANCH  20  28
ENDBRANCH   7  18
BRANCH   8  30
HETATM   30  O   UNL     1     -10.550   7.715  66.824  1.00  0.00    -0.325 OA 
BRANCH  30  31
HETATM   31  C   UNL     1     -10.415   6.468  67.511  1.00  0.00    -0.240 C  
HETATM   32  O   UNL     1      -9.502   6.535  68.614  1.00  0.00    -0.125 OA 
HETATM   33  C   UNL     1      -9.123   5.235  69.092  1.00  0.00    -0.108 C  
HETATM   34  C   UNL     1      -8.284   5.271  70.371  1.00  0.00    -0.103 C  
HETATM   35  O   UNL     1      -7.842   3.955  70.711  1.00  0.00    -0.050 OA 
HETATM   36  C   UNL     1      -7.054   3.382  69.672  1.00  0.00    -0.041 C  
HETATM   37  C   UNL     1      -6.652   1.965  70.058  1.00  0.00    -0.029 C  
HETATM   38  O   UNL     1      -7.804   3.265  68.467  1.00  0.00    -0.058 OA 
HETATM   39  C   UNL     1      -8.298   4.529  68.023  1.00  0.00    -0.094 C  
HETATM   40  C   UNL     1      -9.211   4.245  66.844  1.00  0.00    -0.148 C  
HETATM   41  O   UNL     1      -8.432   3.715  65.760  1.00  0.00    -0.107 OA 
HETATM   42  C   UNL     1      -9.975   5.487  66.382  1.00  0.00    -0.172 C  
HETATM   43  H   UNL     1      -9.003   3.537  65.022  1.00  0.00     0.000 HD 
HETATM   44  O   UNL     1     -11.151   5.090  65.633  1.00  0.00    -0.778 OA 
HETATM   45  H   UNL     1     -10.883   4.492  64.944  1.00  0.00     0.000 HD 
ENDBRANCH  30  31
ENDBRANCH   8  30
TORSDOF 5
ENDMDL
MODEL       39
REMARK 921   NORMALIZED FREE ENERGY PREDICTED BY IDOCK:   -7.05 KCAL/MOL
REMARK 922        TOTAL FREE ENERGY PREDICTED BY IDOCK:  -10.35 KCAL/MOL
REMARK 923 INTER-LIGAND FREE ENERGY PREDICTED BY IDOCK:   -8.95 KCAL/MOL
REMARK 924 INTRA-LIGAND FREE ENERGY PREDICTED BY IDOCK:   -1.40 KCAL/MOL
REMARK 927      BINDING AFFINITY PREDICTED BY RF-SCORE:    0.00 PKD
ROOT
HETATM    1  C   UNL     1     -10.170  12.097  66.341  1.00  0.00    -0.245 C  
HETATM    2  C   UNL     1      -9.958  12.611  64.947  1.00  0.00    -0.146 C  
HETATM    3  O   UNL     1     -10.880  13.709  64.863  1.00  0.00    -0.332 OA 
HETATM    4  C   UNL     1     -11.897  13.533  65.770  1.00  0.00    -0.372 C  
HETATM    5  C   UNL     1     -11.656  12.280  66.560  1.00  0.00    -0.440 C  
HETATM    6  O   UNL     1     -12.898  14.229  65.807  1.00  0.00    -0.460 OA 
HETATM    7  C   UNL     1     -12.025  12.175  68.051  1.00  0.00    -0.233 C  
HETATM    8  C   UNL     1      -9.715  10.696  66.704  1.00  0.00    -0.184 C  
HETATM    9  C   UNL     1     -11.258  11.037  68.744  1.00  0.00    -0.327 A  
HETATM   10  C   UNL     1     -11.607  10.684  70.064  1.00  0.00    -0.406 A  
HETATM   11  O   UNL     1     -11.010   9.341  72.011  1.00  0.00    -0.315 OA 
HETATM   12  C   UNL     1     -10.842   9.744  70.722  1.00  0.00    -0.333 A  
HETATM   13  C   UNL     1     -10.168  10.358  68.113  1.00  0.00    -0.187 A  
HETATM   14  C   UNL     1      -9.771   9.128  70.122  1.00  0.00    -0.204 A  
HETATM   15  C   UNL     1      -9.865   8.481  72.177  1.00  0.00    -0.318 C  
HETATM   16  O   UNL     1      -9.119   8.278  70.960  1.00  0.00    -0.144 OA 
HETATM   17  C   UNL     1      -9.423   9.394  68.821  1.00  0.00    -0.150 A  
ENDROOT
BRANCH   7  18
HETATM   18  C   UNL     1     -11.916  13.524  68.760  1.00  0.00    -0.374 A  
HETATM   19  O   UNL     1     -11.292  16.700  71.399  1.00  0.00    -0.427 OA 
HETATM   20  C   UNL     1     -12.735  15.144  70.364  1.00  0.00    -0.333 A  
HETATM   21  C   UNL     1     -10.673  14.171  68.795  1.00  0.00    -0.265 A  
HETATM   22  H   UNL     1     -11.995  17.007  71.959  1.00  0.00     0.000 HD 
HETATM   23  C   UNL     1     -12.967  14.069  69.508  1.00  0.00     0.771 A  
HETATM   24  C   UNL     1     -11.451  15.707  70.465  1.00  0.00    -0.360 A  
HETATM   25  C   UNL     1     -10.418  15.257  69.642  1.00  0.00    -0.270 A  
BRANCH  25  26
HETATM   26  O   UNL     1      -9.128  15.694  69.515  1.00  0.00    -0.267 OA 
HETATM   27  C   UNL     1      -8.108  14.834  69.057  1.00  0.00    -0.145 C  
ENDBRANCH  25  26
BRANCH  20  28
HETATM   28  O   UNL     1     -13.708  15.655  71.201  1.00  0.00    -0.591 OA 
HETATM   29  C   UNL     1     -14.280  14.744  72.133  1.00  0.00    -0.515 C  
ENDBRANCH  20  28
ENDBRANCH   7  18
BRANCH   8  30
HETATM   30  O   UNL     1      -9.888   9.650  65.772  1.00  0.00    -0.279 OA 
BRANCH  30  31
HETATM   31  C   UNL     1      -8.933   8.623  65.484  1.00  0.00    -0.158 C  
HETATM   32  O   UNL     1      -9.264   7.368  66.092  1.00  0.00    -0.166 OA 
HETATM   33  C   UNL     1      -8.164   6.445  66.078  1.00  0.00    -0.126 C  
HETATM   34  C   UNL     1      -8.532   5.043  66.566  1.00  0.00    -0.110 C  
HETATM   35  O   UNL     1      -7.364   4.222  66.642  1.00  0.00    -0.077 OA 
HETATM   36  C   UNL     1      -6.396   4.769  67.534  1.00  0.00    -0.040 C  
HETATM   37  C   UNL     1      -5.154   3.889  67.541  1.00  0.00    -0.008 C  
HETATM   38  O   UNL     1      -5.968   6.054  67.096  1.00  0.00    -0.017 OA 
HETATM   39  C   UNL     1      -7.058   6.971  66.985  1.00  0.00    -0.079 C  
HETATM   40  C   UNL     1      -6.499   8.232  66.354  1.00  0.00    -0.054 C  
HETATM   41  O   UNL     1      -5.558   8.835  67.257  1.00  0.00    -0.037 OA 
HETATM   42  C   UNL     1      -7.591   9.238  65.987  1.00  0.00    -0.096 C  
HETATM   43  H   UNL     1      -5.208   9.624  66.862  1.00  0.00     0.000 HD 
HETATM   44  O   UNL     1      -7.098  10.154  64.978  1.00  0.00    -0.132 OA 
HETATM   45  H   UNL     1      -6.280  10.529  65.284  1.00  0.00     0.000 HD 
ENDBRANCH  30  31
ENDBRANCH   8  30
TORSDOF 5
ENDMDL
MODEL       40
REMARK 921   NORMALIZED FREE ENERGY PREDICTED BY IDOCK:   -7.02 KCAL/MOL
REMARK 922        TOTAL FREE ENERGY PREDICTED BY IDOCK:  -10.31 KCAL/MOL
REMARK 923 INTER-LIGAND FREE ENERGY PREDICTED BY IDOCK:   -8.82 KCAL/MOL
REMARK 924 INTRA-LIGAND FREE ENERGY PREDICTED BY IDOCK:   -1.49 KCAL/MOL
REMARK 927      BINDING AFFINITY PREDICTED BY RF-SCORE:    0.00 PKD
ROOT
HETATM    1  C   UNL     1     -11.209   9.458  70.879  1.00  0.00    -0.393 C  
HETATM    2  C   UNL     1     -12.357   9.814  71.778  1.00  0.00    -0.386 C  
HETATM    3  O   UNL     1     -12.567   8.608  72.529  1.00  0.00    -0.392 OA 
HETATM    4  C   UNL     1     -12.085   7.532  71.824  1.00  0.00    -0.308 C  
HETATM    5  C   UNL     1     -11.466   8.005  70.542  1.00  0.00    -0.192 C  
HETATM    6  O   UNL     1     -12.270   6.372  72.152  1.00  0.00    -0.318 OA 
HETATM    7  C   UNL     1     -10.215   7.335  69.945  1.00  0.00    -0.210 C  
HETATM    8  C   UNL     1     -10.941  10.286  69.636  1.00  0.00    -0.270 C  
HETATM    9  C   UNL     1      -9.496   8.261  68.953  1.00  0.00    -0.151 A  
HETATM   10  C   UNL     1      -8.437   7.742  68.179  1.00  0.00    -0.124 A  
HETATM   11  O   UNL     1      -6.638   8.273  66.620  1.00  0.00    -0.055 OA 
HETATM   12  C   UNL     1      -7.719   8.603  67.376  1.00  0.00    -0.098 A  
HETATM   13  C   UNL     1      -9.831   9.646  68.823  1.00  0.00    -0.173 A  
HETATM   14  C   UNL     1      -8.022   9.941  67.290  1.00  0.00    -0.109 A  
HETATM   15  C   UNL     1      -6.240   9.570  66.133  1.00  0.00    -0.068 C  
HETATM   16  O   UNL     1      -7.161  10.622  66.489  1.00  0.00    -0.117 OA 
HETATM   17  C   UNL     1      -9.078  10.486  67.979  1.00  0.00    -0.138 A  
ENDROOT
BRANCH   7  18
HETATM   18  C   UNL     1      -9.308   6.756  71.030  1.00  0.00    -0.160 A  
HETATM   19  O   UNL     1      -7.616   5.127  74.484  1.00  0.00    -0.088 OA 
HETATM   20  C   UNL     1      -8.074   6.987  73.102  1.00  0.00    -0.101 A  
HETATM   21  C   UNL     1      -9.251   5.364  71.193  1.00  0.00    -0.175 A  
HETATM   22  H   UNL     1      -7.244   5.692  75.150  1.00  0.00     0.000 HD 
HETATM   23  C   UNL     1      -8.650   7.560  71.970  1.00  0.00    -0.126 A  
HETATM   24  C   UNL     1      -8.126   5.596  73.298  1.00  0.00    -0.114 A  
HETATM   25  C   UNL     1      -8.672   4.765  72.318  1.00  0.00    -0.120 A  
BRANCH  25  26
HETATM   26  O   UNL     1      -8.766   3.402  72.259  1.00  0.00    -0.085 OA 
HETATM   27  C   UNL     1      -9.232   2.752  71.097  1.00  0.00    -0.127 C  
ENDBRANCH  25  26
BRANCH  20  28
HETATM   28  O   UNL     1      -7.503   7.737  74.111  1.00  0.00    -0.123 OA 
HETATM   29  C   UNL     1      -6.427   8.588  73.730  1.00  0.00    -0.098 C  
ENDBRANCH  20  28
ENDBRANCH   7  18
BRANCH   8  30
HETATM   30  O   UNL     1     -12.030  10.752  68.868  1.00  0.00    -0.373 OA 
BRANCH  30  31
HETATM   31  C   UNL     1     -12.265  12.114  68.495  1.00  0.00     0.158 C  
HETATM   32  O   UNL     1     -12.146  12.333  67.083  1.00  0.00    -0.560 OA 
HETATM   33  C   UNL     1     -12.059  13.728  66.751  1.00  0.00    -0.418 C  
HETATM   34  C   UNL     1     -12.099  14.005  65.247  1.00  0.00    -0.408 C  
HETATM   35  O   UNL     1     -11.881  15.394  64.993  1.00  0.00    -0.170 OA 
HETATM   36  C   UNL     1     -10.620  15.827  65.495  1.00  0.00    -0.406 C  
HETATM   37  C   UNL     1     -10.457  17.320  65.246  1.00  0.00     0.054 C  
HETATM   38  O   UNL     1     -10.545  15.650  66.906  1.00  0.00    -0.303 OA 
HETATM   39  C   UNL     1     -10.745  14.288  67.284  1.00  0.00    -0.277 C  
HETATM   40  C   UNL     1     -10.813  14.267  68.800  1.00  0.00    -0.253 C  
HETATM   41  O   UNL     1      -9.535  14.647  69.335  1.00  0.00    -0.401 OA 
HETATM   42  C   UNL     1     -11.223  12.899  69.349  1.00  0.00    -0.132 C  
HETATM   43  H   UNL     1      -9.577  14.635  70.283  1.00  0.00     0.000 HD 
HETATM   44  O   UNL     1     -11.747  13.046  70.693  1.00  0.00    -0.512 OA 
HETATM   45  H   UNL     1     -11.112  13.524  71.214  1.00  0.00     0.000 HD 
ENDBRANCH  30  31
ENDBRANCH   8  30
TORSDOF 5
ENDMDL
MODEL       41
REMARK 921   NORMALIZED FREE ENERGY PREDICTED BY IDOCK:   -6.99 KCAL/MOL
REMARK 922        TOTAL FREE ENERGY PREDICTED BY IDOCK:  -10.27 KCAL/MOL
REMARK 923 INTER-LIGAND FREE ENERGY PREDICTED BY IDOCK:   -8.94 KCAL/MOL
REMARK 924 INTRA-LIGAND FREE ENERGY PREDICTED BY IDOCK:   -1.33 KCAL/MOL
REMARK 927      BINDING AFFINITY PREDICTED BY RF-SCORE:    0.00 PKD
ROOT
HETATM    1  C   UNL     1      -9.600  10.284  68.170  1.00  0.00    -0.151 C  
HETATM    2  C   UNL     1      -8.792   9.202  67.514  1.00  0.00    -0.119 C  
HETATM    3  O   UNL     1      -8.328   9.829  66.308  1.00  0.00    -0.115 OA 
HETATM    4  C   UNL     1      -9.170  10.859  65.966  1.00  0.00    -0.188 C  
HETATM    5  C   UNL     1     -10.248  10.994  67.001  1.00  0.00    -0.250 C  
HETATM    6  O   UNL     1      -9.105  11.463  64.908  1.00  0.00    -0.126 OA 
HETATM    7  C   UNL     1     -10.811  12.365  67.417  1.00  0.00    -0.273 C  
HETATM    8  C   UNL     1     -10.610   9.923  69.242  1.00  0.00    -0.224 C  
HETATM    9  C   UNL     1     -11.506  12.300  68.786  1.00  0.00    -0.360 A  
HETATM   10  C   UNL     1     -12.234  13.421  69.236  1.00  0.00    -0.222 A  
HETATM   11  O   UNL     1     -13.428  14.422  71.113  1.00  0.00    -0.358 OA 
HETATM   12  C   UNL     1     -12.757  13.402  70.512  1.00  0.00    -0.124 A  
HETATM   13  C   UNL     1     -11.396  11.159  69.643  1.00  0.00    -0.366 A  
HETATM   14  C   UNL     1     -12.610  12.318  71.343  1.00  0.00    -0.198 A  
HETATM   15  C   UNL     1     -13.595  13.890  72.443  1.00  0.00    -0.575 C  
HETATM   16  O   UNL     1     -13.150  12.525  72.573  1.00  0.00    -0.298 OA 
HETATM   17  C   UNL     1     -11.958  11.180  70.934  1.00  0.00    -0.362 A  
ENDROOT
BRANCH   7  18
HETATM   18  C   UNL     1      -9.762  13.470  67.300  1.00  0.00    -0.236 A  
HETATM   19  O   UNL     1      -7.382  16.883  67.665  1.00  0.00    -0.146 OA 
HETATM   20  C   UNL     1      -9.083  15.674  66.559  1.00  0.00    -0.303 A  
HETATM   21  C   UNL     1      -8.691  13.483  68.205  1.00  0.00    -0.174 A  
HETATM   22  H   UNL     1      -7.544  17.643  67.120  1.00  0.00     0.000 HD 
HETATM   23  C   UNL     1      -9.906  14.557  66.429  1.00  0.00    -0.306 A  
HETATM   24  C   UNL     1      -8.085  15.708  67.547  1.00  0.00    -0.160 A  
HETATM   25  C   UNL     1      -7.845  14.590  68.348  1.00  0.00    -0.135 A  
BRANCH  25  26
HETATM   26  O   UNL     1      -6.899  14.372  69.311  1.00  0.00    -0.116 OA 
HETATM   27  C   UNL     1      -5.622  14.965  69.226  1.00  0.00    -0.093 C  
ENDBRANCH  25  26
BRANCH  20  28
HETATM   28  O   UNL     1      -9.245  16.814  65.797  1.00  0.00    -0.520 OA 
HETATM   29  C   UNL     1     -10.444  17.550  66.012  1.00  0.00    -0.274 C  
ENDBRANCH  20  28
ENDBRANCH   7  18
BRANCH   8  30
HETATM   30  O   UNL     1     -11.396   8.760  69.089  1.00  0.00     0.191 OA 
BRANCH  30  31
HETATM   31  C   UNL     1     -11.383   7.625  69.961  1.00  0.00    -0.067 C  
HETATM   32  O   UNL     1     -10.998   7.957  71.302  1.00  0.00    -0.233 OA 
HETATM   33  C   UNL     1     -10.673   6.796  72.082  1.00  0.00    -0.220 C  
HETATM   34  C   UNL     1     -10.420   7.099  73.560  1.00  0.00    -0.380 C  
HETATM   35  O   UNL     1      -9.982   5.921  74.240  1.00  0.00    -0.201 OA 
HETATM   36  C   UNL     1      -8.779   5.407  73.675  1.00  0.00    -0.116 C  
HETATM   37  C   UNL     1      -8.382   4.128  74.398  1.00  0.00    -0.090 C  
HETATM   38  O   UNL     1      -8.969   5.048  72.311  1.00  0.00    -0.130 OA 
HETATM   39  C   UNL     1      -9.408   6.155  71.523  1.00  0.00    -0.148 C  
HETATM   40  C   UNL     1      -9.735   5.604  70.147  1.00  0.00    -0.174 C  
HETATM   41  O   UNL     1      -8.528   5.127  69.531  1.00  0.00    -0.091 OA 
HETATM   42  C   UNL     1     -10.409   6.641  69.246  1.00  0.00    -0.200 C  
HETATM   43  H   UNL     1      -8.732   4.782  68.670  1.00  0.00     0.000 HD 
HETATM   44  O   UNL     1     -11.129   5.971  68.181  1.00  0.00    -0.306 OA 
HETATM   45  H   UNL     1     -10.535   5.371  67.745  1.00  0.00     0.000 HD 
ENDBRANCH  30  31
ENDBRANCH   8  30
TORSDOF 5
ENDMDL
MODEL       42
REMARK 921   NORMALIZED FREE ENERGY PREDICTED BY IDOCK:   -6.97 KCAL/MOL
REMARK 922        TOTAL FREE ENERGY PREDICTED BY IDOCK:  -10.25 KCAL/MOL
REMARK 923 INTER-LIGAND FREE ENERGY PREDICTED BY IDOCK:   -9.05 KCAL/MOL
REMARK 924 INTRA-LIGAND FREE ENERGY PREDICTED BY IDOCK:   -1.19 KCAL/MOL
REMARK 927      BINDING AFFINITY PREDICTED BY RF-SCORE:    0.00 PKD
ROOT
HETATM    1  C   UNL     1      -9.792  11.574  64.626  1.00  0.00    -0.283 C  
HETATM    2  C   UNL     1     -10.443  11.465  63.278  1.00  0.00    -0.334 C  
HETATM    3  O   UNL     1     -11.649  12.228  63.438  1.00  0.00    -0.450 OA 
HETATM    4  C   UNL     1     -11.995  12.278  64.766  1.00  0.00    -0.362 C  
HETATM    5  C   UNL     1     -10.963  11.558  65.583  1.00  0.00    -0.296 C  
HETATM    6  O   UNL     1     -13.055  12.725  65.172  1.00  0.00    -0.750 OA 
HETATM    7  C   UNL     1     -10.552  12.041  66.986  1.00  0.00    -0.258 C  
HETATM    8  C   UNL     1      -8.721  10.577  65.027  1.00  0.00    -0.182 C  
HETATM    9  C   UNL     1      -9.185  11.477  67.400  1.00  0.00    -0.166 A  
HETATM   10  C   UNL     1      -8.739  11.672  68.725  1.00  0.00    -0.015 A  
HETATM   11  O   UNL     1      -6.867  11.438  70.271  1.00  0.00    -0.096 OA 
HETATM   12  C   UNL     1      -7.464  11.267  69.060  1.00  0.00    -0.116 A  
HETATM   13  C   UNL     1      -8.325  10.805  66.474  1.00  0.00    -0.146 A  
HETATM   14  C   UNL     1      -6.630  10.661  68.152  1.00  0.00    -0.063 A  
HETATM   15  C   UNL     1      -5.536  10.960  69.987  1.00  0.00    -0.068 C  
HETATM   16  O   UNL     1      -5.402  10.392  68.668  1.00  0.00    -0.039 OA 
HETATM   17  C   UNL     1      -7.034  10.397  66.867  1.00  0.00    -0.093 A  
ENDROOT
BRANCH   7  18
HETATM   18  C   UNL     1     -10.669  13.559  67.121  1.00  0.00    -0.282 A  
HETATM   19  O   UNL     1     -10.261  17.609  68.055  1.00  0.00    -0.323 OA 
HETATM   20  C   UNL     1     -11.334  15.528  68.365  1.00  0.00    -0.354 A  
HETATM   21  C   UNL     1      -9.824  14.373  66.353  1.00  0.00    -0.309 A  
HETATM   22  H   UNL     1     -10.757  17.991  68.769  1.00  0.00     0.000 HD 
HETATM   23  C   UNL     1     -11.476  14.170  68.089  1.00  0.00    -0.340 A  
HETATM   24  C   UNL     1     -10.400  16.303  67.655  1.00  0.00    -0.284 A  
HETATM   25  C   UNL     1      -9.670  15.742  66.606  1.00  0.00    -0.249 A  
BRANCH  25  26
HETATM   26  O   UNL     1      -8.772  16.309  65.744  1.00  0.00    -0.390 OA 
HETATM   27  C   UNL     1      -7.556  16.851  66.210  1.00  0.00    -0.277 C  
ENDBRANCH  25  26
BRANCH  20  28
HETATM   28  O   UNL     1     -12.028  16.161  69.377  1.00  0.00    -0.249 OA 
HETATM   29  C   UNL     1     -11.800  15.676  70.696  1.00  0.00    -0.376 C  
ENDBRANCH  20  28
ENDBRANCH   7  18
BRANCH   8  30
HETATM   30  O   UNL     1      -8.873   9.219  64.673  1.00  0.00    -0.198 OA 
BRANCH  30  31
HETATM   31  C   UNL     1      -8.507   8.100  65.487  1.00  0.00    -0.159 C  
HETATM   32  O   UNL     1      -7.705   7.140  64.786  1.00  0.00    -0.100 OA 
HETATM   33  C   UNL     1      -7.614   5.888  65.484  1.00  0.00    -0.084 C  
HETATM   34  C   UNL     1      -6.633   4.901  64.850  1.00  0.00    -0.043 C  
HETATM   35  O   UNL     1      -6.692   3.642  65.524  1.00  0.00    -0.046 OA 
HETATM   36  C   UNL     1      -7.999   3.077  65.466  1.00  0.00    -0.086 C  
HETATM   37  C   UNL     1      -8.023   1.766  66.239  1.00  0.00    -0.077 C  
HETATM   38  O   UNL     1      -8.950   3.927  66.098  1.00  0.00    -0.119 OA 
HETATM   39  C   UNL     1      -8.986   5.224  65.503  1.00  0.00    -0.155 C  
HETATM   40  C   UNL     1      -9.901   6.071  66.368  1.00  0.00    -0.110 C  
HETATM   41  O   UNL     1     -11.239   5.556  66.285  1.00  0.00    -0.746 OA 
HETATM   42  C   UNL     1      -9.883   7.548  65.969  1.00  0.00     0.299 C  
HETATM   43  H   UNL     1     -11.812   6.085  66.827  1.00  0.00     0.000 HD 
HETATM   44  O   UNL     1     -10.344   8.362  67.076  1.00  0.00    -0.277 OA 
HETATM   45  H   UNL     1     -11.183   8.026  67.370  1.00  0.00     0.000 HD 
ENDBRANCH  30  31
ENDBRANCH   8  30
TORSDOF 5
ENDMDL
MODEL       43
REMARK 921   NORMALIZED FREE ENERGY PREDICTED BY IDOCK:   -6.96 KCAL/MOL
REMARK 922        TOTAL FREE ENERGY PREDICTED BY IDOCK:  -10.23 KCAL/MOL
REMARK 923 INTER-LIGAND FREE ENERGY PREDICTED BY IDOCK:   -8.83 KCAL/MOL
REMARK 924 INTRA-LIGAND FREE ENERGY PREDICTED BY IDOCK:   -1.40 KCAL/MOL
REMARK 927      BINDING AFFINITY PREDICTED BY RF-SCORE:    0.00 PKD
ROOT
HETATM    1  C   UNL     1      -9.317   8.211  69.025  1.00  0.00    -0.147 C  
HETATM    2  C   UNL     1      -9.401   9.581  69.633  1.00  0.00    -0.200 C  
HETATM    3  O   UNL     1      -9.857   9.315  70.969  1.00  0.00    -0.273 OA 
HETATM    4  C   UNL     1     -10.520   8.113  71.003  1.00  0.00    -0.201 C  
HETATM    5  C   UNL     1     -10.491   7.482  69.642  1.00  0.00    -0.235 C  
HETATM    6  O   UNL     1     -11.145   7.713  71.971  1.00  0.00    -0.236 OA 
HETATM    7  C   UNL     1     -10.370   5.959  69.453  1.00  0.00    -0.313 C  
HETATM    8  C   UNL     1      -9.289   8.059  67.515  1.00  0.00    -0.147 C  
HETATM    9  C   UNL     1      -9.869   5.601  68.046  1.00  0.00    -0.162 A  
HETATM   10  C   UNL     1      -9.873   4.249  67.643  1.00  0.00    -0.150 A  
HETATM   11  O   UNL     1      -9.188   2.662  65.922  1.00  0.00    -0.134 OA 
HETATM   12  C   UNL     1      -9.316   3.919  66.425  1.00  0.00    -0.182 A  
HETATM   13  C   UNL     1      -9.350   6.587  67.148  1.00  0.00    -0.138 A  
HETATM   14  C   UNL     1      -8.782   4.869  65.588  1.00  0.00    -0.135 A  
HETATM   15  C   UNL     1      -8.427   2.924  64.725  1.00  0.00    -0.092 C  
HETATM   16  O   UNL     1      -8.235   4.330  64.467  1.00  0.00    -0.096 OA 
HETATM   17  C   UNL     1      -8.803   6.204  65.907  1.00  0.00    -0.151 A  
ENDROOT
BRANCH   7  18
HETATM   18  C   UNL     1      -9.575   5.307  70.584  1.00  0.00    -0.235 A  
HETATM   19  O   UNL     1      -7.699   4.255  74.164  1.00  0.00    -0.082 OA 
HETATM   20  C   UNL     1      -7.611   5.191  71.998  1.00  0.00    -0.097 A  
HETATM   21  C   UNL     1     -10.260   4.533  71.533  1.00  0.00    -0.195 A  
HETATM   22  H   UNL     1      -6.800   4.514  74.331  1.00  0.00     0.000 HD 
HETATM   23  C   UNL     1      -8.218   5.574  70.803  1.00  0.00    -0.117 A  
HETATM   24  C   UNL     1      -8.349   4.511  72.982  1.00  0.00    -0.099 A  
HETATM   25  C   UNL     1      -9.669   4.131  72.738  1.00  0.00    -0.136 A  
BRANCH  25  26
HETATM   26  O   UNL     1     -10.545   3.414  73.505  1.00  0.00    -0.161 OA 
HETATM   27  C   UNL     1     -10.940   2.110  73.138  1.00  0.00    -0.149 C  
ENDBRANCH  25  26
BRANCH  20  28
HETATM   28  O   UNL     1      -6.306   5.517  72.311  1.00  0.00    -0.044 OA 
HETATM   29  C   UNL     1      -5.361   5.417  71.251  1.00  0.00    -0.009 C  
ENDBRANCH  20  28
ENDBRANCH   7  18
BRANCH   8  30
HETATM   30  O   UNL     1     -10.107   8.891  66.721  1.00  0.00    -0.237 OA 
BRANCH  30  31
HETATM   31  C   UNL     1      -9.751  10.188  66.233  1.00  0.00    -0.218 C  
HETATM   32  O   UNL     1     -10.414  11.248  66.934  1.00  0.00    -0.224 OA 
HETATM   33  C   UNL     1     -10.314  12.506  66.247  1.00  0.00    -0.250 C  
HETATM   34  C   UNL     1     -10.864  13.688  67.047  1.00  0.00    -0.286 C  
HETATM   35  O   UNL     1     -10.845  14.876  66.252  1.00  0.00    -0.318 OA 
HETATM   36  C   UNL     1     -11.629  14.729  65.071  1.00  0.00    -0.378 C  
HETATM   37  C   UNL     1     -11.535  15.998  64.236  1.00  0.00    -0.162 C  
HETATM   38  O   UNL     1     -11.125  13.678  64.253  1.00  0.00    -0.375 OA 
HETATM   39  C   UNL     1     -11.100  12.429  64.944  1.00  0.00    -0.303 C  
HETATM   40  C   UNL     1     -10.392  11.445  64.031  1.00  0.00    -0.362 C  
HETATM   41  O   UNL     1     -11.188  11.236  62.854  1.00  0.00    -0.822 OA 
HETATM   42  C   UNL     1     -10.110  10.107  64.717  1.00  0.00    -0.180 C  
HETATM   43  H   UNL     1     -10.744  10.621  62.282  1.00  0.00     0.000 HD 
HETATM   44  O   UNL     1      -9.040   9.416  64.027  1.00  0.00    -0.393 OA 
HETATM   45  H   UNL     1      -9.258   9.366  63.103  1.00  0.00     0.000 HD 
ENDBRANCH  30  31
ENDBRANCH   8  30
TORSDOF 5
ENDMDL
MODEL       44
REMARK 921   NORMALIZED FREE ENERGY PREDICTED BY IDOCK:   -6.93 KCAL/MOL
REMARK 922        TOTAL FREE ENERGY PREDICTED BY IDOCK:  -10.19 KCAL/MOL
REMARK 923 INTER-LIGAND FREE ENERGY PREDICTED BY IDOCK:   -8.54 KCAL/MOL
REMARK 924 INTRA-LIGAND FREE ENERGY PREDICTED BY IDOCK:   -1.65 KCAL/MOL
REMARK 927      BINDING AFFINITY PREDICTED BY RF-SCORE:    0.00 PKD
ROOT
HETATM    1  C   UNL     1      -7.182  10.594  68.266  1.00  0.00    -0.083 C  
HETATM    2  C   UNL     1      -5.852  10.329  68.910  1.00  0.00    -0.041 C  
HETATM    3  O   UNL     1      -6.202   9.561  70.072  1.00  0.00    -0.044 OA 
HETATM    4  C   UNL     1      -7.503   9.823  70.428  1.00  0.00    -0.149 C  
HETATM    5  C   UNL     1      -8.112  10.780  69.445  1.00  0.00    -0.053 C  
HETATM    6  O   UNL     1      -8.013   9.430  71.464  1.00  0.00    -0.298 OA 
HETATM    7  C   UNL     1      -9.588  10.683  69.021  1.00  0.00    -0.207 C  
HETATM    8  C   UNL     1      -7.319  11.718  67.257  1.00  0.00    -0.141 C  
HETATM    9  C   UNL     1      -9.844  11.409  67.692  1.00  0.00    -0.189 A  
HETATM   10  C   UNL     1     -11.173  11.573  67.248  1.00  0.00    -0.365 A  
HETATM   11  O   UNL     1     -12.604  12.289  65.407  1.00  0.00    -0.572 OA 
HETATM   12  C   UNL     1     -11.392  12.121  66.001  1.00  0.00    -0.358 A  
HETATM   13  C   UNL     1      -8.776  11.879  66.862  1.00  0.00    -0.191 A  
HETATM   14  C   UNL     1     -10.358  12.530  65.194  1.00  0.00    -0.289 A  
HETATM   15  C   UNL     1     -12.204  12.756  64.103  1.00  0.00    -0.429 C  
HETATM   16  O   UNL     1     -10.786  12.987  63.988  1.00  0.00    -0.400 OA 
HETATM   17  C   UNL     1      -9.049  12.444  65.601  1.00  0.00     0.250 A  
ENDROOT
BRANCH   7  18
HETATM   18  C   UNL     1     -10.095   9.241  69.054  1.00  0.00    -0.207 A  
HETATM   19  O   UNL     1     -10.828   5.196  69.794  1.00  0.00    -0.141 OA 
HETATM   20  C   UNL     1      -9.859   6.901  68.477  1.00  0.00    -0.144 A  
HETATM   21  C   UNL     1     -10.999   8.866  70.059  1.00  0.00    -0.217 A  
HETATM   22  H   UNL     1     -10.407   4.527  69.268  1.00  0.00     0.000 HD 
HETATM   23  C   UNL     1      -9.579   8.242  68.220  1.00  0.00    -0.158 A  
HETATM   24  C   UNL     1     -10.681   6.542  69.559  1.00  0.00    -0.270 A  
HETATM   25  C   UNL     1     -11.301   7.525  70.331  1.00  0.00    -0.233 A  
BRANCH  25  26
HETATM   26  O   UNL     1     -12.183   7.416  71.371  1.00  0.00    -0.311 OA 
HETATM   27  C   UNL     1     -12.864   8.544  71.872  1.00  0.00    -0.363 C  
ENDBRANCH  25  26
BRANCH  20  28
HETATM   28  O   UNL     1      -9.297   5.869  67.752  1.00  0.00    -0.109 OA 
HETATM   29  C   UNL     1      -9.758   5.714  66.414  1.00  0.00    -0.156 C  
ENDBRANCH  20  28
ENDBRANCH   7  18
BRANCH   8  30
HETATM   30  O   UNL     1      -6.641  12.936  67.482  1.00  0.00    -0.145 OA 
BRANCH  30  31
HETATM   31  C   UNL     1      -7.254  14.175  67.853  1.00  0.00    -0.158 C  
HETATM   32  O   UNL     1      -7.227  15.147  66.801  1.00  0.00    -0.055 OA 
HETATM   33  C   UNL     1      -7.539  16.469  67.268  1.00  0.00    -0.161 C  
HETATM   34  C   UNL     1      -7.683  17.500  66.146  1.00  0.00    -0.268 C  
HETATM   35  O   UNL     1      -7.867  18.807  66.694  1.00  0.00    -0.244 OA 
HETATM   36  C   UNL     1      -6.769  19.189  67.518  1.00  0.00    -0.199 C  
HETATM   37  C   UNL     1      -7.035  20.563  68.118  1.00  0.00    -0.258 C  
HETATM   38  O   UNL     1      -6.622  18.298  68.618  1.00  0.00    -0.213 OA 
HETATM   39  C   UNL     1      -6.426  16.950  68.191  1.00  0.00    -0.145 C  
HETATM   40  C   UNL     1      -6.457  16.092  69.442  1.00  0.00    -0.176 C  
HETATM   41  O   UNL     1      -5.328  16.419  70.268  1.00  0.00    -0.167 OA 
HETATM   42  C   UNL     1      -6.459  14.595  69.127  1.00  0.00    -0.110 C  
HETATM   43  H   UNL     1      -5.347  15.883  71.051  1.00  0.00     0.000 HD 
HETATM   44  O   UNL     1      -6.978  13.854  70.259  1.00  0.00    -0.370 OA 
HETATM   45  H   UNL     1      -6.493  14.110  71.036  1.00  0.00     0.000 HD 
ENDBRANCH  30  31
ENDBRANCH   8  30
TORSDOF 5
ENDMDL
MODEL       45
REMARK 921   NORMALIZED FREE ENERGY PREDICTED BY IDOCK:   -6.92 KCAL/MOL
REMARK 922        TOTAL FREE ENERGY PREDICTED BY IDOCK:  -10.17 KCAL/MOL
REMARK 923 INTER-LIGAND FREE ENERGY PREDICTED BY IDOCK:   -9.12 KCAL/MOL
REMARK 924 INTRA-LIGAND FREE ENERGY PREDICTED BY IDOCK:   -1.05 KCAL/MOL
REMARK 927      BINDING AFFINITY PREDICTED BY RF-SCORE:    0.00 PKD
ROOT
HETATM    1  C   UNL     1     -11.071  14.896  68.983  1.00  0.00    -0.260 C  
HETATM    2  C   UNL     1     -11.088  15.290  70.431  1.00  0.00    -0.298 C  
HETATM    3  O   UNL     1      -9.879  16.053  70.574  1.00  0.00     0.442 OA 
HETATM    4  C   UNL     1      -8.982  15.688  69.599  1.00  0.00    -0.136 C  
HETATM    5  C   UNL     1      -9.603  14.658  68.702  1.00  0.00    -0.219 C  
HETATM    6  O   UNL     1      -7.821  16.060  69.577  1.00  0.00    -0.216 OA 
HETATM    7  C   UNL     1      -9.317  14.617  67.190  1.00  0.00    -0.231 C  
HETATM    8  C   UNL     1     -11.930  13.740  68.507  1.00  0.00    -0.367 C  
HETATM    9  C   UNL     1     -10.403  13.839  66.430  1.00  0.00    -0.290 A  
HETATM   10  C   UNL     1     -10.205  13.549  65.064  1.00  0.00    -0.345 A  
HETATM   11  O   UNL     1     -11.219  12.667  63.028  1.00  0.00    -0.208 OA 
HETATM   12  C   UNL     1     -11.230  12.955  64.358  1.00  0.00    -0.351 A  
HETATM   13  C   UNL     1     -11.631  13.444  67.049  1.00  0.00    -0.396 A  
HETATM   14  C   UNL     1     -12.422  12.617  64.951  1.00  0.00    -0.494 A  
HETATM   15  C   UNL     1     -12.572  12.205  62.840  1.00  0.00     0.326 C  
HETATM   16  O   UNL     1     -13.316  12.096  64.070  1.00  0.00    -0.706 OA 
HETATM   17  C   UNL     1     -12.645  12.827  66.290  1.00  0.00     0.361 A  
ENDROOT
BRANCH   7  18
HETATM   18  C   UNL     1      -9.035  16.009  66.626  1.00  0.00    -0.293 A  
HETATM   19  O   UNL     1      -8.044  20.012  65.965  1.00  0.00    -0.429 OA 
HETATM   20  C   UNL     1      -9.663  18.324  66.291  1.00  0.00    -0.291 A  
HETATM   21  C   UNL     1      -7.710  16.363  66.332  1.00  0.00    -0.249 A  
HETATM   22  H   UNL     1      -8.715  20.684  65.986  1.00  0.00     0.000 HD 
HETATM   23  C   UNL     1     -10.020  16.999  66.535  1.00  0.00    -0.318 A  
HETATM   24  C   UNL     1      -8.314  18.673  66.108  1.00  0.00    -0.151 A  
HETATM   25  C   UNL     1      -7.328  17.686  66.077  1.00  0.00    -0.266 A  
BRANCH  25  26
HETATM   26  O   UNL     1      -5.983  17.779  65.847  1.00  0.00    -0.195 OA 
HETATM   27  C   UNL     1      -5.478  18.508  64.750  1.00  0.00    -0.156 C  
ENDBRANCH  25  26
BRANCH  20  28
HETATM   28  O   UNL     1     -10.580  19.357  66.292  1.00  0.00    -0.454 OA 
HETATM   29  C   UNL     1     -11.026  19.802  67.569  1.00  0.00    -0.157 C  
ENDBRANCH  20  28
ENDBRANCH   7  18
BRANCH   8  30
HETATM   30  O   UNL     1     -12.056  12.591  69.319  1.00  0.00    -0.256 OA 
BRANCH  30  31
HETATM   31  C   UNL     1     -10.991  11.706  69.680  1.00  0.00    -0.032 C  
HETATM   32  O   UNL     1     -10.082  11.459  68.599  1.00  0.00    -0.203 OA 
HETATM   33  C   UNL     1      -9.218  10.340  68.855  1.00  0.00    -0.175 C  
HETATM   34  C   UNL     1      -8.127  10.151  67.799  1.00  0.00    -0.109 C  
HETATM   35  O   UNL     1      -7.393   8.952  68.054  1.00  0.00    -0.082 OA 
HETATM   36  C   UNL     1      -8.239   7.806  68.034  1.00  0.00    -0.123 C  
HETATM   37  C   UNL     1      -7.422   6.563  68.360  1.00  0.00    -0.088 C  
HETATM   38  O   UNL     1      -9.242   7.895  69.040  1.00  0.00    -0.148 OA 
HETATM   39  C   UNL     1     -10.050   9.063  68.887  1.00  0.00    -0.196 C  
HETATM   40  C   UNL     1     -10.953   9.127  70.105  1.00  0.00    -0.239 C  
HETATM   41  O   UNL     1     -11.856   8.009  70.082  1.00  0.00    -0.470 OA 
HETATM   42  C   UNL     1     -11.742  10.435  70.182  1.00  0.00    -0.312 C  
HETATM   43  H   UNL     1     -12.420   8.048  70.845  1.00  0.00     0.000 HD 
HETATM   44  O   UNL     1     -12.179  10.666  71.544  1.00  0.00    -0.335 OA 
HETATM   45  H   UNL     1     -12.637   9.891  71.850  1.00  0.00     0.000 HD 
ENDBRANCH  30  31
ENDBRANCH   8  30
TORSDOF 5
ENDMDL
MODEL       46
REMARK 921   NORMALIZED FREE ENERGY PREDICTED BY IDOCK:   -6.83 KCAL/MOL
REMARK 922        TOTAL FREE ENERGY PREDICTED BY IDOCK:  -10.06 KCAL/MOL
REMARK 923 INTER-LIGAND FREE ENERGY PREDICTED BY IDOCK:   -8.64 KCAL/MOL
REMARK 924 INTRA-LIGAND FREE ENERGY PREDICTED BY IDOCK:   -1.42 KCAL/MOL
REMARK 927      BINDING AFFINITY PREDICTED BY RF-SCORE:    0.00 PKD
ROOT
HETATM    1  C   UNL     1      -7.803  13.668  68.414  1.00  0.00    -0.140 C  
HETATM    2  C   UNL     1      -6.722  13.492  69.440  1.00  0.00    -0.051 C  
HETATM    3  O   UNL     1      -6.267  14.837  69.665  1.00  0.00    -0.113 OA 
HETATM    4  C   UNL     1      -6.553  15.613  68.568  1.00  0.00    -0.114 C  
HETATM    5  C   UNL     1      -7.283  14.792  67.545  1.00  0.00    -0.222 C  
HETATM    6  O   UNL     1      -6.142  16.752  68.421  1.00  0.00    -0.129 OA 
HETATM    7  C   UNL     1      -8.398  15.389  66.667  1.00  0.00    -0.255 C  
HETATM    8  C   UNL     1      -8.255  12.479  67.586  1.00  0.00    -0.172 C  
HETATM    9  C   UNL     1      -9.305  14.295  66.084  1.00  0.00    -0.191 A  
HETATM   10  C   UNL     1     -10.265  14.650  65.113  1.00  0.00    -0.414 A  
HETATM   11  O   UNL     1     -12.171  13.886  63.797  1.00  0.00    -0.588 OA 
HETATM   12  C   UNL     1     -11.153  13.689  64.678  1.00  0.00    -0.381 A  
HETATM   13  C   UNL     1      -9.243  12.936  66.529  1.00  0.00    -0.186 A  
HETATM   14  C   UNL     1     -11.113  12.397  65.143  1.00  0.00    -0.309 A  
HETATM   15  C   UNL     1     -12.820  12.599  63.840  1.00  0.00    -0.142 C  
HETATM   16  O   UNL     1     -12.108  11.626  64.631  1.00  0.00    -0.091 OA 
HETATM   17  C   UNL     1     -10.164  11.985  66.046  1.00  0.00    -0.256 A  
ENDROOT
BRANCH   7  18
HETATM   18  C   UNL     1      -9.151  16.507  67.387  1.00  0.00    -0.210 A  
HETATM   19  O   UNL     1     -10.410  19.665  69.814  1.00  0.00    -0.544 OA 
HETATM   20  C   UNL     1     -10.339  17.357  69.319  1.00  0.00    -0.212 A  
HETATM   21  C   UNL     1      -8.950  17.832  66.972  1.00  0.00    -0.258 A  
HETATM   22  H   UNL     1     -10.856  19.493  70.634  1.00  0.00     0.000 HD 
HETATM   23  C   UNL     1      -9.912  16.283  68.540  1.00  0.00    -0.234 A  
HETATM   24  C   UNL     1     -10.031  18.675  68.941  1.00  0.00    -0.354 A  
HETATM   25  C   UNL     1      -9.376  18.928  67.735  1.00  0.00    -0.293 A  
BRANCH  25  26
HETATM   26  O   UNL     1      -9.039  20.111  67.136  1.00  0.00    -0.343 OA 
HETATM   27  C   UNL     1      -7.778  20.705  67.352  1.00  0.00    -0.311 C  
ENDBRANCH  25  26
BRANCH  20  28
HETATM   28  O   UNL     1     -11.004  17.192  70.518  1.00  0.00     0.212 OA 
HETATM   29  C   UNL     1     -11.744  15.984  70.667  1.00  0.00    -0.350 C  
ENDBRANCH  20  28
ENDBRANCH   7  18
BRANCH   8  30
HETATM   30  O   UNL     1      -7.294  11.554  67.123  1.00  0.00    -0.122 OA 
BRANCH  30  31
HETATM   31  C   UNL     1      -7.296  10.148  67.389  1.00  0.00    -0.089 C  
HETATM   32  O   UNL     1      -7.415   9.356  66.200  1.00  0.00    -0.094 OA 
HETATM   33  C   UNL     1      -7.740   7.986  66.485  1.00  0.00    -0.093 C  
HETATM   34  C   UNL     1      -7.711   7.079  65.253  1.00  0.00    -0.114 C  
HETATM   35  O   UNL     1      -8.166   5.767  65.593  1.00  0.00    -0.116 OA 
HETATM   36  C   UNL     1      -9.496   5.789  66.103  1.00  0.00    -0.124 C  
HETATM   37  C   UNL     1      -9.914   4.379  66.498  1.00  0.00    -0.245 C  
HETATM   38  O   UNL     1      -9.574   6.572  67.290  1.00  0.00    -0.121 OA 
HETATM   39  C   UNL     1      -9.145   7.916  67.072  1.00  0.00    -0.137 C  
HETATM   40  C   UNL     1      -9.113   8.585  68.433  1.00  0.00    -0.139 C  
HETATM   41  O   UNL     1     -10.451   8.670  68.949  1.00  0.00    -0.215 OA 
HETATM   42  C   UNL     1      -8.481   9.978  68.388  1.00  0.00    -0.112 C  
HETATM   43  H   UNL     1     -10.432   9.089  69.802  1.00  0.00     0.000 HD 
HETATM   44  O   UNL     1      -8.026  10.355  69.711  1.00  0.00    -0.272 OA 
HETATM   45  H   UNL     1      -8.748  10.251  70.320  1.00  0.00     0.000 HD 
ENDBRANCH  30  31
ENDBRANCH   8  30
TORSDOF 5
ENDMDL
MODEL       47
REMARK 921   NORMALIZED FREE ENERGY PREDICTED BY IDOCK:   -6.82 KCAL/MOL
REMARK 922        TOTAL FREE ENERGY PREDICTED BY IDOCK:  -10.04 KCAL/MOL
REMARK 923 INTER-LIGAND FREE ENERGY PREDICTED BY IDOCK:   -9.17 KCAL/MOL
REMARK 924 INTRA-LIGAND FREE ENERGY PREDICTED BY IDOCK:   -0.88 KCAL/MOL
REMARK 927      BINDING AFFINITY PREDICTED BY RF-SCORE:    0.00 PKD
ROOT
HETATM    1  C   UNL     1      -9.706  11.659  65.068  1.00  0.00    -0.237 C  
HETATM    2  C   UNL     1     -10.461  11.629  63.771  1.00  0.00    -0.402 C  
HETATM    3  O   UNL     1     -11.562  12.519  64.017  1.00  0.00    -0.348 OA 
HETATM    4  C   UNL     1     -11.803  12.598  65.367  1.00  0.00    -0.427 C  
HETATM    5  C   UNL     1     -10.799  11.765  66.108  1.00  0.00    -0.336 C  
HETATM    6  O   UNL     1     -12.775  13.157  65.848  1.00  0.00    -0.421 OA 
HETATM    7  C   UNL     1     -10.237  12.194  67.476  1.00  0.00    -0.209 C  
HETATM    8  C   UNL     1      -8.724  10.549  65.393  1.00  0.00    -0.183 C  
HETATM    9  C   UNL     1      -8.913  11.482  67.791  1.00  0.00    -0.160 A  
HETATM   10  C   UNL     1      -8.353  11.619  69.079  1.00  0.00     0.134 A  
HETATM   11  O   UNL     1      -6.411  11.174  70.485  1.00  0.00    -0.306 OA 
HETATM   12  C   UNL     1      -7.109  11.076  69.322  1.00  0.00    -0.123 A  
HETATM   13  C   UNL     1      -8.201  10.725  66.807  1.00  0.00    -0.135 A  
HETATM   14  C   UNL     1      -6.415  10.387  68.357  1.00  0.00    -0.055 A  
HETATM   15  C   UNL     1      -5.165  10.555  70.106  1.00  0.00    -0.043 C  
HETATM   16  O   UNL     1      -5.189   9.983  68.783  1.00  0.00    -0.036 OA 
HETATM   17  C   UNL     1      -6.938  10.176  67.105  1.00  0.00    -0.087 A  
ENDROOT
BRANCH   7  18
HETATM   18  C   UNL     1     -10.178  13.714  67.615  1.00  0.00    -0.239 A  
HETATM   19  O   UNL     1     -10.768  17.846  67.454  1.00  0.00    -0.370 OA 
HETATM   20  C   UNL     1      -9.642  15.902  66.724  1.00  0.00    -0.236 A  
HETATM   21  C   UNL     1     -11.011  14.340  68.554  1.00  0.00    -0.267 A  
HETATM   22  H   UNL     1     -10.320  18.371  66.801  1.00  0.00     0.000 HD 
HETATM   23  C   UNL     1      -9.441  14.523  66.741  1.00  0.00    -0.284 A  
HETATM   24  C   UNL     1     -10.566  16.496  67.602  1.00  0.00    -0.321 A  
HETATM   25  C   UNL     1     -11.223  15.725  68.562  1.00  0.00    -0.354 A  
BRANCH  25  26
HETATM   26  O   UNL     1     -12.096  16.088  69.550  1.00  0.00    -0.284 OA 
HETATM   27  C   UNL     1     -12.606  15.138  70.459  1.00  0.00    -0.380 C  
ENDBRANCH  25  26
BRANCH  20  28
HETATM   28  O   UNL     1      -9.021  16.736  65.816  1.00  0.00    -0.508 OA 
HETATM   29  C   UNL     1      -7.680  17.108  66.116  1.00  0.00    -0.267 C  
ENDBRANCH  20  28
ENDBRANCH   7  18
BRANCH   8  30
HETATM   30  O   UNL     1      -9.049   9.218  65.054  1.00  0.00    -0.217 OA 
BRANCH  30  31
HETATM   31  C   UNL     1      -9.713   8.280  65.907  1.00  0.00     0.089 C  
HETATM   32  O   UNL     1     -10.032   8.825  67.193  1.00  0.00    -0.189 OA 
HETATM   33  C   UNL     1     -10.395   7.811  68.144  1.00  0.00    -0.200 C  
HETATM   34  C   UNL     1     -10.901   8.369  69.475  1.00  0.00    -0.117 C  
HETATM   35  O   UNL     1     -11.121   7.308  70.406  1.00  0.00    -0.257 OA 
HETATM   36  C   UNL     1      -9.926   6.572  70.653  1.00  0.00    -0.184 C  
HETATM   37  C   UNL     1     -10.222   5.424  71.609  1.00  0.00    -0.268 C  
HETATM   38  O   UNL     1      -9.438   5.975  69.456  1.00  0.00    -0.137 OA 
HETATM   39  C   UNL     1      -9.176   6.947  68.443  1.00  0.00    -0.124 C  
HETATM   40  C   UNL     1      -8.833   6.175  67.183  1.00  0.00    -0.108 C  
HETATM   41  O   UNL     1      -7.601   5.464  67.385  1.00  0.00    -0.086 OA 
HETATM   42  C   UNL     1      -8.720   7.079  65.954  1.00  0.00    -0.126 C  
HETATM   43  H   UNL     1      -7.386   4.980  66.596  1.00  0.00     0.000 HD 
HETATM   44  O   UNL     1      -8.889   6.293  64.748  1.00  0.00    -0.358 OA 
HETATM   45  H   UNL     1      -8.284   5.561  64.777  1.00  0.00     0.000 HD 
ENDBRANCH  30  31
ENDBRANCH   8  30
TORSDOF 5
ENDMDL
MODEL       48
REMARK 921   NORMALIZED FREE ENERGY PREDICTED BY IDOCK:   -6.79 KCAL/MOL
REMARK 922        TOTAL FREE ENERGY PREDICTED BY IDOCK:  -10.00 KCAL/MOL
REMARK 923 INTER-LIGAND FREE ENERGY PREDICTED BY IDOCK:   -9.09 KCAL/MOL
REMARK 924 INTRA-LIGAND FREE ENERGY PREDICTED BY IDOCK:   -0.92 KCAL/MOL
REMARK 927      BINDING AFFINITY PREDICTED BY RF-SCORE:    0.00 PKD
ROOT
HETATM    1  C   UNL     1     -10.404  11.427  68.595  1.00  0.00    -0.219 C  
HETATM    2  C   UNL     1     -11.072  12.580  69.286  1.00  0.00    -0.142 C  
HETATM    3  O   UNL     1     -11.835  11.939  70.322  1.00  0.00    -0.331 OA 
HETATM    4  C   UNL     1     -12.095  10.638  69.968  1.00  0.00    -0.316 C  
HETATM    5  C   UNL     1     -11.448  10.334  68.649  1.00  0.00    -0.178 C  
HETATM    6  O   UNL     1     -12.854   9.909  70.586  1.00  0.00    -0.248 OA 
HETATM    7  C   UNL     1     -10.838   8.955  68.340  1.00  0.00    -0.043 C  
HETATM    8  C   UNL     1      -9.850  11.609  67.195  1.00  0.00    -0.188 C  
HETATM    9  C   UNL     1      -9.830   9.029  67.183  1.00  0.00    -0.262 A  
HETATM   10  C   UNL     1      -9.312   7.829  66.650  1.00  0.00    -0.238 A  
HETATM   11  O   UNL     1      -7.682   6.845  65.127  1.00  0.00    -0.094 OA 
HETATM   12  C   UNL     1      -8.323   7.903  65.692  1.00  0.00    -0.142 A  
HETATM   13  C   UNL     1      -9.360  10.276  66.660  1.00  0.00    -0.192 A  
HETATM   14  C   UNL     1      -7.848   9.105  65.227  1.00  0.00    -0.105 A  
HETATM   15  C   UNL     1      -6.688   7.523  64.332  1.00  0.00    -0.048 C  
HETATM   16  O   UNL     1      -6.839   8.957  64.329  1.00  0.00    -0.081 OA 
HETATM   17  C   UNL     1      -8.357  10.301  65.671  1.00  0.00    -0.159 A  
ENDROOT
BRANCH   7  18
HETATM   18  C   UNL     1     -10.295   8.279  69.599  1.00  0.00    -0.218 A  
HETATM   19  O   UNL     1      -8.127   6.162  72.474  1.00  0.00    -0.104 OA 
HETATM   20  C   UNL     1      -9.921   6.299  70.945  1.00  0.00    -0.186 A  
HETATM   21  C   UNL     1      -9.289   8.924  70.332  1.00  0.00    -0.223 A  
HETATM   22  H   UNL     1      -8.327   5.252  72.654  1.00  0.00     0.000 HD 
HETATM   23  C   UNL     1     -10.648   6.974  69.965  1.00  0.00    -0.251 A  
HETATM   24  C   UNL     1      -8.844   6.931  71.590  1.00  0.00    -0.128 A  
HETATM   25  C   UNL     1      -8.549   8.269  71.326  1.00  0.00    -0.147 A  
BRANCH  25  26
HETATM   26  O   UNL     1      -7.610   9.098  71.874  1.00  0.00    -0.340 OA 
HETATM   27  C   UNL     1      -6.265   9.059  71.450  1.00  0.00    -0.071 C  
ENDBRANCH  25  26
BRANCH  20  28
HETATM   28  O   UNL     1     -10.159   4.979  71.274  1.00  0.00    -0.190 OA 
HETATM   29  C   UNL     1      -9.826   4.013  70.283  1.00  0.00    -0.134 C  
ENDBRANCH  20  28
ENDBRANCH   7  18
BRANCH   8  30
HETATM   30  O   UNL     1     -10.573  12.380  66.259  1.00  0.00    -0.242 OA 
BRANCH  30  31
HETATM   31  C   UNL     1     -10.448  13.793  66.069  1.00  0.00    -0.297 C  
HETATM   32  O   UNL     1      -9.127  14.277  66.343  1.00  0.00    -0.235 OA 
HETATM   33  C   UNL     1      -9.082  15.707  66.469  1.00  0.00    -0.303 C  
HETATM   34  C   UNL     1      -7.665  16.269  66.595  1.00  0.00    -0.251 C  
HETATM   35  O   UNL     1      -7.710  17.676  66.841  1.00  0.00    -0.195 OA 
HETATM   36  C   UNL     1      -8.420  17.975  68.040  1.00  0.00    -0.261 C  
HETATM   37  C   UNL     1      -8.485  19.485  68.232  1.00  0.00    -0.376 C  
HETATM   38  O   UNL     1      -9.769  17.529  67.959  1.00  0.00    -0.268 OA 
HETATM   39  C   UNL     1      -9.853  16.124  67.716  1.00  0.00    -0.232 C  
HETATM   40  C   UNL     1     -11.320  15.813  67.481  1.00  0.00    -0.150 C  
HETATM   41  O   UNL     1     -12.053  16.055  68.693  1.00  0.00    -0.433 OA 
HETATM   42  C   UNL     1     -11.546  14.375  67.011  1.00  0.00    -0.384 C  
HETATM   43  H   UNL     1     -12.971  15.861  68.547  1.00  0.00     0.000 HD 
HETATM   44  O   UNL     1     -12.828  14.272  66.343  1.00  0.00    -0.479 OA 
HETATM   45  H   UNL     1     -13.497  14.627  66.917  1.00  0.00     0.000 HD 
ENDBRANCH  30  31
ENDBRANCH   8  30
TORSDOF 5
ENDMDL
MODEL       49
REMARK 921   NORMALIZED FREE ENERGY PREDICTED BY IDOCK:   -6.77 KCAL/MOL
REMARK 922        TOTAL FREE ENERGY PREDICTED BY IDOCK:   -9.98 KCAL/MOL
REMARK 923 INTER-LIGAND FREE ENERGY PREDICTED BY IDOCK:   -8.80 KCAL/MOL
REMARK 924 INTRA-LIGAND FREE ENERGY PREDICTED BY IDOCK:   -1.18 KCAL/MOL
REMARK 927      BINDING AFFINITY PREDICTED BY RF-SCORE:    0.00 PKD
ROOT
HETATM    1  C   UNL     1      -7.571  13.434  68.588  1.00  0.00    -0.101 C  
HETATM    2  C   UNL     1      -6.456  13.094  69.534  1.00  0.00    -0.074 C  
HETATM    3  O   UNL     1      -5.776  14.349  69.697  1.00  0.00    -0.093 OA 
HETATM    4  C   UNL     1      -6.018  15.153  68.610  1.00  0.00    -0.087 C  
HETATM    5  C   UNL     1      -6.946  14.454  67.661  1.00  0.00    -0.203 C  
HETATM    6  O   UNL     1      -5.443  16.210  68.410  1.00  0.00    -0.096 OA 
HETATM    7  C   UNL     1      -8.016  15.215  66.858  1.00  0.00    -0.155 C  
HETATM    8  C   UNL     1      -8.269  12.327  67.820  1.00  0.00    -0.161 C  
HETATM    9  C   UNL     1      -9.128  14.277  66.366  1.00  0.00    -0.171 A  
HETATM   10  C   UNL     1     -10.091  14.775  65.463  1.00  0.00    -0.409 A  
HETATM   11  O   UNL     1     -12.191  14.318  64.309  1.00  0.00    -0.521 OA 
HETATM   12  C   UNL     1     -11.153  13.966  65.115  1.00  0.00    -0.334 A  
HETATM   13  C   UNL     1      -9.250  12.929  66.831  1.00  0.00    -0.234 A  
HETATM   14  C   UNL     1     -11.284  12.688  65.600  1.00  0.00    -0.309 A  
HETATM   15  C   UNL     1     -13.032  13.152  64.426  1.00  0.00     0.109 C  
HETATM   16  O   UNL     1     -12.426  12.083  65.180  1.00  0.00    -0.425 OA 
HETATM   17  C   UNL     1     -10.346  12.135  66.437  1.00  0.00    -0.246 A  
ENDROOT
BRANCH   7  18
HETATM   18  C   UNL     1      -8.522  16.445  67.610  1.00  0.00    -0.178 A  
HETATM   19  O   UNL     1     -10.652  19.705  69.121  1.00  0.00    -0.467 OA 
HETATM   20  C   UNL     1      -8.966  18.824  67.721  1.00  0.00    -0.286 A  
HETATM   21  C   UNL     1      -9.415  16.265  68.677  1.00  0.00    -0.228 A  
HETATM   22  H   UNL     1     -10.518  20.575  68.765  1.00  0.00     0.000 HD 
HETATM   23  C   UNL     1      -8.256  17.753  67.183  1.00  0.00    -0.233 A  
HETATM   24  C   UNL     1      -9.937  18.606  68.714  1.00  0.00    -0.383 A  
HETATM   25  C   UNL     1     -10.134  17.327  69.238  1.00  0.00    -0.179 A  
BRANCH  25  26
HETATM   26  O   UNL     1     -10.958  16.895  70.241  1.00  0.00    -0.133 OA 
HETATM   27  C   UNL     1     -11.284  15.529  70.379  1.00  0.00    -0.337 C  
ENDBRANCH  25  26
BRANCH  20  28
HETATM   28  O   UNL     1      -8.820  20.120  67.267  1.00  0.00    -0.330 OA 
HETATM   29  C   UNL     1      -7.493  20.638  67.259  1.00  0.00    -0.347 C  
ENDBRANCH  20  28
ENDBRANCH   7  18
BRANCH   8  30
HETATM   30  O   UNL     1      -7.507  11.256  67.304  1.00  0.00    -0.112 OA 
BRANCH  30  31
HETATM   31  C   UNL     1      -7.492   9.921  67.819  1.00  0.00    -0.090 C  
HETATM   32  O   UNL     1      -7.256   8.936  66.804  1.00  0.00    -0.080 OA 
HETATM   33  C   UNL     1      -7.560   7.605  67.252  1.00  0.00    -0.108 C  
HETATM   34  C   UNL     1      -7.162   6.515  66.254  1.00  0.00    -0.072 C  
HETATM   35  O   UNL     1      -7.608   5.237  66.712  1.00  0.00    -0.086 OA 
HETATM   36  C   UNL     1      -9.023   5.203  66.874  1.00  0.00    -0.109 C  
HETATM   37  C   UNL     1      -9.443   3.842  67.410  1.00  0.00    -0.239 C  
HETATM   38  O   UNL     1      -9.450   6.158  67.840  1.00  0.00    -0.117 OA 
HETATM   39  C   UNL     1      -9.061   7.486  67.485  1.00  0.00    -0.125 C  
HETATM   40  C   UNL     1      -9.419   8.370  68.666  1.00  0.00    -0.147 C  
HETATM   41  O   UNL     1     -10.847   8.398  68.819  1.00  0.00    -0.418 OA 
HETATM   42  C   UNL     1      -8.881   9.794  68.516  1.00  0.00    -0.121 C  
HETATM   43  H   UNL     1     -11.072   8.950  69.557  1.00  0.00     0.000 HD 
HETATM   44  O   UNL     1      -8.804  10.430  69.816  1.00  0.00    -0.369 OA 
HETATM   45  H   UNL     1      -9.650  10.353  70.241  1.00  0.00     0.000 HD 
ENDBRANCH  30  31
ENDBRANCH   8  30
TORSDOF 5
ENDMDL
MODEL       50
REMARK 921   NORMALIZED FREE ENERGY PREDICTED BY IDOCK:   -6.75 KCAL/MOL
REMARK 922        TOTAL FREE ENERGY PREDICTED BY IDOCK:   -9.96 KCAL/MOL
REMARK 923 INTER-LIGAND FREE ENERGY PREDICTED BY IDOCK:   -8.89 KCAL/MOL
REMARK 924 INTRA-LIGAND FREE ENERGY PREDICTED BY IDOCK:   -1.07 KCAL/MOL
REMARK 927      BINDING AFFINITY PREDICTED BY RF-SCORE:    0.00 PKD
ROOT
HETATM    1  C   UNL     1      -7.194  11.197  68.028  1.00  0.00    -0.079 C  
HETATM    2  C   UNL     1      -5.870  11.149  68.733  1.00  0.00    -0.043 C  
HETATM    3  O   UNL     1      -6.090  10.183  69.773  1.00  0.00    -0.042 OA 
HETATM    4  C   UNL     1      -7.432  10.106  70.060  1.00  0.00    -0.162 C  
HETATM    5  C   UNL     1      -8.195  11.025  69.151  1.00  0.00    -0.052 C  
HETATM    6  O   UNL     1      -7.886   9.484  71.005  1.00  0.00    -0.316 OA 
HETATM    7  C   UNL     1      -9.590  10.662  68.611  1.00  0.00    -0.179 C  
HETATM    8  C   UNL     1      -7.535  12.383  67.146  1.00  0.00    -0.095 C  
HETATM    9  C   UNL     1      -9.942  11.477  67.358  1.00  0.00    -0.209 A  
HETATM   10  C   UNL     1     -11.252  11.402  66.840  1.00  0.00    -0.331 A  
HETATM   11  O   UNL     1     -12.722  12.016  64.992  1.00  0.00    -0.381 OA 
HETATM   12  C   UNL     1     -11.531  12.042  65.650  1.00  0.00    -0.316 A  
HETATM   13  C   UNL     1      -8.971  12.270  66.667  1.00  0.00    -0.189 A  
HETATM   14  C   UNL     1     -10.581  12.766  64.973  1.00  0.00    -0.308 A  
HETATM   15  C   UNL     1     -12.378  12.721  63.782  1.00  0.00    -0.446 C  
HETATM   16  O   UNL     1     -11.045  13.268  63.798  1.00  0.00    -0.320 OA 
HETATM   17  C   UNL     1      -9.306  12.917  65.461  1.00  0.00     0.250 A  
ENDROOT
BRANCH   7  18
HETATM   18  C   UNL     1      -9.760   9.152  68.444  1.00  0.00    -0.166 A  
HETATM   19  O   UNL     1     -10.934   5.271  67.440  1.00  0.00    -0.184 OA 
HETATM   20  C   UNL     1     -10.906   7.081  68.958  1.00  0.00    -0.182 A  
HETATM   21  C   UNL     1      -9.237   8.537  67.297  1.00  0.00    -0.168 A  
HETATM   22  H   UNL     1     -11.533   4.791  67.998  1.00  0.00     0.000 HD 
HETATM   23  C   UNL     1     -10.548   8.381  69.308  1.00  0.00    -0.193 A  
HETATM   24  C   UNL     1     -10.458   6.523  67.748  1.00  0.00    -0.227 A  
HETATM   25  C   UNL     1      -9.576   7.229  66.928  1.00  0.00    -0.174 A  
BRANCH  25  26
HETATM   26  O   UNL     1      -8.964   6.867  65.760  1.00  0.00    -0.118 OA 
HETATM   27  C   UNL     1      -7.564   6.705  65.690  1.00  0.00    -0.086 C  
ENDBRANCH  25  26
BRANCH  20  28
HETATM   28  O   UNL     1     -11.762   6.311  69.720  1.00  0.00    -0.403 OA 
HETATM   29  C   UNL     1     -11.803   6.606  71.112  1.00  0.00    -0.360 C  
ENDBRANCH  20  28
ENDBRANCH   7  18
BRANCH   8  30
HETATM   30  O   UNL     1      -7.160  13.681  67.556  1.00  0.00    -0.167 OA 
BRANCH  30  31
HETATM   31  C   UNL     1      -8.060  14.731  67.925  1.00  0.00    -0.141 C  
HETATM   32  O   UNL     1      -8.588  15.434  66.793  1.00  0.00    -0.233 OA 
HETATM   33  C   UNL     1      -9.220  16.670  67.162  1.00  0.00    -0.222 C  
HETATM   34  C   UNL     1      -9.940  17.362  66.003  1.00  0.00    -0.215 C  
HETATM   35  O   UNL     1     -10.432  18.639  66.417  1.00  0.00    -0.403 OA 
HETATM   36  C   UNL     1      -9.378  19.487  66.863  1.00  0.00    -0.346 C  
HETATM   37  C   UNL     1      -9.956  20.812  67.340  1.00  0.00    -0.355 C  
HETATM   38  O   UNL     1      -8.707  18.922  67.984  1.00  0.00    -0.284 OA 
HETATM   39  C   UNL     1      -8.164  17.635  67.688  1.00  0.00    -0.224 C  
HETATM   40  C   UNL     1      -7.636  17.077  68.996  1.00  0.00    -0.194 C  
HETATM   41  O   UNL     1      -6.533  17.884  69.443  1.00  0.00    -0.250 OA 
HETATM   42  C   UNL     1      -7.199  15.616  68.878  1.00  0.00    -0.146 C  
HETATM   43  H   UNL     1      -6.203  17.536  70.262  1.00  0.00     0.000 HD 
HETATM   44  O   UNL     1      -7.183  14.999  70.189  1.00  0.00    -0.237 OA 
HETATM   45  H   UNL     1      -6.659  15.539  70.770  1.00  0.00     0.000 HD 
ENDBRANCH  30  31
ENDBRANCH   8  30
TORSDOF 5
ENDMDL
MODEL       51
REMARK 921   NORMALIZED FREE ENERGY PREDICTED BY IDOCK:   -6.73 KCAL/MOL
REMARK 922        TOTAL FREE ENERGY PREDICTED BY IDOCK:   -9.93 KCAL/MOL
REMARK 923 INTER-LIGAND FREE ENERGY PREDICTED BY IDOCK:   -8.96 KCAL/MOL
REMARK 924 INTRA-LIGAND FREE ENERGY PREDICTED BY IDOCK:   -0.98 KCAL/MOL
REMARK 927      BINDING AFFINITY PREDICTED BY RF-SCORE:    0.00 PKD
ROOT
HETATM    1  C   UNL     1      -9.881  11.829  64.528  1.00  0.00    -0.228 C  
HETATM    2  C   UNL     1     -10.617  11.696  63.226  1.00  0.00    -0.356 C  
HETATM    3  O   UNL     1     -11.839  12.412  63.470  1.00  0.00    -0.461 OA 
HETATM    4  C   UNL     1     -12.096  12.446  64.819  1.00  0.00    -0.416 C  
HETATM    5  C   UNL     1     -10.984  11.765  65.562  1.00  0.00    -0.344 C  
HETATM    6  O   UNL     1     -13.142  12.851  65.297  1.00  0.00    -0.682 OA 
HETATM    7  C   UNL     1     -10.498  12.263  66.936  1.00  0.00    -0.240 C  
HETATM    8  C   UNL     1      -8.747  10.875  64.852  1.00  0.00    -0.067 C  
HETATM    9  C   UNL     1      -9.085  11.752  67.255  1.00  0.00    -0.171 A  
HETATM   10  C   UNL     1      -8.559  11.963  68.547  1.00  0.00    -0.110 A  
HETATM   11  O   UNL     1      -6.580  11.800  69.963  1.00  0.00    -0.084 OA 
HETATM   12  C   UNL     1      -7.249  11.608  68.795  1.00  0.00    -0.116 A  
HETATM   13  C   UNL     1      -8.264  11.116  66.271  1.00  0.00    -0.153 A  
HETATM   14  C   UNL     1      -6.456  11.035  67.830  1.00  0.00    -0.062 A  
HETATM   15  C   UNL     1      -5.253  11.375  69.588  1.00  0.00    -0.057 C  
HETATM   16  O   UNL     1      -5.186  10.815  68.261  1.00  0.00    -0.037 OA 
HETATM   17  C   UNL     1      -6.935  10.758  66.574  1.00  0.00    -0.130 A  
ENDROOT
BRANCH   7  18
HETATM   18  C   UNL     1     -10.666  13.774  67.084  1.00  0.00    -0.283 A  
HETATM   19  O   UNL     1     -10.433  17.818  68.105  1.00  0.00    -0.368 OA 
HETATM   20  C   UNL     1     -11.470  15.705  68.306  1.00  0.00    -0.350 A  
HETATM   21  C   UNL     1      -9.789  14.623  66.391  1.00  0.00    -0.302 A  
HETATM   22  H   UNL     1     -10.989  18.175  68.787  1.00  0.00     0.000 HD 
HETATM   23  C   UNL     1     -11.555  14.348  68.001  1.00  0.00    -0.357 A  
HETATM   24  C   UNL     1     -10.508  16.515  67.678  1.00  0.00    -0.305 A  
HETATM   25  C   UNL     1      -9.691  15.991  66.675  1.00  0.00    -0.244 A  
BRANCH  25  26
HETATM   26  O   UNL     1      -8.749  16.595  65.889  1.00  0.00    -0.483 OA 
HETATM   27  C   UNL     1      -7.613  17.212  66.454  1.00  0.00    -0.312 C  
ENDBRANCH  25  26
BRANCH  20  28
HETATM   28  O   UNL     1     -12.251  16.303  69.276  1.00  0.00    -0.054 OA 
HETATM   29  C   UNL     1     -12.809  15.437  70.258  1.00  0.00    -0.237 C  
ENDBRANCH  20  28
ENDBRANCH   7  18
BRANCH   8  30
HETATM   30  O   UNL     1      -8.870   9.512  64.504  1.00  0.00    -0.196 OA 
BRANCH  30  31
HETATM   31  C   UNL     1      -9.430   8.488  65.331  1.00  0.00     0.237 C  
HETATM   32  O   UNL     1      -9.869   8.978  66.605  1.00  0.00    -0.203 OA 
HETATM   33  C   UNL     1     -10.124   7.919  67.541  1.00  0.00    -0.213 C  
HETATM   34  C   UNL     1     -10.752   8.397  68.852  1.00  0.00    -0.068 C  
HETATM   35  O   UNL     1     -10.858   7.311  69.775  1.00  0.00    -0.239 OA 
HETATM   36  C   UNL     1      -9.583   6.745  70.067  1.00  0.00    -0.157 C  
HETATM   37  C   UNL     1      -9.753   5.563  71.012  1.00  0.00    -0.229 C  
HETATM   38  O   UNL     1      -8.973   6.227  68.890  1.00  0.00    -0.126 OA 
HETATM   39  C   UNL     1      -8.809   7.230  67.887  1.00  0.00    -0.128 C  
HETATM   40  C   UNL     1      -8.316   6.518  66.641  1.00  0.00    -0.113 C  
HETATM   41  O   UNL     1      -7.006   5.984  66.890  1.00  0.00    -0.065 OA 
HETATM   42  C   UNL     1      -8.283   7.435  65.417  1.00  0.00    -0.134 C  
HETATM   43  H   UNL     1      -6.697   5.538  66.111  1.00  0.00     0.000 HD 
HETATM   44  O   UNL     1      -8.297   6.639  64.206  1.00  0.00    -0.315 OA 
HETATM   45  H   UNL     1      -7.597   5.997  64.258  1.00  0.00     0.000 HD 
ENDBRANCH  30  31
ENDBRANCH   8  30
TORSDOF 5
ENDMDL
MODEL       52
REMARK 921   NORMALIZED FREE ENERGY PREDICTED BY IDOCK:   -6.72 KCAL/MOL
REMARK 922        TOTAL FREE ENERGY PREDICTED BY IDOCK:   -9.92 KCAL/MOL
REMARK 923 INTER-LIGAND FREE ENERGY PREDICTED BY IDOCK:   -9.50 KCAL/MOL
REMARK 924 INTRA-LIGAND FREE ENERGY PREDICTED BY IDOCK:   -0.42 KCAL/MOL
REMARK 927      BINDING AFFINITY PREDICTED BY RF-SCORE:    0.00 PKD
ROOT
HETATM    1  C   UNL     1      -9.474   8.719  68.076  1.00  0.00    -0.158 C  
HETATM    2  C   UNL     1      -8.626   7.548  68.480  1.00  0.00    -0.129 C  
HETATM    3  O   UNL     1      -8.729   7.553  69.913  1.00  0.00    -0.138 OA 
HETATM    4  C   UNL     1      -9.047   8.815  70.352  1.00  0.00    -0.176 C  
HETATM    5  C   UNL     1      -9.223   9.729  69.175  1.00  0.00    -0.177 C  
HETATM    6  O   UNL     1      -9.043   9.143  71.527  1.00  0.00    -0.309 OA 
HETATM    7  C   UNL     1     -10.280  10.848  69.165  1.00  0.00    -0.215 C  
HETATM    8  C   UNL     1      -9.305   9.331  66.699  1.00  0.00    -0.170 C  
HETATM    9  C   UNL     1     -10.608  11.302  67.734  1.00  0.00    -0.239 A  
HETATM   10  C   UNL     1     -11.420  12.441  67.549  1.00  0.00    -0.410 A  
HETATM   11  O   UNL     1     -12.634  13.803  65.930  1.00  0.00    -0.472 OA 
HETATM   12  C   UNL     1     -11.808  12.777  66.268  1.00  0.00    -0.423 A  
HETATM   13  C   UNL     1     -10.161  10.579  66.583  1.00  0.00    -0.275 A  
HETATM   14  C   UNL     1     -11.407  12.051  65.173  1.00  0.00    -0.304 A  
HETATM   15  C   UNL     1     -12.782  13.576  64.513  1.00  0.00    -0.107 C  
HETATM   16  O   UNL     1     -11.944  12.514  64.013  1.00  0.00    -0.383 OA 
HETATM   17  C   UNL     1     -10.572  10.967  65.293  1.00  0.00    -0.283 A  
ENDROOT
BRANCH   7  18
HETATM   18  C   UNL     1     -11.505  10.482  70.001  1.00  0.00    -0.393 A  
HETATM   19  O   UNL     1     -14.251   9.501  72.992  1.00  0.00    -0.807 OA 
HETATM   20  C   UNL     1     -12.828   8.859  71.219  1.00  0.00    -0.229 A  
HETATM   21  C   UNL     1     -12.179  11.498  70.694  1.00  0.00    -0.473 A  
HETATM   22  H   UNL     1     -14.443   8.592  73.189  1.00  0.00     0.000 HD 
HETATM   23  C   UNL     1     -11.892   9.156  70.230  1.00  0.00     0.032 A  
HETATM   24  C   UNL     1     -13.410   9.890  71.977  1.00  0.00    -0.432 A  
HETATM   25  C   UNL     1     -13.128  11.225  71.687  1.00  0.00    -0.408 A  
BRANCH  25  26
HETATM   26  O   UNL     1     -13.620  12.378  72.235  1.00  0.00    -0.504 OA 
HETATM   27  C   UNL     1     -13.134  13.641  71.837  1.00  0.00    -0.387 C  
ENDBRANCH  25  26
BRANCH  20  28
HETATM   28  O   UNL     1     -13.172   7.565  71.558  1.00  0.00    -0.353 OA 
HETATM   29  C   UNL     1     -12.110   6.617  71.582  1.00  0.00    -0.355 C  
ENDBRANCH  20  28
ENDBRANCH   7  18
BRANCH   8  30
HETATM   30  O   UNL     1      -8.009   9.463  66.155  1.00  0.00    -0.108 OA 
BRANCH  30  31
HETATM   31  C   UNL     1      -7.335   8.483  65.359  1.00  0.00    -0.084 C  
HETATM   32  O   UNL     1      -8.220   7.477  64.847  1.00  0.00    -0.132 OA 
HETATM   33  C   UNL     1      -7.514   6.337  64.333  1.00  0.00    -0.088 C  
HETATM   34  C   UNL     1      -8.416   5.321  63.630  1.00  0.00    -0.091 C  
HETATM   35  O   UNL     1      -7.665   4.163  63.260  1.00  0.00    -0.064 OA 
HETATM   36  C   UNL     1      -7.080   3.533  64.396  1.00  0.00    -0.057 C  
HETATM   37  C   UNL     1      -6.250   2.338  63.947  1.00  0.00    -0.014 C  
HETATM   38  O   UNL     1      -6.179   4.413  65.060  1.00  0.00    -0.031 OA 
HETATM   39  C   UNL     1      -6.822   5.615  65.484  1.00  0.00    -0.056 C  
HETATM   40  C   UNL     1      -5.730   6.526  66.014  1.00  0.00    -0.021 C  
HETATM   41  O   UNL     1      -5.158   5.940  67.194  1.00  0.00    -0.004 OA 
HETATM   42  C   UNL     1      -6.240   7.935  66.324  1.00  0.00    -0.046 C  
HETATM   43  H   UNL     1      -4.474   6.509  67.526  1.00  0.00     0.000 HD 
HETATM   44  O   UNL     1      -5.131   8.867  66.339  1.00  0.00    -0.029 OA 
HETATM   45  H   UNL     1      -4.463   8.533  66.927  1.00  0.00     0.000 HD 
ENDBRANCH  30  31
ENDBRANCH   8  30
TORSDOF 5
ENDMDL
MODEL       53
REMARK 921   NORMALIZED FREE ENERGY PREDICTED BY IDOCK:   -6.67 KCAL/MOL
REMARK 922        TOTAL FREE ENERGY PREDICTED BY IDOCK:   -9.85 KCAL/MOL
REMARK 923 INTER-LIGAND FREE ENERGY PREDICTED BY IDOCK:   -8.52 KCAL/MOL
REMARK 924 INTRA-LIGAND FREE ENERGY PREDICTED BY IDOCK:   -1.33 KCAL/MOL
REMARK 927      BINDING AFFINITY PREDICTED BY RF-SCORE:    0.00 PKD
ROOT
HETATM    1  C   UNL     1     -11.037  10.420  69.697  1.00  0.00    -0.328 C  
HETATM    2  C   UNL     1     -11.781  11.654  70.119  1.00  0.00    -0.296 C  
HETATM    3  O   UNL     1     -12.660  11.166  71.146  1.00  0.00    -0.377 OA 
HETATM    4  C   UNL     1     -12.878   9.822  70.971  1.00  0.00    -0.291 C  
HETATM    5  C   UNL     1     -12.081   9.329  69.799  1.00  0.00     0.644 C  
HETATM    6  O   UNL     1     -13.704   9.183  71.602  1.00  0.00    -0.382 OA 
HETATM    7  C   UNL     1     -11.439   7.930  69.780  1.00  0.00     0.216 C  
HETATM    8  C   UNL     1     -10.322  10.394  68.359  1.00  0.00    -0.174 C  
HETATM    9  C   UNL     1     -10.303   7.843  68.749  1.00  0.00    -0.220 A  
HETATM   10  C   UNL     1      -9.727   6.585  68.473  1.00  0.00    -0.129 A  
HETATM   11  O   UNL     1      -7.930   5.407  67.319  1.00  0.00    -0.100 OA 
HETATM   12  C   UNL     1      -8.633   6.528  67.635  1.00  0.00    -0.116 A  
HETATM   13  C   UNL     1      -9.775   9.003  68.098  1.00  0.00    -0.172 A  
HETATM   14  C   UNL     1      -8.106   7.652  67.048  1.00  0.00    -0.117 A  
HETATM   15  C   UNL     1      -6.850   5.972  66.549  1.00  0.00    -0.062 C  
HETATM   16  O   UNL     1      -6.999   7.385  66.306  1.00  0.00    -0.066 OA 
HETATM   17  C   UNL     1      -8.662   8.893  67.239  1.00  0.00    -0.125 A  
ENDROOT
BRANCH   7  18
HETATM   18  C   UNL     1     -11.048   7.466  71.182  1.00  0.00    -0.271 A  
HETATM   19  O   UNL     1      -9.336   5.704  74.560  1.00  0.00    -0.126 OA 
HETATM   20  C   UNL     1     -11.046   5.793  72.934  1.00  0.00    -0.281 A  
HETATM   21  C   UNL     1      -9.963   8.084  71.821  1.00  0.00    -0.245 A  
HETATM   22  H   UNL     1      -9.693   4.899  74.916  1.00  0.00     0.000 HD 
HETATM   23  C   UNL     1     -11.626   6.346  71.794  1.00  0.00    -0.367 A  
HETATM   24  C   UNL     1      -9.893   6.368  73.494  1.00  0.00    -0.185 A  
HETATM   25  C   UNL     1      -9.369   7.551  72.971  1.00  0.00    -0.191 A  
BRANCH  25  26
HETATM   26  O   UNL     1      -8.315   8.317  73.387  1.00  0.00    -0.213 OA 
HETATM   27  C   UNL     1      -7.056   8.230  72.756  1.00  0.00    -0.098 C  
ENDBRANCH  25  26
BRANCH  20  28
HETATM   28  O   UNL     1     -11.512   4.632  73.520  1.00  0.00    -0.314 OA 
HETATM   29  C   UNL     1     -10.805   3.438  73.201  1.00  0.00    -0.145 C  
ENDBRANCH  20  28
ENDBRANCH   7  18
BRANCH   8  30
HETATM   30  O   UNL     1     -10.931  10.999  67.238  1.00  0.00    -0.267 OA 
BRANCH  30  31
HETATM   31  C   UNL     1     -10.479  12.190  66.586  1.00  0.00    -0.220 C  
HETATM   32  O   UNL     1      -9.994  13.178  67.505  1.00  0.00    -0.217 OA 
HETATM   33  C   UNL     1      -9.850  14.470  66.894  1.00  0.00    -0.262 C  
HETATM   34  C   UNL     1      -9.178  15.505  67.798  1.00  0.00    -0.179 C  
HETATM   35  O   UNL     1      -9.184  16.789  67.171  1.00  0.00    -0.217 OA 
HETATM   36  C   UNL     1     -10.511  17.229  66.892  1.00  0.00    -0.272 C  
HETATM   37  C   UNL     1     -10.463  18.574  66.181  1.00  0.00    -0.447 C  
HETATM   38  O   UNL     1     -11.169  16.334  66.003  1.00  0.00     0.030 OA 
HETATM   39  C   UNL     1     -11.228  15.007  66.528  1.00  0.00    -0.312 C  
HETATM   40  C   UNL     1     -11.790  14.131  65.424  1.00  0.00    -0.362 C  
HETATM   41  O   UNL     1     -13.148  14.518  65.159  1.00  0.00    -0.538 OA 
HETATM   42  C   UNL     1     -11.728  12.641  65.769  1.00  0.00    -0.419 C  
HETATM   43  H   UNL     1     -13.500  13.970  64.468  1.00  0.00     0.000 HD 
HETATM   44  O   UNL     1     -11.794  11.853  64.555  1.00  0.00    -0.303 OA 
HETATM   45  H   UNL     1     -12.555  12.128  64.056  1.00  0.00     0.000 HD 
ENDBRANCH  30  31
ENDBRANCH   8  30
TORSDOF 5
ENDMDL
MODEL       54
REMARK 921   NORMALIZED FREE ENERGY PREDICTED BY IDOCK:   -6.66 KCAL/MOL
REMARK 922        TOTAL FREE ENERGY PREDICTED BY IDOCK:   -9.84 KCAL/MOL
REMARK 923 INTER-LIGAND FREE ENERGY PREDICTED BY IDOCK:   -8.22 KCAL/MOL
REMARK 924 INTRA-LIGAND FREE ENERGY PREDICTED BY IDOCK:   -1.63 KCAL/MOL
REMARK 927      BINDING AFFINITY PREDICTED BY RF-SCORE:    0.00 PKD
ROOT
HETATM    1  C   UNL     1      -9.766   7.791  67.991  1.00  0.00    -0.176 C  
HETATM    2  C   UNL     1     -10.742   7.692  66.855  1.00  0.00    -0.201 C  
HETATM    3  O   UNL     1     -11.158   6.318  66.902  1.00  0.00    -0.361 OA 
HETATM    4  C   UNL     1     -10.192   5.562  67.521  1.00  0.00    -0.199 C  
HETATM    5  C   UNL     1      -9.068   6.448  67.971  1.00  0.00    -0.113 C  
HETATM    6  O   UNL     1     -10.210   4.343  67.560  1.00  0.00    -0.061 OA 
HETATM    7  C   UNL     1      -8.302   6.191  69.281  1.00  0.00    -0.116 C  
HETATM    8  C   UNL     1      -8.777   8.940  68.036  1.00  0.00    -0.133 C  
HETATM    9  C   UNL     1      -7.574   7.453  69.768  1.00  0.00    -0.095 A  
HETATM   10  C   UNL     1      -6.678   7.348  70.853  1.00  0.00    -0.044 A  
HETATM   11  O   UNL     1      -5.286   8.576  72.436  1.00  0.00    -0.038 OA 
HETATM   12  C   UNL     1      -6.116   8.501  71.361  1.00  0.00    -0.045 A  
HETATM   13  C   UNL     1      -7.811   8.740  69.190  1.00  0.00    -0.098 A  
HETATM   14  C   UNL     1      -6.384   9.738  70.826  1.00  0.00    -0.095 A  
HETATM   15  C   UNL     1      -5.146  10.004  72.572  1.00  0.00    -0.001 C  
HETATM   16  O   UNL     1      -5.775  10.745  71.506  1.00  0.00    -0.331 OA 
HETATM   17  C   UNL     1      -7.204   9.889  69.735  1.00  0.00    -0.118 A  
ENDROOT
BRANCH   7  18
HETATM   18  C   UNL     1      -9.188   5.534  70.338  1.00  0.00    -0.182 A  
HETATM   19  O   UNL     1     -11.117   4.257  73.816  1.00  0.00    -0.263 OA 
HETATM   20  C   UNL     1      -9.530   3.909  72.102  1.00  0.00    -0.132 A  
HETATM   21  C   UNL     1     -10.299   6.240  70.823  1.00  0.00    -0.256 A  
HETATM   22  H   UNL     1     -10.825   3.474  74.268  1.00  0.00     0.000 HD 
HETATM   23  C   UNL     1      -8.854   4.322  70.955  1.00  0.00    -0.148 A  
HETATM   24  C   UNL     1     -10.569   4.691  72.634  1.00  0.00    -0.195 A  
HETATM   25  C   UNL     1     -10.998   5.841  71.969  1.00  0.00    -0.260 A  
BRANCH  25  26
HETATM   26  O   UNL     1     -12.018   6.706  72.255  1.00  0.00    -0.284 OA 
HETATM   27  C   UNL     1     -11.791   8.095  72.356  1.00  0.00    -0.388 C  
ENDBRANCH  25  26
BRANCH  20  28
HETATM   28  O   UNL     1      -9.176   2.777  72.810  1.00  0.00    -0.084 OA 
HETATM   29  C   UNL     1      -9.189   1.551  72.086  1.00  0.00    -0.075 C  
ENDBRANCH  20  28
ENDBRANCH   7  18
BRANCH   8  30
HETATM   30  O   UNL     1      -8.170   9.377  66.839  1.00  0.00    -0.114 OA 
BRANCH  30  31
HETATM   31  C   UNL     1      -8.369  10.653  66.221  1.00  0.00    -0.155 C  
HETATM   32  O   UNL     1      -9.288  11.483  66.942  1.00  0.00    -0.174 OA 
HETATM   33  C   UNL     1      -9.732  12.609  66.169  1.00  0.00    -0.251 C  
HETATM   34  C   UNL     1     -10.581  13.604  66.962  1.00  0.00    -0.274 C  
HETATM   35  O   UNL     1     -11.086  14.625  66.098  1.00  0.00    -0.323 OA 
HETATM   36  C   UNL     1     -11.890  14.078  65.057  1.00  0.00    -0.378 C  
HETATM   37  C   UNL     1     -12.361  15.196  64.136  1.00  0.00    -0.117 C  
HETATM   38  O   UNL     1     -11.135  13.187  64.243  1.00  0.00    -0.362 OA 
HETATM   39  C   UNL     1     -10.578  12.113  65.002  1.00  0.00    -0.291 C  
HETATM   40  C   UNL     1      -9.668  11.346  64.061  1.00  0.00    -0.245 C  
HETATM   41  O   UNL     1     -10.461  10.738  63.029  1.00  0.00    -0.714 OA 
HETATM   42  C   UNL     1      -8.842  10.279  64.784  1.00  0.00    -0.196 C  
HETATM   43  H   UNL     1      -9.891  10.258  62.439  1.00  0.00     0.000 HD 
HETATM   44  O   UNL     1      -7.679   9.937  63.990  1.00  0.00    -0.132 OA 
HETATM   45  H   UNL     1      -7.968   9.709  63.113  1.00  0.00     0.000 HD 
ENDBRANCH  30  31
ENDBRANCH   8  30
TORSDOF 5
ENDMDL
MODEL       55
REMARK 921   NORMALIZED FREE ENERGY PREDICTED BY IDOCK:   -6.65 KCAL/MOL
REMARK 922        TOTAL FREE ENERGY PREDICTED BY IDOCK:   -9.83 KCAL/MOL
REMARK 923 INTER-LIGAND FREE ENERGY PREDICTED BY IDOCK:   -8.44 KCAL/MOL
REMARK 924 INTRA-LIGAND FREE ENERGY PREDICTED BY IDOCK:   -1.39 KCAL/MOL
REMARK 927      BINDING AFFINITY PREDICTED BY RF-SCORE:    0.00 PKD
ROOT
HETATM    1  C   UNL     1      -9.463   9.579  65.572  1.00  0.00    -0.334 C  
HETATM    2  C   UNL     1      -9.048   9.813  64.149  1.00  0.00    -0.244 C  
HETATM    3  O   UNL     1      -7.995   8.854  63.957  1.00  0.00    -0.136 OA 
HETATM    4  C   UNL     1      -7.437   8.528  65.170  1.00  0.00    -0.091 C  
HETATM    5  C   UNL     1      -8.160   9.251  66.268  1.00  0.00    -0.107 C  
HETATM    6  O   UNL     1      -6.425   7.858  65.289  1.00  0.00    -0.044 OA 
HETATM    7  C   UNL     1      -8.402   8.606  67.645  1.00  0.00    -0.121 C  
HETATM    8  C   UNL     1     -10.244  10.648  66.313  1.00  0.00    -0.245 C  
HETATM    9  C   UNL     1      -9.548   9.298  68.399  1.00  0.00    -0.158 A  
HETATM   10  C   UNL     1      -9.785   8.953  69.747  1.00  0.00    -0.180 A  
HETATM   11  O   UNL     1     -11.282   9.211  71.655  1.00  0.00    -0.333 OA 
HETATM   12  C   UNL     1     -10.884   9.489  70.384  1.00  0.00    -0.282 A  
HETATM   13  C   UNL     1     -10.417  10.243  67.766  1.00  0.00    -0.269 A  
HETATM   14  C   UNL     1     -11.736  10.363  69.754  1.00  0.00    -0.237 A  
HETATM   15  C   UNL     1     -12.530   9.931  71.712  1.00  0.00    -0.397 C  
HETATM   16  O   UNL     1     -12.785  10.728  70.538  1.00  0.00    -0.336 OA 
HETATM   17  C   UNL     1     -11.521  10.774  68.462  1.00  0.00    -0.362 A  
ENDROOT
BRANCH   7  18
HETATM   18  C   UNL     1      -8.546   7.088  67.545  1.00  0.00    -0.121 A  
HETATM   19  O   UNL     1      -9.583   3.060  67.929  1.00  0.00    -0.213 OA 
HETATM   20  C   UNL     1      -8.130   4.861  68.403  1.00  0.00    -0.085 A  
HETATM   21  C   UNL     1      -9.593   6.558  66.776  1.00  0.00    -0.198 A  
HETATM   22  H   UNL     1      -9.097   2.492  68.515  1.00  0.00     0.000 HD 
HETATM   23  C   UNL     1      -7.774   6.206  68.311  1.00  0.00    -0.103 A  
HETATM   24  C   UNL     1      -9.251   4.375  67.708  1.00  0.00    -0.136 A  
HETATM   25  C   UNL     1      -9.964   5.209  66.847  1.00  0.00    -0.201 A  
BRANCH  25  26
HETATM   26  O   UNL     1     -11.027   4.943  66.028  1.00  0.00    -0.245 OA 
HETATM   27  C   UNL     1     -10.847   4.308  64.781  1.00  0.00    -0.076 C  
ENDBRANCH  25  26
BRANCH  20  28
HETATM   28  O   UNL     1      -7.468   3.968  69.222  1.00  0.00    -0.053 OA 
HETATM   29  C   UNL     1      -6.049   4.076  69.254  1.00  0.00    -0.027 C  
ENDBRANCH  20  28
ENDBRANCH   7  18
BRANCH   8  30
HETATM   30  O   UNL     1      -9.907  12.006  66.125  1.00  0.00    -0.224 OA 
BRANCH  30  31
HETATM   31  C   UNL     1      -9.737  12.974  67.165  1.00  0.00    -0.230 C  
HETATM   32  O   UNL     1     -10.634  14.086  67.044  1.00  0.00    -0.276 OA 
HETATM   33  C   UNL     1     -10.252  15.192  67.877  1.00  0.00    -0.232 C  
HETATM   34  C   UNL     1     -11.276  16.328  67.899  1.00  0.00    -0.213 C  
HETATM   35  O   UNL     1     -10.770  17.437  68.645  1.00  0.00    -0.335 OA 
HETATM   36  C   UNL     1      -9.558  17.935  68.085  1.00  0.00    -0.306 C  
HETATM   37  C   UNL     1      -9.033  19.080  68.941  1.00  0.00    -0.301 C  
HETATM   38  O   UNL     1      -8.543  16.937  68.094  1.00  0.00    -0.208 OA 
HETATM   39  C   UNL     1      -8.936  15.770  67.370  1.00  0.00    -0.193 C  
HETATM   40  C   UNL     1      -7.853  14.733  67.601  1.00  0.00    -0.175 C  
HETATM   41  O   UNL     1      -6.629  15.186  66.998  1.00  0.00    -0.265 OA 
HETATM   42  C   UNL     1      -8.230  13.357  67.048  1.00  0.00    -0.035 C  
HETATM   43  H   UNL     1      -5.951  14.538  67.143  1.00  0.00     0.000 HD 
HETATM   44  O   UNL     1      -7.442  12.332  67.702  1.00  0.00    -0.112 OA 
HETATM   45  H   UNL     1      -6.523  12.566  67.631  1.00  0.00     0.000 HD 
ENDBRANCH  30  31
ENDBRANCH   8  30
TORSDOF 5
ENDMDL
MODEL       56
REMARK 921   NORMALIZED FREE ENERGY PREDICTED BY IDOCK:   -6.62 KCAL/MOL
REMARK 922        TOTAL FREE ENERGY PREDICTED BY IDOCK:   -9.78 KCAL/MOL
REMARK 923 INTER-LIGAND FREE ENERGY PREDICTED BY IDOCK:   -9.27 KCAL/MOL
REMARK 924 INTRA-LIGAND FREE ENERGY PREDICTED BY IDOCK:   -0.51 KCAL/MOL
REMARK 927      BINDING AFFINITY PREDICTED BY RF-SCORE:    0.00 PKD
ROOT
HETATM    1  C   UNL     1      -9.274   9.376  65.649  1.00  0.00    -0.285 C  
HETATM    2  C   UNL     1      -8.689   9.510  64.274  1.00  0.00    -0.207 C  
HETATM    3  O   UNL     1      -7.876   8.332  64.150  1.00  0.00    -0.131 OA 
HETATM    4  C   UNL     1      -7.523   7.879  65.398  1.00  0.00    -0.080 C  
HETATM    5  C   UNL     1      -8.152   8.748  66.447  1.00  0.00    -0.103 C  
HETATM    6  O   UNL     1      -6.710   6.990  65.589  1.00  0.00    -0.050 OA 
HETATM    7  C   UNL     1      -8.662   8.173  67.782  1.00  0.00    -0.130 C  
HETATM    8  C   UNL     1      -9.848  10.596  66.346  1.00  0.00    -0.211 C  
HETATM    9  C   UNL     1      -9.678   9.112  68.450  1.00  0.00    -0.166 A  
HETATM   10  C   UNL     1     -10.109   8.828  69.763  1.00  0.00    -0.198 A  
HETATM   11  O   UNL     1     -11.671   9.423  71.539  1.00  0.00    -0.342 OA 
HETATM   12  C   UNL     1     -11.106   9.605  70.315  1.00  0.00    -0.276 A  
HETATM   13  C   UNL     1     -10.241  10.237  67.767  1.00  0.00    -0.225 A  
HETATM   14  C   UNL     1     -11.670  10.657  69.635  1.00  0.00    -0.296 A  
HETATM   15  C   UNL     1     -12.716  10.416  71.506  1.00  0.00    -0.459 C  
HETATM   16  O   UNL     1     -12.671  11.255  70.334  1.00  0.00    -0.223 OA 
HETATM   17  C   UNL     1     -11.248  11.010  68.377  1.00  0.00    -0.337 A  
ENDROOT
BRANCH   7  18
HETATM   18  C   UNL     1      -9.147   6.732  67.632  1.00  0.00    -0.117 A  
HETATM   19  O   UNL     1      -9.781   2.733  66.608  1.00  0.00    -0.396 OA 
HETATM   20  C   UNL     1     -10.344   5.018  66.409  1.00  0.00    -0.294 A  
HETATM   21  C   UNL     1      -8.472   5.716  68.324  1.00  0.00    -0.105 A  
HETATM   22  H   UNL     1     -10.401   2.503  65.926  1.00  0.00     0.000 HD 
HETATM   23  C   UNL     1     -10.139   6.362  66.715  1.00  0.00    -0.239 A  
HETATM   24  C   UNL     1      -9.577   4.022  67.037  1.00  0.00    -0.201 A  
HETATM   25  C   UNL     1      -8.666   4.359  68.039  1.00  0.00    -0.105 A  
BRANCH  25  26
HETATM   26  O   UNL     1      -7.875   3.567  68.825  1.00  0.00    -0.055 OA 
HETATM   27  C   UNL     1      -7.199   4.094  69.945  1.00  0.00    -0.046 C  
ENDBRANCH  25  26
BRANCH  20  28
HETATM   28  O   UNL     1     -11.235   4.600  65.439  1.00  0.00    -0.136 OA 
HETATM   29  C   UNL     1     -10.666   4.037  64.262  1.00  0.00    -0.169 C  
ENDBRANCH  20  28
ENDBRANCH   7  18
BRANCH   8  30
HETATM   30  O   UNL     1      -9.187  11.837  66.221  1.00  0.00    -0.216 OA 
BRANCH  30  31
HETATM   31  C   UNL     1      -9.658  13.087  66.736  1.00  0.00    -0.248 C  
HETATM   32  O   UNL     1     -10.043  14.005  65.704  1.00  0.00    -0.313 OA 
HETATM   33  C   UNL     1     -10.202  15.345  66.195  1.00  0.00    -0.308 C  
HETATM   34  C   UNL     1     -10.772  16.316  65.159  1.00  0.00    -0.331 C  
HETATM   35  O   UNL     1     -10.782  17.647  65.679  1.00  0.00    -0.495 OA 
HETATM   36  C   UNL     1      -9.471  18.082  66.028  1.00  0.00    -0.040 C  
HETATM   37  C   UNL     1      -9.540  19.482  66.624  1.00  0.00    -0.450 C  
HETATM   38  O   UNL     1      -8.909  17.250  67.038  1.00  0.00    -0.216 OA 
HETATM   39  C   UNL     1      -8.843  15.884  66.628  1.00  0.00    -0.281 C  
HETATM   40  C   UNL     1      -8.394  15.091  67.841  1.00  0.00    -0.148 C  
HETATM   41  O   UNL     1      -7.052  15.471  68.184  1.00  0.00    -0.109 OA 
HETATM   42  C   UNL     1      -8.467  13.579  67.613  1.00  0.00    -0.184 C  
HETATM   43  H   UNL     1      -6.771  14.975  68.943  1.00  0.00     0.000 HD 
HETATM   44  O   UNL     1      -8.519  12.892  68.888  1.00  0.00    -0.355 OA 
HETATM   45  H   UNL     1      -7.793  13.192  69.423  1.00  0.00     0.000 HD 
ENDBRANCH  30  31
ENDBRANCH   8  30
TORSDOF 5
ENDMDL
MODEL       57
REMARK 921   NORMALIZED FREE ENERGY PREDICTED BY IDOCK:   -6.57 KCAL/MOL
REMARK 922        TOTAL FREE ENERGY PREDICTED BY IDOCK:   -9.73 KCAL/MOL
REMARK 923 INTER-LIGAND FREE ENERGY PREDICTED BY IDOCK:   -8.30 KCAL/MOL
REMARK 924 INTRA-LIGAND FREE ENERGY PREDICTED BY IDOCK:   -1.43 KCAL/MOL
REMARK 927      BINDING AFFINITY PREDICTED BY RF-SCORE:    0.00 PKD
ROOT
HETATM    1  C   UNL     1      -6.861  11.561  67.347  1.00  0.00    -0.104 C  
HETATM    2  C   UNL     1      -5.481  11.454  67.927  1.00  0.00    -0.044 C  
HETATM    3  O   UNL     1      -5.245  10.037  67.942  1.00  0.00    -0.038 OA 
HETATM    4  C   UNL     1      -6.444   9.367  67.963  1.00  0.00    -0.062 C  
HETATM    5  C   UNL     1      -7.574  10.353  67.913  1.00  0.00    -0.088 C  
HETATM    6  O   UNL     1      -6.543   8.163  68.135  1.00  0.00    -0.054 OA 
HETATM    7  C   UNL     1      -8.878  10.058  67.149  1.00  0.00    -0.142 C  
HETATM    8  C   UNL     1      -7.664  12.834  67.546  1.00  0.00    -0.168 C  
HETATM    9  C   UNL     1      -9.647  11.349  66.824  1.00  0.00    -0.207 A  
HETATM   10  C   UNL     1     -10.948  11.251  66.289  1.00  0.00    -0.265 A  
HETATM   11  O   UNL     1     -12.813  12.476  65.304  1.00  0.00    -0.613 OA 
HETATM   12  C   UNL     1     -11.588  12.406  65.891  1.00  0.00    -0.396 A  
HETATM   13  C   UNL     1      -9.067  12.645  66.999  1.00  0.00    -0.215 A  
HETATM   14  C   UNL     1     -11.006  13.644  66.023  1.00  0.00    -0.286 A  
HETATM   15  C   UNL     1     -12.887  13.883  64.995  1.00  0.00    -0.268 C  
HETATM   16  O   UNL     1     -11.779  14.642  65.520  1.00  0.00    -0.350 OA 
HETATM   17  C   UNL     1      -9.765  13.799  66.589  1.00  0.00    -0.293 A  
ENDROOT
BRANCH   7  18
HETATM   18  C   UNL     1      -8.639   9.153  65.942  1.00  0.00    -0.168 A  
HETATM   19  O   UNL     1      -7.207   6.451  63.096  1.00  0.00    -0.050 OA 
HETATM   20  C   UNL     1      -7.522   8.668  63.848  1.00  0.00    -0.116 A  
HETATM   21  C   UNL     1      -8.961   7.791  66.044  1.00  0.00    -0.185 A  
HETATM   22  H   UNL     1      -6.685   6.756  62.364  1.00  0.00     0.000 HD 
HETATM   23  C   UNL     1      -7.969   9.590  64.793  1.00  0.00    -0.123 A  
HETATM   24  C   UNL     1      -7.762   7.295  64.027  1.00  0.00    -0.120 A  
HETATM   25  C   UNL     1      -8.530   6.847  65.104  1.00  0.00    -0.021 A  
BRANCH  25  26
HETATM   26  O   UNL     1      -8.945   5.588  65.437  1.00  0.00    -0.157 OA 
HETATM   27  C   UNL     1      -9.839   5.374  66.507  1.00  0.00    -0.176 C  
ENDBRANCH  25  26
BRANCH  20  28
HETATM   28  O   UNL     1      -6.769   9.031  62.749  1.00  0.00    -0.095 OA 
HETATM   29  C   UNL     1      -6.515  10.423  62.591  1.00  0.00    -0.137 C  
ENDBRANCH  20  28
ENDBRANCH   7  18
BRANCH   8  30
HETATM   30  O   UNL     1      -7.610  13.498  68.790  1.00  0.00    -0.122 OA 
BRANCH  30  31
HETATM   31  C   UNL     1      -7.614  14.917  68.978  1.00  0.00    -0.151 C  
HETATM   32  O   UNL     1      -8.929  15.483  68.915  1.00  0.00    -0.187 OA 
HETATM   33  C   UNL     1      -8.904  16.913  68.778  1.00  0.00    -0.255 C  
HETATM   34  C   UNL     1     -10.285  17.564  68.876  1.00  0.00    -0.353 C  
HETATM   35  O   UNL     1     -10.193  18.964  68.605  1.00  0.00    -0.381 OA 
HETATM   36  C   UNL     1      -9.671  19.213  67.303  1.00  0.00    -0.319 C  
HETATM   37  C   UNL     1      -9.544  20.714  67.083  1.00  0.00    -0.534 C  
HETATM   38  O   UNL     1      -8.357  18.682  67.171  1.00  0.00    -0.256 OA 
HETATM   39  C   UNL     1      -8.323  17.275  67.417  1.00  0.00    -0.199 C  
HETATM   40  C   UNL     1      -6.860  16.872  67.414  1.00  0.00    -0.153 C  
HETATM   41  O   UNL     1      -6.320  17.062  66.096  1.00  0.00    -0.197 OA 
HETATM   42  C   UNL     1      -6.650  15.424  67.862  1.00  0.00    -0.153 C  
HETATM   43  H   UNL     1      -5.404  16.810  66.095  1.00  0.00     0.000 HD 
HETATM   44  O   UNL     1      -5.285  15.243  68.315  1.00  0.00    -0.097 OA 
HETATM   45  H   UNL     1      -4.697  15.552  67.635  1.00  0.00     0.000 HD 
ENDBRANCH  30  31
ENDBRANCH   8  30
TORSDOF 5
ENDMDL
MODEL       58
REMARK 921   NORMALIZED FREE ENERGY PREDICTED BY IDOCK:   -6.56 KCAL/MOL
REMARK 922        TOTAL FREE ENERGY PREDICTED BY IDOCK:   -9.71 KCAL/MOL
REMARK 923 INTER-LIGAND FREE ENERGY PREDICTED BY IDOCK:   -8.13 KCAL/MOL
REMARK 924 INTRA-LIGAND FREE ENERGY PREDICTED BY IDOCK:   -1.59 KCAL/MOL
REMARK 927      BINDING AFFINITY PREDICTED BY RF-SCORE:    0.00 PKD
ROOT
HETATM    1  C   UNL     1      -7.808  11.966  68.416  1.00  0.00    -0.141 C  
HETATM    2  C   UNL     1      -6.701  11.986  69.429  1.00  0.00    -0.070 C  
HETATM    3  O   UNL     1      -6.635  10.618  69.864  1.00  0.00    -0.105 OA 
HETATM    4  C   UNL     1      -7.844  10.003  69.647  1.00  0.00    -0.167 C  
HETATM    5  C   UNL     1      -8.788  10.965  68.987  1.00  0.00    -0.105 C  
HETATM    6  O   UNL     1      -8.121   8.890  70.063  1.00  0.00    -0.100 OA 
HETATM    7  C   UNL     1      -9.809  10.508  67.930  1.00  0.00    -0.181 C  
HETATM    8  C   UNL     1      -8.490  13.263  68.022  1.00  0.00    -0.170 C  
HETATM    9  C   UNL     1     -10.292  11.683  67.066  1.00  0.00    -0.248 A  
HETATM   10  C   UNL     1     -11.361  11.476  66.169  1.00  0.00    -0.200 A  
HETATM   11  O   UNL     1     -12.678  12.437  64.354  1.00  0.00    -0.626 OA 
HETATM   12  C   UNL     1     -11.715  12.499  65.313  1.00  0.00    -0.386 A  
HETATM   13  C   UNL     1      -9.661  12.967  67.103  1.00  0.00    -0.230 A  
HETATM   14  C   UNL     1     -11.075  13.714  65.328  1.00  0.00    -0.301 A  
HETATM   15  C   UNL     1     -12.499  13.714  63.708  1.00  0.00    -0.197 C  
HETATM   16  O   UNL     1     -11.538  14.561  64.371  1.00  0.00    -0.369 OA 
HETATM   17  C   UNL     1     -10.066  13.986  66.219  1.00  0.00    -0.307 A  
ENDROOT
BRANCH   7  18
HETATM   18  C   UNL     1      -9.300   9.311  67.128  1.00  0.00    -0.166 A  
HETATM   19  O   UNL     1      -8.478   6.366  64.283  1.00  0.00    -0.334 OA 
HETATM   20  C   UNL     1      -9.600   7.080  66.234  1.00  0.00    -0.031 A  
HETATM   21  C   UNL     1      -8.281   9.513  66.185  1.00  0.00    -0.115 A  
HETATM   22  H   UNL     1      -8.958   5.547  64.285  1.00  0.00     0.000 HD 
HETATM   23  C   UNL     1      -9.910   8.052  67.183  1.00  0.00    -0.274 A  
HETATM   24  C   UNL     1      -8.654   7.345  65.230  1.00  0.00     0.004 A  
HETATM   25  C   UNL     1      -7.947   8.548  65.226  1.00  0.00    -0.120 A  
BRANCH  25  26
HETATM   26  O   UNL     1      -6.947   8.990  64.404  1.00  0.00    -0.088 OA 
HETATM   27  C   UNL     1      -7.203   9.929  63.383  1.00  0.00    -0.131 C  
ENDBRANCH  25  26
BRANCH  20  28
HETATM   28  O   UNL     1     -10.244   5.859  66.177  1.00  0.00    -0.070 OA 
HETATM   29  C   UNL     1     -10.421   5.182  67.417  1.00  0.00    -0.105 C  
ENDBRANCH  20  28
ENDBRANCH   7  18
BRANCH   8  30
HETATM   30  O   UNL     1      -8.760  14.231  69.014  1.00  0.00    -0.080 OA 
BRANCH  30  31
HETATM   31  C   UNL     1      -8.291  15.583  69.007  1.00  0.00    -0.227 C  
HETATM   32  O   UNL     1      -9.122  16.457  68.231  1.00  0.00    -0.198 OA 
HETATM   33  C   UNL     1      -8.488  17.716  67.959  1.00  0.00    -0.244 C  
HETATM   34  C   UNL     1      -9.406  18.733  67.278  1.00  0.00    -0.290 C  
HETATM   35  O   UNL     1      -8.673  19.908  66.928  1.00  0.00    -0.313 OA 
HETATM   36  C   UNL     1      -7.597  19.610  66.042  1.00  0.00    -0.321 C  
HETATM   37  C   UNL     1      -6.817  20.882  65.740  1.00  0.00    -0.052 C  
HETATM   38  O   UNL     1      -6.672  18.712  66.646  1.00  0.00    -0.187 OA 
HETATM   39  C   UNL     1      -7.295  17.488  67.038  1.00  0.00    -0.192 C  
HETATM   40  C   UNL     1      -6.253  16.703  67.813  1.00  0.00    -0.141 C  
HETATM   41  O   UNL     1      -5.180  16.341  66.928  1.00  0.00    -0.339 OA 
HETATM   42  C   UNL     1      -6.833  15.449  68.471  1.00  0.00    -0.113 C  
HETATM   43  H   UNL     1      -4.528  15.850  67.413  1.00  0.00     0.000 HD 
HETATM   44  O   UNL     1      -5.978  15.027  69.562  1.00  0.00    -0.099 OA 
HETATM   45  H   UNL     1      -5.089  14.945  69.235  1.00  0.00     0.000 HD 
ENDBRANCH  30  31
ENDBRANCH   8  30
TORSDOF 5
ENDMDL
MODEL       59
REMARK 921   NORMALIZED FREE ENERGY PREDICTED BY IDOCK:   -6.54 KCAL/MOL
REMARK 922        TOTAL FREE ENERGY PREDICTED BY IDOCK:   -9.69 KCAL/MOL
REMARK 923 INTER-LIGAND FREE ENERGY PREDICTED BY IDOCK:   -8.81 KCAL/MOL
REMARK 924 INTRA-LIGAND FREE ENERGY PREDICTED BY IDOCK:   -0.88 KCAL/MOL
REMARK 927      BINDING AFFINITY PREDICTED BY RF-SCORE:    0.00 PKD
ROOT
HETATM    1  C   UNL     1      -8.188   9.481  68.225  1.00  0.00    -0.113 C  
HETATM    2  C   UNL     1      -7.122   9.814  67.222  1.00  0.00    -0.085 C  
HETATM    3  O   UNL     1      -6.194   8.727  67.362  1.00  0.00    -0.054 OA 
HETATM    4  C   UNL     1      -6.317   8.168  68.611  1.00  0.00    -0.053 C  
HETATM    5  C   UNL     1      -7.412   8.861  69.368  1.00  0.00    -0.077 C  
HETATM    6  O   UNL     1      -5.549   7.332  69.056  1.00  0.00    -0.018 OA 
HETATM    7  C   UNL     1      -8.340   8.103  70.334  1.00  0.00    -0.120 C  
HETATM    8  C   UNL     1      -9.132  10.565  68.708  1.00  0.00    -0.166 C  
HETATM    9  C   UNL     1      -9.642   8.876  70.591  1.00  0.00    -0.262 A  
HETATM   10  C   UNL     1     -10.525   8.414  71.590  1.00  0.00    -0.321 A  
HETATM   11  O   UNL     1     -12.725   8.680  72.609  1.00  0.00    -0.365 OA 
HETATM   12  C   UNL     1     -11.744   9.041  71.738  1.00  0.00    -0.369 A  
HETATM   13  C   UNL     1     -10.015  10.020  69.816  1.00  0.00    -0.276 A  
HETATM   14  C   UNL     1     -12.110  10.113  70.961  1.00  0.00    -0.377 A  
HETATM   15  C   UNL     1     -13.780   9.583  72.219  1.00  0.00    -0.371 C  
HETATM   16  O   UNL     1     -13.370  10.548  71.229  1.00  0.00    -0.328 OA 
HETATM   17  C   UNL     1     -11.266  10.638  70.013  1.00  0.00    -0.382 A  
ENDROOT
BRANCH   7  18
HETATM   18  C   UNL     1      -8.550   6.652  69.900  1.00  0.00    -0.140 A  
HETATM   19  O   UNL     1      -8.241   2.753  68.435  1.00  0.00    -0.063 OA 
HETATM   20  C   UNL     1      -8.944   4.993  68.180  1.00  0.00    -0.108 A  
HETATM   21  C   UNL     1      -8.092   5.624  70.737  1.00  0.00    -0.117 A  
HETATM   22  H   UNL     1      -8.504   2.551  67.545  1.00  0.00     0.000 HD 
HETATM   23  C   UNL     1      -9.040   6.307  68.635  1.00  0.00    -0.126 A  
HETATM   24  C   UNL     1      -8.380   3.999  68.997  1.00  0.00    -0.073 A  
HETATM   25  C   UNL     1      -7.993   4.295  70.305  1.00  0.00    -0.055 A  
BRANCH  25  26
HETATM   26  O   UNL     1      -7.494   3.488  71.289  1.00  0.00    -0.042 OA 
HETATM   27  C   UNL     1      -8.148   3.363  72.533  1.00  0.00    -0.072 C  
ENDBRANCH  25  26
BRANCH  20  28
HETATM   28  O   UNL     1      -9.317   4.616  66.905  1.00  0.00    -0.124 OA 
HETATM   29  C   UNL     1     -10.526   5.179  66.409  1.00  0.00    -0.303 C  
ENDBRANCH  20  28
ENDBRANCH   7  18
BRANCH   8  30
HETATM   30  O   UNL     1      -8.630  11.863  68.950  1.00  0.00    -0.010 OA 
BRANCH  30  31
HETATM   31  C   UNL     1      -8.817  13.000  68.102  1.00  0.00    -0.194 C  
HETATM   32  O   UNL     1      -8.323  14.214  68.682  1.00  0.00    -0.154 OA 
HETATM   33  C   UNL     1      -8.794  15.382  67.991  1.00  0.00    -0.165 C  
HETATM   34  C   UNL     1      -8.155  16.684  68.478  1.00  0.00    -0.226 C  
HETATM   35  O   UNL     1      -8.763  17.806  67.835  1.00  0.00    -0.241 OA 
HETATM   36  C   UNL     1     -10.162  17.866  68.098  1.00  0.00    -0.382 C  
HETATM   37  C   UNL     1     -10.772  19.045  67.351  1.00  0.00    -0.559 C  
HETATM   38  O   UNL     1     -10.824  16.704  67.610  1.00  0.00    -0.324 OA 
HETATM   39  C   UNL     1     -10.300  15.509  68.190  1.00  0.00    -0.237 C  
HETATM   40  C   UNL     1     -10.963  14.351  67.466  1.00  0.00    -0.293 C  
HETATM   41  O   UNL     1     -12.370  14.355  67.758  1.00  0.00    -0.620 OA 
HETATM   42  C   UNL     1     -10.354  12.999  67.842  1.00  0.00    -0.231 C  
HETATM   43  H   UNL     1     -12.785  13.631  67.305  1.00  0.00     0.000 HD 
HETATM   44  O   UNL     1     -10.647  12.024  66.811  1.00  0.00    -0.217 OA 
HETATM   45  H   UNL     1     -11.584  12.023  66.652  1.00  0.00     0.000 HD 
ENDBRANCH  30  31
ENDBRANCH   8  30
TORSDOF 5
ENDMDL
MODEL       60
REMARK 921   NORMALIZED FREE ENERGY PREDICTED BY IDOCK:   -6.43 KCAL/MOL
REMARK 922        TOTAL FREE ENERGY PREDICTED BY IDOCK:   -9.55 KCAL/MOL
REMARK 923 INTER-LIGAND FREE ENERGY PREDICTED BY IDOCK:   -8.38 KCAL/MOL
REMARK 924 INTRA-LIGAND FREE ENERGY PREDICTED BY IDOCK:   -1.17 KCAL/MOL
REMARK 927      BINDING AFFINITY PREDICTED BY RF-SCORE:    0.00 PKD
ROOT
HETATM    1  C   UNL     1      -7.640  13.289  68.399  1.00  0.00    -0.137 C  
HETATM    2  C   UNL     1      -6.514  12.935  69.326  1.00  0.00    -0.104 C  
HETATM    3  O   UNL     1      -5.837  14.190  69.508  1.00  0.00    -0.093 OA 
HETATM    4  C   UNL     1      -6.093  15.015  68.440  1.00  0.00    -0.105 C  
HETATM    5  C   UNL     1      -7.028  14.330  67.486  1.00  0.00    -0.177 C  
HETATM    6  O   UNL     1      -5.524  16.077  68.255  1.00  0.00    -0.099 OA 
HETATM    7  C   UNL     1      -8.108  15.104  66.709  1.00  0.00    -0.113 C  
HETATM    8  C   UNL     1      -8.342  12.196  67.616  1.00  0.00    -0.163 C  
HETATM    9  C   UNL     1      -9.223  14.172  66.210  1.00  0.00    -0.152 A  
HETATM   10  C   UNL     1     -10.197  14.684  65.327  1.00  0.00    -0.421 A  
HETATM   11  O   UNL     1     -12.306  14.242  64.185  1.00  0.00    -0.630 OA 
HETATM   12  C   UNL     1     -11.259  13.878  64.973  1.00  0.00    -0.342 A  
HETATM   13  C   UNL     1      -9.335  12.814  66.649  1.00  0.00    -0.242 A  
HETATM   14  C   UNL     1     -11.380  12.590  65.434  1.00  0.00    -0.325 A  
HETATM   15  C   UNL     1     -13.142  13.071  64.287  1.00  0.00     0.319 C  
HETATM   16  O   UNL     1     -12.524  11.989  65.013  1.00  0.00    -0.414 OA 
HETATM   17  C   UNL     1     -10.432  12.024  66.250  1.00  0.00    -0.273 A  
ENDROOT
BRANCH   7  18
HETATM   18  C   UNL     1      -8.612  16.317  67.491  1.00  0.00    -0.189 A  
HETATM   19  O   UNL     1     -10.709  19.578  69.045  1.00  0.00    -0.333 OA 
HETATM   20  C   UNL     1      -8.986  18.702  67.688  1.00  0.00    -0.275 A  
HETATM   21  C   UNL     1      -9.561  16.121  68.505  1.00  0.00    -0.215 A  
HETATM   22  H   UNL     1     -10.529  20.458  68.734  1.00  0.00     0.000 HD 
HETATM   23  C   UNL     1      -8.284  17.631  67.136  1.00  0.00    -0.229 A  
HETATM   24  C   UNL     1     -10.009  18.474  68.623  1.00  0.00    -0.383 A  
HETATM   25  C   UNL     1     -10.273  17.181  69.080  1.00  0.00    -0.315 A  
BRANCH  25  26
HETATM   26  O   UNL     1     -11.157  16.734  70.022  1.00  0.00    -0.244 OA 
HETATM   27  C   UNL     1     -11.693  15.430  69.959  1.00  0.00    -0.326 C  
ENDBRANCH  25  26
BRANCH  20  28
HETATM   28  O   UNL     1      -8.776  20.011  67.300  1.00  0.00    -0.319 OA 
HETATM   29  C   UNL     1      -7.482  20.545  67.560  1.00  0.00    -0.314 C  
ENDBRANCH  20  28
ENDBRANCH   7  18
BRANCH   8  30
HETATM   30  O   UNL     1      -7.582  11.138  67.071  1.00  0.00    -0.121 OA 
BRANCH  30  31
HETATM   31  C   UNL     1      -8.086  10.100  66.225  1.00  0.00    -0.124 C  
HETATM   32  O   UNL     1      -8.584   8.975  66.961  1.00  0.00    -0.115 OA 
HETATM   33  C   UNL     1      -8.783   7.821  66.129  1.00  0.00    -0.156 C  
HETATM   34  C   UNL     1      -9.469   6.657  66.847  1.00  0.00    -0.154 C  
HETATM   35  O   UNL     1      -9.517   5.509  65.997  1.00  0.00    -0.159 OA 
HETATM   36  C   UNL     1      -8.212   5.090  65.607  1.00  0.00    -0.117 C  
HETATM   37  C   UNL     1      -8.318   3.900  64.664  1.00  0.00    -0.097 C  
HETATM   38  O   UNL     1      -7.544   6.115  64.878  1.00  0.00    -0.078 OA 
HETATM   39  C   UNL     1      -7.431   7.321  65.635  1.00  0.00    -0.085 C  
HETATM   40  C   UNL     1      -6.864   8.368  64.694  1.00  0.00    -0.069 C  
HETATM   41  O   UNL     1      -5.525   7.998  64.327  1.00  0.00    -0.043 OA 
HETATM   42  C   UNL     1      -6.870   9.770  65.306  1.00  0.00    -0.103 C  
HETATM   43  H   UNL     1      -5.170   8.653  63.739  1.00  0.00     0.000 HD 
HETATM   44  O   UNL     1      -6.804  10.766  64.255  1.00  0.00    -0.345 OA 
HETATM   45  H   UNL     1      -6.062  10.565  63.695  1.00  0.00     0.000 HD 
ENDBRANCH  30  31
ENDBRANCH   8  30
TORSDOF 5
ENDMDL
MODEL       61
REMARK 921   NORMALIZED FREE ENERGY PREDICTED BY IDOCK:   -6.43 KCAL/MOL
REMARK 922        TOTAL FREE ENERGY PREDICTED BY IDOCK:   -9.54 KCAL/MOL
REMARK 923 INTER-LIGAND FREE ENERGY PREDICTED BY IDOCK:   -9.78 KCAL/MOL
REMARK 924 INTRA-LIGAND FREE ENERGY PREDICTED BY IDOCK:    0.24 KCAL/MOL
REMARK 927      BINDING AFFINITY PREDICTED BY RF-SCORE:    0.00 PKD
ROOT
HETATM    1  C   UNL     1     -10.086  12.761  65.746  1.00  0.00    -0.296 C  
HETATM    2  C   UNL     1     -10.298  13.396  64.403  1.00  0.00    -0.325 C  
HETATM    3  O   UNL     1     -11.542  14.096  64.568  1.00  0.00    -0.380 OA 
HETATM    4  C   UNL     1     -12.271  13.516  65.577  1.00  0.00    -0.451 C  
HETATM    5  C   UNL     1     -11.486  12.388  66.182  1.00  0.00    -0.430 C  
HETATM    6  O   UNL     1     -13.428  13.806  65.828  1.00  0.00    -0.400 OA 
HETATM    7  C   UNL     1     -11.544  12.072  67.688  1.00  0.00    -0.392 C  
HETATM    8  C   UNL     1      -9.124  11.596  65.884  1.00  0.00    -0.149 C  
HETATM    9  C   UNL     1     -10.330  11.245  68.138  1.00  0.00    -0.205 A  
HETATM   10  C   UNL     1     -10.312  10.715  69.446  1.00  0.00    -0.234 A  
HETATM   11  O   UNL     1      -8.976   9.564  71.131  1.00  0.00    -0.249 OA 
HETATM   12  C   UNL     1      -9.173  10.074  69.885  1.00  0.00    -0.158 A  
HETATM   13  C   UNL     1      -9.193  11.038  67.294  1.00  0.00    -0.156 A  
HETATM   14  C   UNL     1      -8.070   9.916  69.081  1.00  0.00    -0.118 A  
HETATM   15  C   UNL     1      -7.594   9.161  71.044  1.00  0.00    -0.096 C  
HETATM   16  O   UNL     1      -7.037   9.308  69.722  1.00  0.00    -0.055 OA 
HETATM   17  C   UNL     1      -8.056  10.364  67.783  1.00  0.00    -0.103 A  
ENDROOT
BRANCH   7  18
HETATM   18  C   UNL     1     -11.790  13.328  68.523  1.00  0.00    -0.384 A  
HETATM   19  O   UNL     1     -11.741  16.448  71.299  1.00  0.00    -0.621 OA 
HETATM   20  C   UNL     1     -12.644  14.412  70.514  1.00  0.00    -0.353 A  
HETATM   21  C   UNL     1     -10.998  14.461  68.289  1.00  0.00    -0.259 A  
HETATM   22  H   UNL     1     -12.283  16.408  72.078  1.00  0.00     0.000 HD 
HETATM   23  C   UNL     1     -12.666  13.346  69.616  1.00  0.00     0.307 A  
HETATM   24  C   UNL     1     -11.761  15.488  70.317  1.00  0.00    -0.346 A  
HETATM   25  C   UNL     1     -10.964  15.547  69.173  1.00  0.00    -0.259 A  
BRANCH  25  26
HETATM   26  O   UNL     1     -10.097  16.513  68.742  1.00  0.00    -0.228 OA 
HETATM   27  C   UNL     1     -10.538  17.579  67.929  1.00  0.00    -0.390 C  
ENDBRANCH  25  26
BRANCH  20  28
HETATM   28  O   UNL     1     -13.410  14.436  71.662  1.00  0.00    -0.327 OA 
HETATM   29  C   UNL     1     -13.638  13.181  72.294  1.00  0.00    -0.581 C  
ENDBRANCH  20  28
ENDBRANCH   7  18
BRANCH   8  30
HETATM   30  O   UNL     1      -9.079  10.612  64.872  1.00  0.00    -0.188 OA 
BRANCH  30  31
HETATM   31  C   UNL     1      -9.516   9.257  65.007  1.00  0.00    -0.049 C  
HETATM   32  O   UNL     1     -10.013   8.960  66.319  1.00  0.00    -0.282 OA 
HETATM   33  C   UNL     1     -10.143   7.548  66.549  1.00  0.00    -0.124 C  
HETATM   34  C   UNL     1     -10.826   7.201  67.873  1.00  0.00    -0.150 C  
HETATM   35  O   UNL     1     -10.805   5.788  68.087  1.00  0.00    -0.241 OA 
HETATM   36  C   UNL     1      -9.473   5.283  68.122  1.00  0.00    -0.123 C  
HETATM   37  C   UNL     1      -9.505   3.771  68.300  1.00  0.00    -0.215 C  
HETATM   38  O   UNL     1      -8.804   5.523  66.889  1.00  0.00    -0.113 OA 
HETATM   39  C   UNL     1      -8.757   6.914  66.568  1.00  0.00    -0.133 C  
HETATM   40  C   UNL     1      -8.181   7.015  65.168  1.00  0.00    -0.113 C  
HETATM   41  O   UNL     1      -6.817   6.562  65.185  1.00  0.00    -0.045 OA 
HETATM   42  C   UNL     1      -8.253   8.435  64.605  1.00  0.00    -0.154 C  
HETATM   43  H   UNL     1      -6.457   6.624  64.309  1.00  0.00     0.000 HD 
HETATM   44  O   UNL     1      -8.171   8.396  63.159  1.00  0.00    -0.210 OA 
HETATM   45  H   UNL     1      -7.401   7.895  62.913  1.00  0.00     0.000 HD 
ENDBRANCH  30  31
ENDBRANCH   8  30
TORSDOF 5
ENDMDL
MODEL       62
REMARK 921   NORMALIZED FREE ENERGY PREDICTED BY IDOCK:   -6.41 KCAL/MOL
REMARK 922        TOTAL FREE ENERGY PREDICTED BY IDOCK:   -9.52 KCAL/MOL
REMARK 923 INTER-LIGAND FREE ENERGY PREDICTED BY IDOCK:   -8.95 KCAL/MOL
REMARK 924 INTRA-LIGAND FREE ENERGY PREDICTED BY IDOCK:   -0.57 KCAL/MOL
REMARK 927      BINDING AFFINITY PREDICTED BY RF-SCORE:    0.00 PKD
ROOT
HETATM    1  C   UNL     1     -10.715  13.543  66.950  1.00  0.00    -0.274 C  
HETATM    2  C   UNL     1     -11.909  13.718  66.059  1.00  0.00    -0.390 C  
HETATM    3  O   UNL     1     -12.304  12.365  65.776  1.00  0.00    -0.644 OA 
HETATM    4  C   UNL     1     -11.228  11.526  65.930  1.00  0.00    -0.177 C  
HETATM    5  C   UNL     1     -10.035  12.313  66.387  1.00  0.00    -0.243 C  
HETATM    6  O   UNL     1     -11.235  10.350  65.605  1.00  0.00     0.381 OA 
HETATM    7  C   UNL     1      -9.007  11.734  67.377  1.00  0.00    -0.173 C  
HETATM    8  C   UNL     1      -9.740  14.690  67.136  1.00  0.00    -0.235 C  
HETATM    9  C   UNL     1      -8.194  12.843  68.061  1.00  0.00    -0.168 A  
HETATM   10  C   UNL     1      -7.088  12.485  68.860  1.00  0.00    -0.073 A  
HETATM   11  O   UNL     1      -5.393  13.283  70.422  1.00  0.00    -0.104 OA 
HETATM   12  C   UNL     1      -6.432  13.473  69.565  1.00  0.00    -0.089 A  
HETATM   13  C   UNL     1      -8.551  14.225  67.956  1.00  0.00    -0.169 A  
HETATM   14  C   UNL     1      -6.809  14.792  69.491  1.00  0.00    -0.169 A  
HETATM   15  C   UNL     1      -5.229  14.616  70.948  1.00  0.00    -0.132 C  
HETATM   16  O   UNL     1      -6.071  15.593  70.304  1.00  0.00    -0.146 OA 
HETATM   17  C   UNL     1      -7.843  15.202  68.685  1.00  0.00    -0.140 A  
ENDROOT
BRANCH   7  18
HETATM   18  C   UNL     1      -9.647  10.741  68.345  1.00  0.00    -0.177 A  
HETATM   19  O   UNL     1     -12.103   8.052  70.391  1.00  0.00    -0.476 OA 
HETATM   20  C   UNL     1     -11.215  10.223  70.118  1.00  0.00    -0.318 A  
HETATM   21  C   UNL     1      -9.590   9.372  68.044  1.00  0.00    -0.156 A  
HETATM   22  H   UNL     1     -12.683   8.357  71.078  1.00  0.00     0.000 HD 
HETATM   23  C   UNL     1     -10.422  11.146  69.439  1.00  0.00    -0.132 A  
HETATM   24  C   UNL     1     -11.225   8.873  69.727  1.00  0.00    -0.006 A  
HETATM   25  C   UNL     1     -10.373   8.424  68.717  1.00  0.00    -0.206 A  
BRANCH  25  26
HETATM   26  O   UNL     1     -10.162   7.166  68.225  1.00  0.00    -0.171 OA 
HETATM   27  C   UNL     1     -11.086   6.561  67.348  1.00  0.00    -0.327 C  
ENDBRANCH  25  26
BRANCH  20  28
HETATM   28  O   UNL     1     -12.074  10.584  71.137  1.00  0.00    -0.354 OA 
HETATM   29  C   UNL     1     -12.637  11.889  71.054  1.00  0.00    -0.283 C  
ENDBRANCH  20  28
ENDBRANCH   7  18
BRANCH   8  30
HETATM   30  O   UNL     1      -9.402  15.497  66.028  1.00  0.00    -0.316 OA 
BRANCH  30  31
HETATM   31  C   UNL     1      -8.870  16.824  66.095  1.00  0.00    -0.263 C  
HETATM   32  O   UNL     1      -7.468  16.848  66.393  1.00  0.00    -0.259 OA 
HETATM   33  C   UNL     1      -7.012  18.155  66.776  1.00  0.00    -0.197 C  
HETATM   34  C   UNL     1      -5.494  18.253  66.939  1.00  0.00    -0.135 C  
HETATM   35  O   UNL     1      -5.131  19.541  67.441  1.00  0.00    -0.160 OA 
HETATM   36  C   UNL     1      -5.735  19.799  68.705  1.00  0.00    -0.220 C  
HETATM   37  C   UNL     1      -5.361  21.199  69.173  1.00  0.00    -0.306 C  
HETATM   38  O   UNL     1      -7.155  19.782  68.604  1.00  0.00    -0.318 OA 
HETATM   39  C   UNL     1      -7.641  18.532  68.112  1.00  0.00    -0.274 C  
HETATM   40  C   UNL     1      -9.132  18.705  67.892  1.00  0.00    -0.294 C  
HETATM   41  O   UNL     1      -9.776  18.914  69.159  1.00  0.00    -0.319 OA 
HETATM   42  C   UNL     1      -9.761  17.508  67.176  1.00  0.00    -0.279 C  
HETATM   43  H   UNL     1     -10.709  19.023  69.021  1.00  0.00     0.000 HD 
HETATM   44  O   UNL     1     -11.011  17.906  66.559  1.00  0.00    -0.058 OA 
HETATM   45  H   UNL     1     -11.554  18.323  67.218  1.00  0.00     0.000 HD 
ENDBRANCH  30  31
ENDBRANCH   8  30
TORSDOF 5
ENDMDL
MODEL       63
REMARK 921   NORMALIZED FREE ENERGY PREDICTED BY IDOCK:   -6.41 KCAL/MOL
REMARK 922        TOTAL FREE ENERGY PREDICTED BY IDOCK:   -9.52 KCAL/MOL
REMARK 923 INTER-LIGAND FREE ENERGY PREDICTED BY IDOCK:   -8.65 KCAL/MOL
REMARK 924 INTRA-LIGAND FREE ENERGY PREDICTED BY IDOCK:   -0.87 KCAL/MOL
REMARK 927      BINDING AFFINITY PREDICTED BY RF-SCORE:    0.00 PKD
ROOT
HETATM    1  C   UNL     1      -8.069  14.932  68.758  1.00  0.00    -0.162 C  
HETATM    2  C   UNL     1      -7.150  14.916  69.945  1.00  0.00    -0.109 C  
HETATM    3  O   UNL     1      -6.238  15.990  69.663  1.00  0.00    -0.164 OA 
HETATM    4  C   UNL     1      -6.196  16.221  68.309  1.00  0.00    -0.120 C  
HETATM    5  C   UNL     1      -7.154  15.301  67.611  1.00  0.00    -0.206 C  
HETATM    6  O   UNL     1      -5.392  16.968  67.776  1.00  0.00    -0.109 OA 
HETATM    7  C   UNL     1      -7.952  15.745  66.372  1.00  0.00    -0.039 C  
HETATM    8  C   UNL     1      -8.907  13.708  68.440  1.00  0.00    -0.152 C  
HETATM    9  C   UNL     1      -9.185  14.856  66.146  1.00  0.00    -0.268 A  
HETATM   10  C   UNL     1      -9.927  15.009  64.955  1.00  0.00    -0.188 A  
HETATM   11  O   UNL     1     -11.951  14.373  63.753  1.00  0.00    -0.332 OA 
HETATM   12  C   UNL     1     -11.096  14.293  64.808  1.00  0.00    -0.391 A  
HETATM   13  C   UNL     1      -9.636  13.914  67.124  1.00  0.00    -0.247 A  
HETATM   14  C   UNL     1     -11.543  13.422  65.772  1.00  0.00    -0.332 A  
HETATM   15  C   UNL     1     -13.028  13.531  64.212  1.00  0.00     0.394 C  
HETATM   16  O   UNL     1     -12.741  12.861  65.456  1.00  0.00    -0.568 OA 
HETATM   17  C   UNL     1     -10.831  13.195  66.924  1.00  0.00    -0.278 A  
ENDROOT
BRANCH   7  18
HETATM   18  C   UNL     1      -8.258  17.242  66.400  1.00  0.00    -0.317 A  
HETATM   19  O   UNL     1      -8.501  21.337  67.189  1.00  0.00    -0.559 OA 
HETATM   20  C   UNL     1      -9.388  19.155  67.366  1.00  0.00    -0.304 A  
HETATM   21  C   UNL     1      -7.355  18.127  65.792  1.00  0.00    -0.170 A  
HETATM   22  H   UNL     1      -9.181  21.678  67.757  1.00  0.00     0.000 HD 
HETATM   23  C   UNL     1      -9.319  17.782  67.137  1.00  0.00    -0.264 A  
HETATM   24  C   UNL     1      -8.407  20.012  66.837  1.00  0.00    -0.326 A  
HETATM   25  C   UNL     1      -7.408  19.511  66.001  1.00  0.00    -0.295 A  
BRANCH  25  26
HETATM   26  O   UNL     1      -6.407  20.155  65.327  1.00  0.00    -0.226 OA 
HETATM   27  C   UNL     1      -5.439  19.434  64.596  1.00  0.00    -0.209 C  
ENDBRANCH  25  26
BRANCH  20  28
HETATM   28  O   UNL     1     -10.352  19.731  68.169  1.00  0.00    -0.437 OA 
HETATM   29  C   UNL     1     -10.093  19.722  69.569  1.00  0.00    -0.018 C  
ENDBRANCH  20  28
ENDBRANCH   7  18
BRANCH   8  30
HETATM   30  O   UNL     1      -8.344  12.423  68.597  1.00  0.00    -0.107 OA 
BRANCH  30  31
HETATM   31  C   UNL     1      -9.075  11.196  68.672  1.00  0.00    -0.166 C  
HETATM   32  O   UNL     1      -9.923  11.122  69.826  1.00  0.00     0.200 OA 
HETATM   33  C   UNL     1     -10.398   9.790  70.073  1.00  0.00    -0.263 C  
HETATM   34  C   UNL     1     -11.435   9.705  71.194  1.00  0.00    -0.384 C  
HETATM   35  O   UNL     1     -11.763   8.340  71.463  1.00  0.00    -0.271 OA 
HETATM   36  C   UNL     1     -10.616   7.593  71.855  1.00  0.00    -0.218 C  
HETATM   37  C   UNL     1     -11.006   6.138  72.081  1.00  0.00    -0.307 C  
HETATM   38  O   UNL     1      -9.635   7.584  70.823  1.00  0.00    -0.167 OA 
HETATM   39  C   UNL     1      -9.222   8.904  70.468  1.00  0.00    -0.203 C  
HETATM   40  C   UNL     1      -8.319   8.763  69.257  1.00  0.00    -0.120 C  
HETATM   41  O   UNL     1      -7.126   8.058  69.637  1.00  0.00    -0.058 OA 
HETATM   42  C   UNL     1      -7.954  10.113  68.637  1.00  0.00    -0.103 C  
HETATM   43  H   UNL     1      -6.561   7.969  68.880  1.00  0.00     0.000 HD 
HETATM   44  O   UNL     1      -7.538   9.926  67.261  1.00  0.00    -0.088 OA 
HETATM   45  H   UNL     1      -6.854   9.265  67.240  1.00  0.00     0.000 HD 
ENDBRANCH  30  31
ENDBRANCH   8  30
TORSDOF 5
ENDMDL
MODEL       64
REMARK 921   NORMALIZED FREE ENERGY PREDICTED BY IDOCK:   -6.38 KCAL/MOL
REMARK 922        TOTAL FREE ENERGY PREDICTED BY IDOCK:   -9.48 KCAL/MOL
REMARK 923 INTER-LIGAND FREE ENERGY PREDICTED BY IDOCK:   -8.07 KCAL/MOL
REMARK 924 INTRA-LIGAND FREE ENERGY PREDICTED BY IDOCK:   -1.40 KCAL/MOL
REMARK 927      BINDING AFFINITY PREDICTED BY RF-SCORE:    0.00 PKD
ROOT
HETATM    1  C   UNL     1      -9.744   9.723  68.548  1.00  0.00    -0.164 C  
HETATM    2  C   UNL     1     -10.196  10.872  69.401  1.00  0.00    -0.122 C  
HETATM    3  O   UNL     1     -10.819  10.220  70.520  1.00  0.00    -0.301 OA 
HETATM    4  C   UNL     1     -11.233   8.962  70.153  1.00  0.00    -0.160 C  
HETATM    5  C   UNL     1     -10.844   8.699  68.727  1.00  0.00    -0.009 C  
HETATM    6  O   UNL     1     -11.929   8.248  70.855  1.00  0.00    -0.273 OA 
HETATM    7  C   UNL     1     -10.400   7.305  68.249  1.00  0.00    -0.227 C  
HETATM    8  C   UNL     1      -9.422   9.955  67.084  1.00  0.00    -0.158 C  
HETATM    9  C   UNL     1      -9.600   7.385  66.940  1.00  0.00    -0.240 A  
HETATM   10  C   UNL     1      -9.272   6.189  66.266  1.00  0.00    -0.163 A  
HETATM   11  O   UNL     1      -8.002   5.196  64.436  1.00  0.00    -0.094 OA 
HETATM   12  C   UNL     1      -8.457   6.257  65.156  1.00  0.00    -0.084 A  
HETATM   13  C   UNL     1      -9.133   8.628  66.406  1.00  0.00    -0.218 A  
HETATM   14  C   UNL     1      -7.978   7.452  64.676  1.00  0.00    -0.127 A  
HETATM   15  C   UNL     1      -7.109   5.855  63.516  1.00  0.00    -0.051 C  
HETATM   16  O   UNL     1      -7.149   7.293  63.611  1.00  0.00    -0.059 OA 
HETATM   17  C   UNL     1      -8.312   8.648  65.261  1.00  0.00    -0.177 A  
ENDROOT
BRANCH   7  18
HETATM   18  C   UNL     1      -9.705   6.517  69.359  1.00  0.00    -0.155 A  
HETATM   19  O   UNL     1      -7.365   3.956  71.685  1.00  0.00    -0.051 OA 
HETATM   20  C   UNL     1      -9.425   4.496  70.664  1.00  0.00    -0.170 A  
HETATM   21  C   UNL     1      -8.427   6.920  69.774  1.00  0.00    -0.133 A  
HETATM   22  H   UNL     1      -7.703   3.111  71.959  1.00  0.00     0.000 HD 
HETATM   23  C   UNL     1     -10.221   5.321  69.872  1.00  0.00    -0.364 A  
HETATM   24  C   UNL     1      -8.107   4.870  70.978  1.00  0.00    -0.092 A  
HETATM   25  C   UNL     1      -7.611   6.112  70.577  1.00  0.00    -0.096 A  
BRANCH  25  26
HETATM   26  O   UNL     1      -6.406   6.709  70.821  1.00  0.00    -0.044 OA 
HETATM   27  C   UNL     1      -5.207   6.169  70.311  1.00  0.00    -0.013 C  
ENDBRANCH  25  26
BRANCH  20  28
HETATM   28  O   UNL     1      -9.846   3.259  71.112  1.00  0.00    -0.168 OA 
HETATM   29  C   UNL     1      -9.735   2.183  70.187  1.00  0.00     0.092 C  
ENDBRANCH  20  28
ENDBRANCH   7  18
BRANCH   8  30
HETATM   30  O   UNL     1     -10.234  10.828  66.327  1.00  0.00    -0.231 OA 
BRANCH  30  31
HETATM   31  C   UNL     1      -9.863  12.139  65.889  1.00  0.00    -0.247 C  
HETATM   32  O   UNL     1      -9.587  13.033  66.975  1.00  0.00    -0.222 OA 
HETATM   33  C   UNL     1      -9.536  14.405  66.556  1.00  0.00    -0.293 C  
HETATM   34  C   UNL     1      -9.080  15.367  67.654  1.00  0.00    -0.182 C  
HETATM   35  O   UNL     1      -9.176  16.719  67.201  1.00  0.00    -0.217 OA 
HETATM   36  C   UNL     1     -10.511  17.056  66.836  1.00  0.00    -0.268 C  
HETATM   37  C   UNL     1     -10.552  18.485  66.313  1.00  0.00    -0.370 C  
HETATM   38  O   UNL     1     -10.972  16.231  65.771  1.00  0.00    -0.202 OA 
HETATM   39  C   UNL     1     -10.926  14.845  66.111  1.00  0.00    -0.334 C  
HETATM   40  C   UNL     1     -11.273  14.079  64.847  1.00  0.00    -0.362 C  
HETATM   41  O   UNL     1     -12.635  14.358  64.485  1.00  0.00    -0.651 OA 
HETATM   42  C   UNL     1     -11.072  12.570  65.002  1.00  0.00    -0.299 C  
HETATM   43  H   UNL     1     -12.853  13.879  63.695  1.00  0.00     0.000 HD 
HETATM   44  O   UNL     1     -10.928  11.957  63.697  1.00  0.00    -0.371 OA 
HETATM   45  H   UNL     1     -11.664  12.220  63.157  1.00  0.00     0.000 HD 
ENDBRANCH  30  31
ENDBRANCH   8  30
TORSDOF 5
ENDMDL
MODEL       65
REMARK 921   NORMALIZED FREE ENERGY PREDICTED BY IDOCK:   -6.35 KCAL/MOL
REMARK 922        TOTAL FREE ENERGY PREDICTED BY IDOCK:   -9.44 KCAL/MOL
REMARK 923 INTER-LIGAND FREE ENERGY PREDICTED BY IDOCK:   -8.21 KCAL/MOL
REMARK 924 INTRA-LIGAND FREE ENERGY PREDICTED BY IDOCK:   -1.24 KCAL/MOL
REMARK 927      BINDING AFFINITY PREDICTED BY RF-SCORE:    0.00 PKD
ROOT
HETATM    1  C   UNL     1      -8.010  12.383  67.973  1.00  0.00    -0.155 C  
HETATM    2  C   UNL     1      -6.893  12.020  68.907  1.00  0.00    -0.103 C  
HETATM    3  O   UNL     1      -6.688  13.229  69.655  1.00  0.00    -0.051 OA 
HETATM    4  C   UNL     1      -7.136  14.306  68.928  1.00  0.00    -0.113 C  
HETATM    5  C   UNL     1      -7.724  13.830  67.632  1.00  0.00    -0.187 C  
HETATM    6  O   UNL     1      -6.945  15.466  69.252  1.00  0.00    -0.141 OA 
HETATM    7  C   UNL     1      -8.949  14.511  66.995  1.00  0.00    -0.258 C  
HETATM    8  C   UNL     1      -8.253  11.548  66.730  1.00  0.00    -0.164 C  
HETATM    9  C   UNL     1      -9.651  13.587  65.989  1.00  0.00    -0.179 A  
HETATM   10  C   UNL     1     -10.681  14.113  65.182  1.00  0.00    -0.400 A  
HETATM   11  O   UNL     1     -12.442  13.593  63.576  1.00  0.00    -0.736 OA 
HETATM   12  C   UNL     1     -11.387  13.254  64.365  1.00  0.00    -0.383 A  
HETATM   13  C   UNL     1      -9.331  12.196  65.880  1.00  0.00    -0.135 A  
HETATM   14  C   UNL     1     -11.099  11.912  64.298  1.00  0.00    -0.356 A  
HETATM   15  C   UNL     1     -12.842  12.296  63.087  1.00  0.00     0.051 C  
HETATM   16  O   UNL     1     -11.946  11.236  63.478  1.00  0.00    -0.066 OA 
HETATM   17  C   UNL     1     -10.071  11.359  65.021  1.00  0.00    -0.323 A  
ENDROOT
BRANCH   7  18
HETATM   18  C   UNL     1      -9.879  15.110  68.049  1.00  0.00    -0.213 A  
HETATM   19  O   UNL     1     -11.645  16.807  71.433  1.00  0.00    -0.557 OA 
HETATM   20  C   UNL     1     -11.155  14.920  70.099  1.00  0.00    -0.213 A  
HETATM   21  C   UNL     1      -9.941  16.505  68.182  1.00  0.00    -0.248 A  
HETATM   22  H   UNL     1     -12.029  16.255  72.103  1.00  0.00     0.000 HD 
HETATM   23  C   UNL     1     -10.555  14.325  68.991  1.00  0.00    -0.243 A  
HETATM   24  C   UNL     1     -11.109  16.315  70.268  1.00  0.00    -0.332 A  
HETATM   25  C   UNL     1     -10.545  17.126  69.283  1.00  0.00    -0.220 A  
BRANCH  25  26
HETATM   26  O   UNL     1     -10.451  18.488  69.198  1.00  0.00    -0.111 OA 
HETATM   27  C   UNL     1      -9.449  19.104  68.419  1.00  0.00    -0.369 C  
ENDBRANCH  25  26
BRANCH  20  28
HETATM   28  O   UNL     1     -11.746  14.189  71.111  1.00  0.00    -0.232 OA 
HETATM   29  C   UNL     1     -12.732  13.243  70.711  1.00  0.00    -0.209 C  
ENDBRANCH  20  28
ENDBRANCH   7  18
BRANCH   8  30
HETATM   30  O   UNL     1      -7.148  11.062  65.996  1.00  0.00    -0.105 OA 
BRANCH  30  31
HETATM   31  C   UNL     1      -6.837   9.683  65.776  1.00  0.00    -0.093 C  
HETATM   32  O   UNL     1      -6.622   9.375  64.392  1.00  0.00    -0.084 OA 
HETATM   33  C   UNL     1      -6.633   7.961  64.138  1.00  0.00    -0.061 C  
HETATM   34  C   UNL     1      -6.241   7.592  62.706  1.00  0.00    -0.059 C  
HETATM   35  O   UNL     1      -6.397   6.186  62.497  1.00  0.00    -0.028 OA 
HETATM   36  C   UNL     1      -7.742   5.770  62.716  1.00  0.00    -0.084 C  
HETATM   37  C   UNL     1      -7.846   4.262  62.532  1.00  0.00    -0.065 C  
HETATM   38  O   UNL     1      -8.145   6.034  64.056  1.00  0.00    -0.120 OA 
HETATM   39  C   UNL     1      -8.036   7.419  64.383  1.00  0.00    -0.109 C  
HETATM   40  C   UNL     1      -8.326   7.536  65.868  1.00  0.00    -0.139 C  
HETATM   41  O   UNL     1      -9.695   7.173  66.112  1.00  0.00    -0.405 OA 
HETATM   42  C   UNL     1      -8.052   8.940  66.411  1.00  0.00    -0.110 C  
HETATM   43  H   UNL     1      -9.876   7.246  67.041  1.00  0.00     0.000 HD 
HETATM   44  O   UNL     1      -7.859   8.884  67.846  1.00  0.00    -0.100 OA 
HETATM   45  H   UNL     1      -8.599   8.431  68.233  1.00  0.00     0.000 HD 
ENDBRANCH  30  31
ENDBRANCH   8  30
TORSDOF 5
ENDMDL
MODEL       66
REMARK 921   NORMALIZED FREE ENERGY PREDICTED BY IDOCK:   -6.34 KCAL/MOL
REMARK 922        TOTAL FREE ENERGY PREDICTED BY IDOCK:   -9.42 KCAL/MOL
REMARK 923 INTER-LIGAND FREE ENERGY PREDICTED BY IDOCK:   -7.66 KCAL/MOL
REMARK 924 INTRA-LIGAND FREE ENERGY PREDICTED BY IDOCK:   -1.76 KCAL/MOL
REMARK 927      BINDING AFFINITY PREDICTED BY RF-SCORE:    0.00 PKD
ROOT
HETATM    1  C   UNL     1      -9.704  10.080  67.590  1.00  0.00    -0.185 C  
HETATM    2  C   UNL     1     -10.768   9.517  66.693  1.00  0.00    -0.016 C  
HETATM    3  O   UNL     1     -10.535   8.101  66.762  1.00  0.00    -0.326 OA 
HETATM    4  C   UNL     1      -9.228   7.862  67.114  1.00  0.00    -0.146 C  
HETATM    5  C   UNL     1      -8.523   9.166  67.349  1.00  0.00    -0.115 C  
HETATM    6  O   UNL     1      -8.715   6.756  67.095  1.00  0.00    -0.118 OA 
HETATM    7  C   UNL     1      -7.452   9.327  68.443  1.00  0.00    -0.078 C  
HETATM    8  C   UNL     1      -9.319  11.543  67.473  1.00  0.00    -0.166 C  
HETATM    9  C   UNL     1      -7.246  10.802  68.820  1.00  0.00    -0.091 A  
HETATM   10  C   UNL     1      -6.177  11.145  69.674  1.00  0.00    -0.108 A  
HETATM   11  O   UNL     1      -5.133  12.928  70.971  1.00  0.00    -0.122 OA 
HETATM   12  C   UNL     1      -6.065  12.451  70.103  1.00  0.00    -0.102 A  
HETATM   13  C   UNL     1      -8.132  11.833  68.374  1.00  0.00    -0.150 A  
HETATM   14  C   UNL     1      -6.947  13.427  69.702  1.00  0.00     0.216 A  
HETATM   15  C   UNL     1      -5.591  14.284  71.144  1.00  0.00    -0.197 C  
HETATM   16  O   UNL     1      -6.693  14.630  70.281  1.00  0.00    -0.173 OA 
HETATM   17  C   UNL     1      -7.971  13.157  68.828  1.00  0.00     0.050 A  
ENDROOT
BRANCH   7  18
HETATM   18  C   UNL     1      -7.716   8.408  69.636  1.00  0.00    -0.095 A  
HETATM   19  O   UNL     1      -8.007   6.566  73.373  1.00  0.00    -0.099 OA 
HETATM   20  C   UNL     1      -6.954   6.791  71.271  1.00  0.00    -0.074 A  
HETATM   21  C   UNL     1      -8.816   8.674  70.464  1.00  0.00    -0.182 A  
HETATM   22  H   UNL     1      -7.346   5.947  73.657  1.00  0.00     0.000 HD 
HETATM   23  C   UNL     1      -6.820   7.405  70.027  1.00  0.00    -0.055 A  
HETATM   24  C   UNL     1      -8.005   7.154  72.132  1.00  0.00    -0.091 A  
HETATM   25  C   UNL     1      -8.977   8.065  71.714  1.00  0.00    -0.147 A  
BRANCH  25  26
HETATM   26  O   UNL     1     -10.108   8.508  72.342  1.00  0.00    -0.305 OA 
HETATM   27  C   UNL     1     -11.262   7.701  72.424  1.00  0.00    -0.320 C  
ENDBRANCH  25  26
BRANCH  20  28
HETATM   28  O   UNL     1      -6.044   5.872  71.752  1.00  0.00    -0.033 OA 
HETATM   29  C   UNL     1      -5.282   5.170  70.776  1.00  0.00    -0.004 C  
ENDBRANCH  20  28
ENDBRANCH   7  18
BRANCH   8  30
HETATM   30  O   UNL     1      -9.237  12.136  66.195  1.00  0.00    -0.220 OA 
BRANCH  30  31
HETATM   31  C   UNL     1      -9.789  13.405  65.829  1.00  0.00    -0.198 C  
HETATM   32  O   UNL     1      -8.865  14.487  66.008  1.00  0.00     0.042 OA 
HETATM   33  C   UNL     1      -9.508  15.770  65.955  1.00  0.00    -0.357 C  
HETATM   34  C   UNL     1      -8.532  16.948  65.976  1.00  0.00    -0.151 C  
HETATM   35  O   UNL     1      -9.247  18.183  66.048  1.00  0.00    -0.507 OA 
HETATM   36  C   UNL     1     -10.058  18.252  67.217  1.00  0.00    -0.355 C  
HETATM   37  C   UNL     1     -10.837  19.560  67.222  1.00  0.00    -0.557 C  
HETATM   38  O   UNL     1     -11.031  17.213  67.224  1.00  0.00    -0.177 OA 
HETATM   39  C   UNL     1     -10.430  15.919  67.159  1.00  0.00    -0.313 C  
HETATM   40  C   UNL     1     -11.565  14.923  67.001  1.00  0.00    -0.304 C  
HETATM   41  O   UNL     1     -12.370  14.932  68.191  1.00  0.00    -0.578 OA 
HETATM   42  C   UNL     1     -11.066  13.505  66.718  1.00  0.00    -0.299 C  
HETATM   43  H   UNL     1     -13.080  14.310  68.093  1.00  0.00     0.000 HD 
HETATM   44  O   UNL     1     -12.120  12.727  66.099  1.00  0.00    -0.455 OA 
HETATM   45  H   UNL     1     -12.899  12.788  66.641  1.00  0.00     0.000 HD 
ENDBRANCH  30  31
ENDBRANCH   8  30
TORSDOF 5
ENDMDL
MODEL       67
REMARK 921   NORMALIZED FREE ENERGY PREDICTED BY IDOCK:   -6.34 KCAL/MOL
REMARK 922        TOTAL FREE ENERGY PREDICTED BY IDOCK:   -9.42 KCAL/MOL
REMARK 923 INTER-LIGAND FREE ENERGY PREDICTED BY IDOCK:  -10.09 KCAL/MOL
REMARK 924 INTRA-LIGAND FREE ENERGY PREDICTED BY IDOCK:    0.67 KCAL/MOL
REMARK 927      BINDING AFFINITY PREDICTED BY RF-SCORE:    0.00 PKD
ROOT
HETATM    1  C   UNL     1     -11.828  12.497  69.066  1.00  0.00    -0.344 C  
HETATM    2  C   UNL     1     -12.693  13.245  70.039  1.00  0.00     0.157 C  
HETATM    3  O   UNL     1     -12.290  14.611  69.847  1.00  0.00    -0.321 OA 
HETATM    4  C   UNL     1     -11.017  14.652  69.333  1.00  0.00    -0.257 C  
HETATM    5  C   UNL     1     -10.518  13.255  69.108  1.00  0.00     0.054 C  
HETATM    6  O   UNL     1     -10.368  15.678  69.218  1.00  0.00    -0.217 OA 
HETATM    7  C   UNL     1      -9.619  12.894  67.912  1.00  0.00    -0.215 C  
HETATM    8  C   UNL     1     -11.621  11.004  69.237  1.00  0.00    -0.314 C  
HETATM    9  C   UNL     1      -9.651  11.387  67.614  1.00  0.00    -0.176 A  
HETATM   10  C   UNL     1      -8.748  10.858  66.668  1.00  0.00    -0.156 A  
HETATM   11  O   UNL     1      -8.107   8.886  65.384  1.00  0.00    -0.107 OA 
HETATM   12  C   UNL     1      -8.858   9.528  66.319  1.00  0.00    -0.149 A  
HETATM   13  C   UNL     1     -10.601  10.509  68.228  1.00  0.00    -0.240 A  
HETATM   14  C   UNL     1      -9.801   8.703  66.883  1.00  0.00    -0.238 A  
HETATM   15  C   UNL     1      -8.753   7.597  65.357  1.00  0.00     0.001 C  
HETATM   16  O   UNL     1      -9.776   7.449  66.361  1.00  0.00    -0.173 OA 
HETATM   17  C   UNL     1     -10.667   9.154  67.849  1.00  0.00    -0.224 A  
ENDROOT
BRANCH   7  18
HETATM   18  C   UNL     1      -9.907  13.777  66.698  1.00  0.00    -0.286 A  
HETATM   19  O   UNL     1     -11.331  16.568  63.936  1.00  0.00    -1.557 OA 
HETATM   20  C   UNL     1     -11.269  14.364  64.783  1.00  0.00    -0.387 A  
HETATM   21  C   UNL     1      -9.347  15.062  66.649  1.00  0.00    -0.290 A  
HETATM   22  H   UNL     1     -12.014  16.331  63.321  1.00  0.00     0.000 HD 
HETATM   23  C   UNL     1     -10.828  13.418  65.706  1.00  0.00    -0.283 A  
HETATM   24  C   UNL     1     -10.774  15.679  64.823  1.00  0.00    -0.276 A  
HETATM   25  C   UNL     1      -9.769  16.028  65.726  1.00  0.00    -0.305 A  
BRANCH  25  26
HETATM   26  O   UNL     1      -9.097  17.206  65.898  1.00  0.00    -0.513 OA 
HETATM   27  C   UNL     1      -7.746  17.223  66.306  1.00  0.00    -0.318 C  
ENDBRANCH  25  26
BRANCH  20  28
HETATM   28  O   UNL     1     -12.250  14.095  63.848  1.00  0.00    -0.567 OA 
HETATM   29  C   UNL     1     -12.155  12.843  63.178  1.00  0.00    -0.270 C  
ENDBRANCH  20  28
ENDBRANCH   7  18
BRANCH   8  30
HETATM   30  O   UNL     1     -11.460  10.472  70.534  1.00  0.00    -0.313 OA 
BRANCH  30  31
HETATM   31  C   UNL     1     -10.291   9.807  71.023  1.00  0.00    -0.103 C  
HETATM   32  O   UNL     1      -9.187   9.878  70.111  1.00  0.00    -0.228 OA 
HETATM   33  C   UNL     1      -8.140   8.953  70.445  1.00  0.00    -0.128 C  
HETATM   34  C   UNL     1      -6.880   9.119  69.593  1.00  0.00    -0.054 C  
HETATM   35  O   UNL     1      -5.937   8.088  69.898  1.00  0.00    -0.023 OA 
HETATM   36  C   UNL     1      -6.479   6.794  69.651  1.00  0.00    -0.044 C  
HETATM   37  C   UNL     1      -5.459   5.732  70.038  1.00  0.00    -0.009 C  
HETATM   38  O   UNL     1      -7.624   6.557  70.464  1.00  0.00    -0.091 OA 
HETATM   39  C   UNL     1      -8.646   7.530  70.243  1.00  0.00    -0.144 C  
HETATM   40  C   UNL     1      -9.723   7.268  71.279  1.00  0.00    -0.166 C  
HETATM   41  O   UNL     1     -10.325   5.989  71.022  1.00  0.00    -0.201 OA 
HETATM   42  C   UNL     1     -10.796   8.358  71.298  1.00  0.00    -0.239 C  
HETATM   43  H   UNL     1     -10.999   5.825  71.670  1.00  0.00     0.000 HD 
HETATM   44  O   UNL     1     -11.489   8.345  72.571  1.00  0.00    -0.380 OA 
HETATM   45  H   UNL     1     -11.797   7.461  72.738  1.00  0.00     0.000 HD 
ENDBRANCH  30  31
ENDBRANCH   8  30
TORSDOF 5
ENDMDL
MODEL       68
REMARK 921   NORMALIZED FREE ENERGY PREDICTED BY IDOCK:   -6.33 KCAL/MOL
REMARK 922        TOTAL FREE ENERGY PREDICTED BY IDOCK:   -9.42 KCAL/MOL
REMARK 923 INTER-LIGAND FREE ENERGY PREDICTED BY IDOCK:   -7.88 KCAL/MOL
REMARK 924 INTRA-LIGAND FREE ENERGY PREDICTED BY IDOCK:   -1.54 KCAL/MOL
REMARK 927      BINDING AFFINITY PREDICTED BY RF-SCORE:    0.00 PKD
ROOT
HETATM    1  C   UNL     1     -11.227  12.086  68.120  1.00  0.00    -0.316 C  
HETATM    2  C   UNL     1     -12.397  12.437  68.992  1.00  0.00     0.212 C  
HETATM    3  O   UNL     1     -12.062  13.750  69.470  1.00  0.00    -0.324 OA 
HETATM    4  C   UNL     1     -10.701  13.928  69.424  1.00  0.00    -0.015 C  
HETATM    5  C   UNL     1     -10.052  12.706  68.844  1.00  0.00     0.047 C  
HETATM    6  O   UNL     1     -10.128  14.887  69.914  1.00  0.00    -0.090 OA 
HETATM    7  C   UNL     1      -8.813  12.796  67.935  1.00  0.00    -0.186 C  
HETATM    8  C   UNL     1     -10.966  10.636  67.760  1.00  0.00    -0.306 C  
HETATM    9  C   UNL     1      -8.639  11.526  67.089  1.00  0.00    -0.155 A  
HETATM   10  C   UNL     1      -7.457  11.364  66.335  1.00  0.00    -0.013 A  
HETATM   11  O   UNL     1      -6.313  10.017  64.655  1.00  0.00    -0.111 OA 
HETATM   12  C   UNL     1      -7.355  10.280  65.489  1.00  0.00    -0.149 A  
HETATM   13  C   UNL     1      -9.657  10.524  66.999  1.00  0.00    -0.202 A  
HETATM   14  C   UNL     1      -8.356   9.346  65.378  1.00  0.00    -0.137 A  
HETATM   15  C   UNL     1      -6.820   8.870  63.941  1.00  0.00    -0.087 C  
HETATM   16  O   UNL     1      -8.081   8.392  64.450  1.00  0.00    -0.151 OA 
HETATM   17  C   UNL     1      -9.502   9.426  66.130  1.00  0.00    -0.287 A  
ENDROOT
BRANCH   7  18
HETATM   18  C   UNL     1      -8.793  14.093  67.127  1.00  0.00    -0.241 A  
HETATM   19  O   UNL     1      -9.278  17.952  65.604  1.00  0.00    -0.362 OA 
HETATM   20  C   UNL     1      -9.854  15.661  65.616  1.00  0.00    -0.333 A  
HETATM   21  C   UNL     1      -7.906  15.111  67.504  1.00  0.00    -0.203 A  
HETATM   22  H   UNL     1      -9.971  18.140  64.982  1.00  0.00     0.000 HD 
HETATM   23  C   UNL     1      -9.729  14.369  66.122  1.00  0.00    -0.335 A  
HETATM   24  C   UNL     1      -9.025  16.693  66.090  1.00  0.00    -0.286 A  
HETATM   25  C   UNL     1      -8.007  16.416  67.004  1.00  0.00    -0.205 A  
BRANCH  25  26
HETATM   26  O   UNL     1      -7.050  17.230  67.543  1.00  0.00    -0.155 OA 
HETATM   27  C   UNL     1      -5.966  17.695  66.768  1.00  0.00    -0.168 C  
ENDBRANCH  25  26
BRANCH  20  28
HETATM   28  O   UNL     1     -10.826  16.014  64.701  1.00  0.00    -0.608 OA 
HETATM   29  C   UNL     1     -11.919  15.112  64.564  1.00  0.00    -0.319 C  
ENDBRANCH  20  28
ENDBRANCH   7  18
BRANCH   8  30
HETATM   30  O   UNL     1     -11.158   9.635  68.737  1.00  0.00    -0.162 OA 
BRANCH  30  31
HETATM   31  C   UNL     1     -10.523   9.590  70.019  1.00  0.00    -0.247 C  
HETATM   32  O   UNL     1      -9.127   9.271  69.938  1.00  0.00    -0.161 OA 
HETATM   33  C   UNL     1      -8.574   8.910  71.214  1.00  0.00    -0.198 C  
HETATM   34  C   UNL     1      -7.055   8.726  71.195  1.00  0.00    -0.089 C  
HETATM   35  O   UNL     1      -6.598   8.247  72.461  1.00  0.00    -0.077 OA 
HETATM   36  C   UNL     1      -7.197   6.999  72.797  1.00  0.00    -0.073 C  
HETATM   37  C   UNL     1      -6.719   6.557  74.174  1.00  0.00    -0.073 C  
HETATM   38  O   UNL     1      -8.613   7.121  72.891  1.00  0.00    -0.116 OA 
HETATM   39  C   UNL     1      -9.189   7.593  71.672  1.00  0.00    -0.134 C  
HETATM   40  C   UNL     1     -10.659   7.840  71.957  1.00  0.00    -0.228 C  
HETATM   41  O   UNL     1     -11.301   6.588  72.246  1.00  0.00    -0.258 OA 
HETATM   42  C   UNL     1     -11.371   8.538  70.797  1.00  0.00    -0.266 C  
HETATM   43  H   UNL     1     -12.221   6.743  72.425  1.00  0.00     0.000 HD 
HETATM   44  O   UNL     1     -12.577   9.183  71.277  1.00  0.00    -0.312 OA 
HETATM   45  H   UNL     1     -13.094   8.543  71.752  1.00  0.00     0.000 HD 
ENDBRANCH  30  31
ENDBRANCH   8  30
TORSDOF 5
ENDMDL
MODEL       69
REMARK 921   NORMALIZED FREE ENERGY PREDICTED BY IDOCK:   -6.32 KCAL/MOL
REMARK 922        TOTAL FREE ENERGY PREDICTED BY IDOCK:   -9.40 KCAL/MOL
REMARK 923 INTER-LIGAND FREE ENERGY PREDICTED BY IDOCK:   -8.01 KCAL/MOL
REMARK 924 INTRA-LIGAND FREE ENERGY PREDICTED BY IDOCK:   -1.39 KCAL/MOL
REMARK 927      BINDING AFFINITY PREDICTED BY RF-SCORE:    0.00 PKD
ROOT
HETATM    1  C   UNL     1     -10.282   9.939  68.963  1.00  0.00    -0.213 C  
HETATM    2  C   UNL     1     -10.714  10.136  70.386  1.00  0.00    -0.266 C  
HETATM    3  O   UNL     1     -10.654   8.808  70.931  1.00  0.00    -0.199 OA 
HETATM    4  C   UNL     1     -10.773   7.886  69.919  1.00  0.00    -0.244 C  
HETATM    5  C   UNL     1     -10.874   8.595  68.600  1.00  0.00    -0.003 C  
HETATM    6  O   UNL     1     -10.912   6.689  70.108  1.00  0.00    -0.257 OA 
HETATM    7  C   UNL     1     -10.238   8.025  67.319  1.00  0.00    -0.345 C  
HETATM    8  C   UNL     1     -10.606  10.997  67.925  1.00  0.00    -0.205 C  
HETATM    9  C   UNL     1     -10.039   9.114  66.254  1.00  0.00    -0.319 A  
HETATM   10  C   UNL     1      -9.636   8.734  64.956  1.00  0.00     0.501 A  
HETATM   11  O   UNL     1      -8.890   9.522  62.772  1.00  0.00    -0.223 OA 
HETATM   12  C   UNL     1      -9.346   9.721  64.037  1.00  0.00    -0.155 A  
HETATM   13  C   UNL     1     -10.199  10.506  66.548  1.00  0.00    -0.288 A  
HETATM   14  C   UNL     1      -9.463  11.056  64.342  1.00  0.00    -0.238 A  
HETATM   15  C   UNL     1      -8.641  10.880  62.356  1.00  0.00    -0.297 C  
HETATM   16  O   UNL     1      -9.076  11.862  63.318  1.00  0.00    -0.074 OA 
HETATM   17  C   UNL     1      -9.904  11.479  65.572  1.00  0.00    -0.269 A  
ENDROOT
BRANCH   7  18
HETATM   18  C   UNL     1      -8.981   7.210  67.622  1.00  0.00    -0.125 A  
HETATM   19  O   UNL     1      -5.916   4.921  69.299  1.00  0.00    -0.016 OA 
HETATM   20  C   UNL     1      -6.774   7.008  68.601  1.00  0.00    -0.063 A  
HETATM   21  C   UNL     1      -9.063   5.810  67.606  1.00  0.00    -0.106 A  
HETATM   22  H   UNL     1      -5.149   5.342  69.669  1.00  0.00     0.000 HD 
HETATM   23  C   UNL     1      -7.790   7.798  68.067  1.00  0.00    -0.124 A  
HETATM   24  C   UNL     1      -6.925   5.612  68.675  1.00  0.00    -0.064 A  
HETATM   25  C   UNL     1      -8.052   4.995  68.130  1.00  0.00    -0.086 A  
BRANCH  25  26
HETATM   26  O   UNL     1      -8.377   3.670  68.025  1.00  0.00    -0.089 OA 
HETATM   27  C   UNL     1      -9.166   3.032  69.004  1.00  0.00    -0.156 C  
ENDBRANCH  25  26
BRANCH  20  28
HETATM   28  O   UNL     1      -5.623   7.540  69.147  1.00  0.00    -0.018 OA 
HETATM   29  C   UNL     1      -5.800   8.430  70.245  1.00  0.00    -0.028 C  
ENDBRANCH  20  28
ENDBRANCH   7  18
BRANCH   8  30
HETATM   30  O   UNL     1     -11.862  11.642  67.963  1.00  0.00    -0.514 OA 
BRANCH  30  31
HETATM   31  C   UNL     1     -12.070  13.055  68.048  1.00  0.00    -0.174 C  
HETATM   32  O   UNL     1     -11.363  13.784  67.035  1.00  0.00    -0.304 OA 
HETATM   33  C   UNL     1     -11.307  15.192  67.312  1.00  0.00    -0.303 C  
HETATM   34  C   UNL     1     -10.708  16.019  66.173  1.00  0.00    -0.244 C  
HETATM   35  O   UNL     1     -10.571  17.385  66.571  1.00  0.00    -0.285 OA 
HETATM   36  C   UNL     1      -9.729  17.516  67.713  1.00  0.00    -0.274 C  
HETATM   37  C   UNL     1      -9.655  18.979  68.127  1.00  0.00    -0.395 C  
HETATM   38  O   UNL     1     -10.268  16.815  68.828  1.00  0.00    -0.261 OA 
HETATM   39  C   UNL     1     -10.448  15.426  68.549  1.00  0.00    -0.234 C  
HETATM   40  C   UNL     1     -11.180  14.838  69.741  1.00  0.00    -0.273 C  
HETATM   41  O   UNL     1     -10.331  14.908  70.898  1.00  0.00    -0.368 OA 
HETATM   42  C   UNL     1     -11.622  13.392  69.503  1.00  0.00    -0.290 C  
HETATM   43  H   UNL     1     -10.789  14.540  71.644  1.00  0.00     0.000 HD 
HETATM   44  O   UNL     1     -12.702  13.053  70.408  1.00  0.00    -0.126 OA 
HETATM   45  H   UNL     1     -12.429  13.259  71.295  1.00  0.00     0.000 HD 
ENDBRANCH  30  31
ENDBRANCH   8  30
TORSDOF 5
ENDMDL
MODEL       70
REMARK 921   NORMALIZED FREE ENERGY PREDICTED BY IDOCK:   -6.32 KCAL/MOL
REMARK 922        TOTAL FREE ENERGY PREDICTED BY IDOCK:   -9.40 KCAL/MOL
REMARK 923 INTER-LIGAND FREE ENERGY PREDICTED BY IDOCK:   -7.87 KCAL/MOL
REMARK 924 INTRA-LIGAND FREE ENERGY PREDICTED BY IDOCK:   -1.53 KCAL/MOL
REMARK 927      BINDING AFFINITY PREDICTED BY RF-SCORE:    0.00 PKD
ROOT
HETATM    1  C   UNL     1      -8.042   7.848  71.041  1.00  0.00    -0.098 C  
HETATM    2  C   UNL     1      -7.673   9.022  71.900  1.00  0.00     0.207 C  
HETATM    3  O   UNL     1      -8.294   8.711  73.158  1.00  0.00    -0.405 OA 
HETATM    4  C   UNL     1      -9.347   7.852  72.956  1.00  0.00    -0.265 C  
HETATM    5  C   UNL     1      -9.443   7.505  71.499  1.00  0.00    -0.166 C  
HETATM    6  O   UNL     1     -10.146   7.546  73.825  1.00  0.00    -0.319 OA 
HETATM    7  C   UNL     1      -9.865   6.104  71.022  1.00  0.00    -0.213 C  
HETATM    8  C   UNL     1      -7.956   7.965  69.530  1.00  0.00    -0.116 C  
HETATM    9  C   UNL     1      -9.421   5.841  69.575  1.00  0.00    -0.168 A  
HETATM   10  C   UNL     1      -9.881   4.680  68.920  1.00  0.00    -0.211 A  
HETATM   11  O   UNL     1      -9.685   3.283  66.930  1.00  0.00    -0.105 OA 
HETATM   12  C   UNL     1      -9.389   4.389  67.664  1.00  0.00    -0.154 A  
HETATM   13  C   UNL     1      -8.515   6.709  68.887  1.00  0.00    -0.123 A  
HETATM   14  C   UNL     1      -8.486   5.207  67.029  1.00  0.00    -0.106 A  
HETATM   15  C   UNL     1      -8.791   3.453  65.811  1.00  0.00    -0.133 C  
HETATM   16  O   UNL     1      -8.086   4.711  65.828  1.00  0.00    -0.101 OA 
HETATM   17  C   UNL     1      -8.049   6.377  67.599  1.00  0.00    -0.114 A  
ENDROOT
BRANCH   7  18
HETATM   18  C   UNL     1      -9.447   5.016  72.011  1.00  0.00    -0.180 A  
HETATM   19  O   UNL     1      -8.392   1.486  73.979  1.00  0.00    -0.045 OA 
HETATM   20  C   UNL     1      -9.986   3.149  73.457  1.00  0.00    -0.110 A  
HETATM   21  C   UNL     1      -8.108   4.598  72.029  1.00  0.00    -0.101 A  
HETATM   22  H   UNL     1      -9.049   0.977  74.438  1.00  0.00     0.000 HD 
HETATM   23  C   UNL     1     -10.371   4.312  72.792  1.00  0.00    -0.243 A  
HETATM   24  C   UNL     1      -8.661   2.688  73.370  1.00  0.00    -0.078 A  
HETATM   25  C   UNL     1      -7.696   3.437  72.696  1.00  0.00    -0.066 A  
BRANCH  25  26
HETATM   26  O   UNL     1      -6.353   3.226  72.542  1.00  0.00    -0.013 OA 
HETATM   27  C   UNL     1      -5.703   3.518  71.325  1.00  0.00    -0.013 C  
ENDBRANCH  25  26
BRANCH  20  28
HETATM   28  O   UNL     1     -10.877   2.359  74.156  1.00  0.00    -0.164 OA 
HETATM   29  C   UNL     1     -11.743   1.542  73.375  1.00  0.00    -0.182 C  
ENDBRANCH  20  28
ENDBRANCH   7  18
BRANCH   8  30
HETATM   30  O   UNL     1      -8.356   9.166  68.905  1.00  0.00    -0.120 OA 
BRANCH  30  31
HETATM   31  C   UNL     1      -9.318   9.276  67.852  1.00  0.00    -0.129 C  
HETATM   32  O   UNL     1      -8.784   9.890  66.671  1.00  0.00    -0.127 OA 
HETATM   33  C   UNL     1      -9.810  10.291  65.750  1.00  0.00    -0.257 C  
HETATM   34  C   UNL     1      -9.270  10.796  64.411  1.00  0.00    -0.221 C  
HETATM   35  O   UNL     1     -10.338  11.292  63.601  1.00  0.00    -0.341 OA 
HETATM   36  C   UNL     1     -11.026  12.363  64.240  1.00  0.00    -0.351 C  
HETATM   37  C   UNL     1     -12.184  12.822  63.363  1.00  0.00    -0.594 C  
HETATM   38  O   UNL     1     -11.605  11.937  65.469  1.00  0.00    -0.317 OA 
HETATM   39  C   UNL     1     -10.625  11.420  66.370  1.00  0.00    -0.263 C  
HETATM   40  C   UNL     1     -11.385  10.849  67.553  1.00  0.00    -0.232 C  
HETATM   41  O   UNL     1     -12.046  11.918  68.250  1.00  0.00    -0.485 OA 
HETATM   42  C   UNL     1     -10.479  10.079  68.515  1.00  0.00    -0.202 C  
HETATM   43  H   UNL     1     -12.522  11.561  68.990  1.00  0.00     0.000 HD 
HETATM   44  O   UNL     1     -11.273   9.166  69.313  1.00  0.00    -0.440 OA 
HETATM   45  H   UNL     1     -11.980   9.655  69.718  1.00  0.00     0.000 HD 
ENDBRANCH  30  31
ENDBRANCH   8  30
TORSDOF 5
ENDMDL
MODEL       71
REMARK 921   NORMALIZED FREE ENERGY PREDICTED BY IDOCK:   -6.31 KCAL/MOL
REMARK 922        TOTAL FREE ENERGY PREDICTED BY IDOCK:   -9.39 KCAL/MOL
REMARK 923 INTER-LIGAND FREE ENERGY PREDICTED BY IDOCK:   -7.94 KCAL/MOL
REMARK 924 INTRA-LIGAND FREE ENERGY PREDICTED BY IDOCK:   -1.45 KCAL/MOL
REMARK 927      BINDING AFFINITY PREDICTED BY RF-SCORE:    0.00 PKD
ROOT
HETATM    1  C   UNL     1      -7.839  12.635  68.520  1.00  0.00    -0.104 C  
HETATM    2  C   UNL     1      -6.786  12.144  69.470  1.00  0.00    -0.017 C  
HETATM    3  O   UNL     1      -6.041  13.335  69.772  1.00  0.00    -0.118 OA 
HETATM    4  C   UNL     1      -6.190  14.246  68.754  1.00  0.00    -0.085 C  
HETATM    5  C   UNL     1      -7.118  13.692  67.713  1.00  0.00    -0.167 C  
HETATM    6  O   UNL     1      -5.546  15.279  68.672  1.00  0.00    -0.085 OA 
HETATM    7  C   UNL     1      -8.107  14.587  66.944  1.00  0.00    -0.015 C  
HETATM    8  C   UNL     1      -8.569  11.646  67.630  1.00  0.00    -0.142 C  
HETATM    9  C   UNL     1      -9.251  13.767  66.329  1.00  0.00    -0.095 A  
HETATM   10  C   UNL     1     -10.145  14.402  65.441  1.00  0.00    -0.388 A  
HETATM   11  O   UNL     1     -12.218  14.180  64.175  1.00  0.00    -0.556 OA 
HETATM   12  C   UNL     1     -11.237  13.694  64.983  1.00  0.00    -0.321 A  
HETATM   13  C   UNL     1      -9.471  12.394  66.666  1.00  0.00    -0.232 A  
HETATM   14  C   UNL     1     -11.463  12.389  65.345  1.00  0.00    -0.358 A  
HETATM   15  C   UNL     1     -13.130  13.063  64.156  1.00  0.00     0.402 C  
HETATM   16  O   UNL     1     -12.620  11.896  64.830  1.00  0.00    -0.305 OA 
HETATM   17  C   UNL     1     -10.594  11.707  66.162  1.00  0.00    -0.306 A  
ENDROOT
BRANCH   7  18
HETATM   18  C   UNL     1      -8.571  15.775  67.786  1.00  0.00    -0.164 A  
HETATM   19  O   UNL     1     -10.410  19.174  69.370  1.00  0.00    -0.504 OA 
HETATM   20  C   UNL     1      -8.590  18.149  68.269  1.00  0.00    -0.288 A  
HETATM   21  C   UNL     1      -9.742  15.647  68.547  1.00  0.00    -0.202 A  
HETATM   22  H   UNL     1     -10.027  20.033  69.242  1.00  0.00     0.000 HD 
HETATM   23  C   UNL     1      -7.965  17.035  67.711  1.00  0.00    -0.192 A  
HETATM   24  C   UNL     1      -9.821  18.013  68.933  1.00  0.00    -0.314 A  
HETATM   25  C   UNL     1     -10.385  16.750  69.123  1.00  0.00    -0.326 A  
BRANCH  25  26
HETATM   26  O   UNL     1     -11.519  16.373  69.787  1.00  0.00    -0.253 OA 
HETATM   27  C   UNL     1     -11.555  16.318  71.197  1.00  0.00    -0.328 C  
ENDBRANCH  25  26
BRANCH  20  28
HETATM   28  O   UNL     1      -8.091  19.429  68.137  1.00  0.00    -0.298 OA 
HETATM   29  C   UNL     1      -7.910  19.902  66.806  1.00  0.00    -0.302 C  
ENDBRANCH  20  28
ENDBRANCH   7  18
BRANCH   8  30
HETATM   30  O   UNL     1      -7.851  10.580  67.047  1.00  0.00    -0.110 OA 
BRANCH  30  31
HETATM   31  C   UNL     1      -8.041   9.191  67.335  1.00  0.00    -0.107 C  
HETATM   32  O   UNL     1      -9.318   8.914  67.926  1.00  0.00    -0.140 OA 
HETATM   33  C   UNL     1      -9.380   7.601  68.504  1.00  0.00    -0.147 C  
HETATM   34  C   UNL     1     -10.776   7.212  68.994  1.00  0.00    -0.184 C  
HETATM   35  O   UNL     1     -10.732   5.951  69.667  1.00  0.00    -0.279 OA 
HETATM   36  C   UNL     1      -9.856   5.987  70.789  1.00  0.00    -0.181 C  
HETATM   37  C   UNL     1      -9.803   4.612  71.440  1.00  0.00    -0.264 C  
HETATM   38  O   UNL     1      -8.523   6.286  70.387  1.00  0.00    -0.130 OA 
HETATM   39  C   UNL     1      -8.440   7.536  69.702  1.00  0.00    -0.135 C  
HETATM   40  C   UNL     1      -7.019   7.650  69.183  1.00  0.00    -0.068 C  
HETATM   41  O   UNL     1      -6.115   7.743  70.297  1.00  0.00    -0.029 OA 
HETATM   42  C   UNL     1      -6.828   8.851  68.254  1.00  0.00    -0.065 C  
HETATM   43  H   UNL     1      -5.226   7.814  69.973  1.00  0.00     0.000 HD 
HETATM   44  O   UNL     1      -5.661   8.646  67.420  1.00  0.00    -0.038 OA 
HETATM   45  H   UNL     1      -4.922   8.439  67.980  1.00  0.00     0.000 HD 
ENDBRANCH  30  31
ENDBRANCH   8  30
TORSDOF 5
ENDMDL
MODEL       72
REMARK 921   NORMALIZED FREE ENERGY PREDICTED BY IDOCK:   -6.31 KCAL/MOL
REMARK 922        TOTAL FREE ENERGY PREDICTED BY IDOCK:   -9.39 KCAL/MOL
REMARK 923 INTER-LIGAND FREE ENERGY PREDICTED BY IDOCK:   -7.70 KCAL/MOL
REMARK 924 INTRA-LIGAND FREE ENERGY PREDICTED BY IDOCK:   -1.69 KCAL/MOL
REMARK 927      BINDING AFFINITY PREDICTED BY RF-SCORE:    0.00 PKD
ROOT
HETATM    1  C   UNL     1      -7.883   8.118  70.479  1.00  0.00    -0.087 C  
HETATM    2  C   UNL     1      -7.416   9.192  71.418  1.00  0.00     0.023 C  
HETATM    3  O   UNL     1      -8.068   8.850  72.652  1.00  0.00    -0.383 OA 
HETATM    4  C   UNL     1      -9.191   8.102  72.392  1.00  0.00    -0.226 C  
HETATM    5  C   UNL     1      -9.310   7.867  70.915  1.00  0.00    -0.162 C  
HETATM    6  O   UNL     1     -10.017   7.807  73.239  1.00  0.00    -0.288 OA 
HETATM    7  C   UNL     1      -9.851   6.545  70.341  1.00  0.00    -0.193 C  
HETATM    8  C   UNL     1      -7.780   8.332  68.981  1.00  0.00    -0.098 C  
HETATM    9  C   UNL     1      -9.425   6.347  68.879  1.00  0.00    -0.128 A  
HETATM   10  C   UNL     1      -9.981   5.279  68.144  1.00  0.00    -0.209 A  
HETATM   11  O   UNL     1      -9.899   4.013  66.061  1.00  0.00    -0.198 OA 
HETATM   12  C   UNL     1      -9.511   5.034  66.871  1.00  0.00    -0.142 A  
HETATM   13  C   UNL     1      -8.443   7.178  68.251  1.00  0.00    -0.124 A  
HETATM   14  C   UNL     1      -8.537   5.813  66.293  1.00  0.00    -0.130 A  
HETATM   15  C   UNL     1      -8.989   4.182  64.955  1.00  0.00    -0.137 C  
HETATM   16  O   UNL     1      -8.177   5.370  65.060  1.00  0.00    -0.123 OA 
HETATM   17  C   UNL     1      -8.002   6.898  66.943  1.00  0.00    -0.109 A  
ENDROOT
BRANCH   7  18
HETATM   18  C   UNL     1      -9.534   5.359  71.251  1.00  0.00    -0.191 A  
HETATM   19  O   UNL     1      -8.673   2.760  74.405  1.00  0.00    -0.074 OA 
HETATM   20  C   UNL     1      -7.968   4.055  72.560  1.00  0.00    -0.082 A  
HETATM   21  C   UNL     1     -10.579   4.761  71.971  1.00  0.00    -0.176 A  
HETATM   22  H   UNL     1      -7.774   2.549  74.623  1.00  0.00     0.000 HD 
HETATM   23  C   UNL     1      -8.224   4.941  71.515  1.00  0.00    -0.113 A  
HETATM   24  C   UNL     1      -9.024   3.553  73.340  1.00  0.00    -0.094 A  
HETATM   25  C   UNL     1     -10.347   3.863  73.020  1.00  0.00    -0.166 A  
BRANCH  25  26
HETATM   26  O   UNL     1     -11.520   3.442  73.583  1.00  0.00    -0.199 OA 
HETATM   27  C   UNL     1     -11.894   2.082  73.562  1.00  0.00    -0.109 C  
ENDBRANCH  25  26
BRANCH  20  28
HETATM   28  O   UNL     1      -6.690   3.687  72.932  1.00  0.00    -0.034 OA 
HETATM   29  C   UNL     1      -5.934   2.969  71.963  1.00  0.00    -0.013 C  
ENDBRANCH  20  28
ENDBRANCH   7  18
BRANCH   8  30
HETATM   30  O   UNL     1      -8.071   9.605  68.442  1.00  0.00    -0.102 OA 
BRANCH  30  31
HETATM   31  C   UNL     1      -9.290   9.974  67.790  1.00  0.00    -0.140 C  
HETATM   32  O   UNL     1      -9.150  10.080  66.367  1.00  0.00    -0.145 OA 
HETATM   33  C   UNL     1     -10.261  10.754  65.756  1.00  0.00    -0.257 C  
HETATM   34  C   UNL     1     -10.225  10.737  64.227  1.00  0.00    -0.354 C  
HETATM   35  O   UNL     1     -11.289  11.531  63.697  1.00  0.00    -0.411 OA 
HETATM   36  C   UNL     1     -11.200  12.885  64.133  1.00  0.00    -0.389 C  
HETATM   37  C   UNL     1     -12.380  13.676  63.586  1.00  0.00    -0.328 C  
HETATM   38  O   UNL     1     -11.289  12.971  65.552  1.00  0.00    -0.292 OA 
HETATM   39  C   UNL     1     -10.266  12.213  66.198  1.00  0.00    -0.227 C  
HETATM   40  C   UNL     1     -10.575  12.248  67.683  1.00  0.00    -0.215 C  
HETATM   41  O   UNL     1     -10.440  13.596  68.162  1.00  0.00    -0.234 OA 
HETATM   42  C   UNL     1      -9.675  11.312  68.492  1.00  0.00    -0.198 C  
HETATM   43  H   UNL     1     -10.634  13.618  69.091  1.00  0.00     0.000 HD 
HETATM   44  O   UNL     1     -10.302  11.002  69.761  1.00  0.00    -0.445 OA 
HETATM   45  H   UNL     1     -10.537  11.818  70.189  1.00  0.00     0.000 HD 
ENDBRANCH  30  31
ENDBRANCH   8  30
TORSDOF 5
ENDMDL
MODEL       73
REMARK 921   NORMALIZED FREE ENERGY PREDICTED BY IDOCK:   -6.28 KCAL/MOL
REMARK 922        TOTAL FREE ENERGY PREDICTED BY IDOCK:   -9.35 KCAL/MOL
REMARK 923 INTER-LIGAND FREE ENERGY PREDICTED BY IDOCK:   -7.97 KCAL/MOL
REMARK 924 INTRA-LIGAND FREE ENERGY PREDICTED BY IDOCK:   -1.38 KCAL/MOL
REMARK 927      BINDING AFFINITY PREDICTED BY RF-SCORE:    0.00 PKD
ROOT
HETATM    1  C   UNL     1      -8.016   7.826  68.615  1.00  0.00    -0.122 C  
HETATM    2  C   UNL     1      -6.888   7.623  67.646  1.00  0.00    -0.069 C  
HETATM    3  O   UNL     1      -6.202   6.480  68.182  1.00  0.00    -0.029 OA 
HETATM    4  C   UNL     1      -6.457   6.374  69.528  1.00  0.00    -0.043 C  
HETATM    5  C   UNL     1      -7.402   7.461  69.949  1.00  0.00    -0.083 C  
HETATM    6  O   UNL     1      -5.882   5.591  70.265  1.00  0.00    -0.019 OA 
HETATM    7  C   UNL     1      -8.480   7.232  71.023  1.00  0.00    -0.127 C  
HETATM    8  C   UNL     1      -8.729   9.164  68.670  1.00  0.00    -0.129 C  
HETATM    9  C   UNL     1      -9.603   8.277  70.929  1.00  0.00    -0.196 A  
HETATM   10  C   UNL     1     -10.578   8.325  71.948  1.00  0.00    -0.350 A  
HETATM   11  O   UNL     1     -12.695   9.305  72.660  1.00  0.00    -0.303 OA 
HETATM   12  C   UNL     1     -11.646   9.185  71.802  1.00  0.00    -0.387 A  
HETATM   13  C   UNL     1      -9.722   9.170  69.817  1.00  0.00    -0.191 A  
HETATM   14  C   UNL     1     -11.774  10.008  70.709  1.00  0.00    -0.350 A  
HETATM   15  C   UNL     1     -13.538  10.221  71.932  1.00  0.00    -0.195 C  
HETATM   16  O   UNL     1     -12.924  10.732  70.732  1.00  0.00    -0.336 OA 
HETATM   17  C   UNL     1     -10.825  10.040  69.717  1.00  0.00    -0.308 A  
ENDROOT
BRANCH   7  18
HETATM   18  C   UNL     1      -8.973   5.786  71.035  1.00  0.00    -0.150 A  
HETATM   19  O   UNL     1      -9.415   1.632  70.999  1.00  0.00    -0.101 OA 
HETATM   20  C   UNL     1      -9.486   3.715  69.887  1.00  0.00    -0.192 A  
HETATM   21  C   UNL     1      -8.927   5.066  72.238  1.00  0.00    -0.142 A  
HETATM   22  H   UNL     1      -9.573   1.172  70.184  1.00  0.00     0.000 HD 
HETATM   23  C   UNL     1      -9.322   5.099  69.866  1.00  0.00    -0.196 A  
HETATM   24  C   UNL     1      -9.327   3.000  71.087  1.00  0.00    -0.141 A  
HETATM   25  C   UNL     1      -9.096   3.676  72.286  1.00  0.00    -0.109 A  
BRANCH  25  26
HETATM   26  O   UNL     1      -8.979   3.205  73.565  1.00  0.00    -0.082 OA 
HETATM   27  C   UNL     1      -7.753   2.703  74.049  1.00  0.00    -0.055 C  
ENDBRANCH  25  26
BRANCH  20  28
HETATM   28  O   UNL     1      -9.730   2.974  68.748  1.00  0.00    -0.086 OA 
HETATM   29  C   UNL     1      -8.925   3.278  67.614  1.00  0.00    -0.151 C  
ENDBRANCH  20  28
ENDBRANCH   7  18
BRANCH   8  30
HETATM   30  O   UNL     1      -7.978  10.354  68.545  1.00  0.00    -0.104 OA 
BRANCH  30  31
HETATM   31  C   UNL     1      -8.230  11.404  67.608  1.00  0.00    -0.128 C  
HETATM   32  O   UNL     1      -9.185  12.360  68.086  1.00  0.00    -0.196 OA 
HETATM   33  C   UNL     1      -9.676  13.215  67.041  1.00  0.00    -0.241 C  
HETATM   34  C   UNL     1     -10.567  14.352  67.544  1.00  0.00    -0.265 C  
HETATM   35  O   UNL     1     -11.115  15.078  66.441  1.00  0.00    -0.335 OA 
HETATM   36  C   UNL     1     -11.894  14.236  65.595  1.00  0.00    -0.373 C  
HETATM   37  C   UNL     1     -12.411  15.042  64.411  1.00  0.00    -0.283 C  
HETATM   38  O   UNL     1     -11.100  13.190  65.045  1.00  0.00    -0.289 OA 
HETATM   39  C   UNL     1     -10.498  12.387  66.061  1.00  0.00    -0.254 C  
HETATM   40  C   UNL     1      -9.555  11.431  65.354  1.00  0.00    -0.228 C  
HETATM   41  O   UNL     1     -10.320  10.534  64.533  1.00  0.00    -0.348 OA 
HETATM   42  C   UNL     1      -8.686  10.636  66.330  1.00  0.00    -0.156 C  
HETATM   43  H   UNL     1      -9.730   9.936  64.090  1.00  0.00     0.000 HD 
HETATM   44  O   UNL     1      -7.508  10.139  65.646  1.00  0.00    -0.130 OA 
HETATM   45  H   UNL     1      -7.785   9.671  64.867  1.00  0.00     0.000 HD 
ENDBRANCH  30  31
ENDBRANCH   8  30
TORSDOF 5
ENDMDL
MODEL       74
REMARK 921   NORMALIZED FREE ENERGY PREDICTED BY IDOCK:   -6.27 KCAL/MOL
REMARK 922        TOTAL FREE ENERGY PREDICTED BY IDOCK:   -9.34 KCAL/MOL
REMARK 923 INTER-LIGAND FREE ENERGY PREDICTED BY IDOCK:   -8.30 KCAL/MOL
REMARK 924 INTRA-LIGAND FREE ENERGY PREDICTED BY IDOCK:   -1.04 KCAL/MOL
REMARK 927      BINDING AFFINITY PREDICTED BY RF-SCORE:    0.00 PKD
ROOT
HETATM    1  C   UNL     1     -10.377  12.995  67.004  1.00  0.00    -0.247 C  
HETATM    2  C   UNL     1     -11.499  13.253  66.041  1.00  0.00    -0.330 C  
HETATM    3  O   UNL     1     -11.911  11.930  65.662  1.00  0.00    -0.429 OA 
HETATM    4  C   UNL     1     -10.874  11.049  65.848  1.00  0.00    -0.115 C  
HETATM    5  C   UNL     1      -9.694  11.774  66.428  1.00  0.00    -0.234 C  
HETATM    6  O   UNL     1     -10.892   9.892  65.463  1.00  0.00     0.328 OA 
HETATM    7  C   UNL     1      -8.758  11.113  67.455  1.00  0.00    -0.129 C  
HETATM    8  C   UNL     1      -9.386  14.100  67.317  1.00  0.00    -0.225 C  
HETATM    9  C   UNL     1      -7.964  12.160  68.252  1.00  0.00    -0.163 A  
HETATM   10  C   UNL     1      -6.929  11.727  69.107  1.00  0.00    -0.091 A  
HETATM   11  O   UNL     1      -5.328  12.391  70.823  1.00  0.00    -0.136 OA 
HETATM   12  C   UNL     1      -6.297  12.657  69.906  1.00  0.00    -0.031 A  
HETATM   13  C   UNL     1      -8.272  13.557  68.194  1.00  0.00    -0.162 A  
HETATM   14  C   UNL     1      -6.630  13.989  69.874  1.00  0.00    -0.057 A  
HETATM   15  C   UNL     1      -5.164  13.690  71.428  1.00  0.00    -0.181 C  
HETATM   16  O   UNL     1      -5.929  14.725  70.777  1.00  0.00    -0.157 OA 
HETATM   17  C   UNL     1      -7.590  14.472  69.020  1.00  0.00    -0.124 A  
ENDROOT
BRANCH   7  18
HETATM   18  C   UNL     1      -9.494  10.094  68.324  1.00  0.00    -0.147 A  
HETATM   19  O   UNL     1     -10.842   7.506  71.312  1.00  0.00    -0.232 OA 
HETATM   20  C   UNL     1      -9.688   7.880  69.286  1.00  0.00    -0.159 A  
HETATM   21  C   UNL     1     -10.383  10.559  69.304  1.00  0.00    -0.248 A  
HETATM   22  H   UNL     1     -10.572   6.596  71.318  1.00  0.00     0.000 HD 
HETATM   23  C   UNL     1      -9.206   8.724  68.288  1.00  0.00    -0.143 A  
HETATM   24  C   UNL     1     -10.489   8.390  70.322  1.00  0.00    -0.218 A  
HETATM   25  C   UNL     1     -10.886   9.728  70.313  1.00  0.00    -0.301 A  
BRANCH  25  26
HETATM   26  O   UNL     1     -11.706  10.418  71.163  1.00  0.00    -0.352 OA 
HETATM   27  C   UNL     1     -13.060  10.057  71.325  1.00  0.00    -0.402 C  
ENDBRANCH  25  26
BRANCH  20  28
HETATM   28  O   UNL     1      -9.353   6.542  69.358  1.00  0.00    -0.143 OA 
HETATM   29  C   UNL     1      -9.183   5.867  68.116  1.00  0.00    -0.116 C  
ENDBRANCH  20  28
ENDBRANCH   7  18
BRANCH   8  30
HETATM   30  O   UNL     1      -8.946  14.949  66.279  1.00  0.00    -0.258 OA 
BRANCH  30  31
HETATM   31  C   UNL     1      -8.487  16.295  66.441  1.00  0.00    -0.330 C  
HETATM   32  O   UNL     1      -7.162  16.371  66.982  1.00  0.00    -0.179 OA 
HETATM   33  C   UNL     1      -6.833  17.691  67.443  1.00  0.00    -0.164 C  
HETATM   34  C   UNL     1      -5.372  17.846  67.871  1.00  0.00    -0.142 C  
HETATM   35  O   UNL     1      -5.155  19.143  68.432  1.00  0.00    -0.180 OA 
HETATM   36  C   UNL     1      -5.984  19.367  69.569  1.00  0.00    -0.261 C  
HETATM   37  C   UNL     1      -5.754  20.776  70.098  1.00  0.00    -0.213 C  
HETATM   38  O   UNL     1      -7.362  19.296  69.219  1.00  0.00    -0.326 OA 
HETATM   39  C   UNL     1      -7.702  18.032  68.647  1.00  0.00    -0.296 C  
HETATM   40  C   UNL     1      -9.137  18.149  68.166  1.00  0.00    -0.290 C  
HETATM   41  O   UNL     1     -10.002  18.322  69.300  1.00  0.00    -0.251 OA 
HETATM   42  C   UNL     1      -9.582  16.935  67.349  1.00  0.00    -0.241 C  
HETATM   43  H   UNL     1     -10.900  18.395  68.999  1.00  0.00     0.000 HD 
HETATM   44  O   UNL     1     -10.718  17.289  66.521  1.00  0.00    -0.221 OA 
HETATM   45  H   UNL     1     -11.385  17.679  67.074  1.00  0.00     0.000 HD 
ENDBRANCH  30  31
ENDBRANCH   8  30
TORSDOF 5
ENDMDL
MODEL       75
REMARK 921   NORMALIZED FREE ENERGY PREDICTED BY IDOCK:   -6.27 KCAL/MOL
REMARK 922        TOTAL FREE ENERGY PREDICTED BY IDOCK:   -9.34 KCAL/MOL
REMARK 923 INTER-LIGAND FREE ENERGY PREDICTED BY IDOCK:   -8.20 KCAL/MOL
REMARK 924 INTRA-LIGAND FREE ENERGY PREDICTED BY IDOCK:   -1.14 KCAL/MOL
REMARK 927      BINDING AFFINITY PREDICTED BY RF-SCORE:    0.00 PKD
ROOT
HETATM    1  C   UNL     1      -7.797  11.391  68.148  1.00  0.00    -0.130 C  
HETATM    2  C   UNL     1      -6.580  11.390  69.027  1.00  0.00    -0.086 C  
HETATM    3  O   UNL     1      -6.838  10.308  69.936  1.00  0.00    -0.099 OA 
HETATM    4  C   UNL     1      -8.191  10.086  70.022  1.00  0.00    -0.116 C  
HETATM    5  C   UNL     1      -8.915  11.020  69.098  1.00  0.00    -0.000 C  
HETATM    6  O   UNL     1      -8.702   9.334  70.835  1.00  0.00    -0.213 OA 
HETATM    7  C   UNL     1     -10.183  10.592  68.336  1.00  0.00    -0.192 C  
HETATM    8  C   UNL     1      -8.135  12.626  67.333  1.00  0.00    -0.182 C  
HETATM    9  C   UNL     1     -10.445  11.495  67.121  1.00  0.00    -0.259 A  
HETATM   10  C   UNL     1     -11.660  11.357  66.418  1.00  0.00     0.080 A  
HETATM   11  O   UNL     1     -12.926  12.022  64.442  1.00  0.00    -0.600 OA 
HETATM   12  C   UNL     1     -11.842  12.087  65.262  1.00  0.00    -0.205 A  
HETATM   13  C   UNL     1      -9.476  12.435  66.648  1.00  0.00    -0.232 A  
HETATM   14  C   UNL     1     -10.888  12.956  64.792  1.00  0.00    -0.327 A  
HETATM   15  C   UNL     1     -12.498  12.873  63.359  1.00  0.00    -0.303 C  
HETATM   16  O   UNL     1     -11.240  13.531  63.612  1.00  0.00    -0.127 OA 
HETATM   17  C   UNL     1      -9.712  13.169  65.468  1.00  0.00    -0.061 A  
ENDROOT
BRANCH   7  18
HETATM   18  C   UNL     1     -10.175   9.098  68.014  1.00  0.00    -0.258 A  
HETATM   19  O   UNL     1      -9.512   4.979  67.802  1.00  0.00    -0.122 OA 
HETATM   20  C   UNL     1      -9.159   7.162  66.972  1.00  0.00    -0.134 A  
HETATM   21  C   UNL     1     -10.911   8.227  68.832  1.00  0.00     0.002 A  
HETATM   22  H   UNL     1      -8.884   4.624  67.185  1.00  0.00     0.000 HD 
HETATM   23  C   UNL     1      -9.345   8.542  67.034  1.00  0.00    -0.204 A  
HETATM   24  C   UNL     1      -9.824   6.315  67.875  1.00  0.00    -0.124 A  
HETATM   25  C   UNL     1     -10.747   6.837  68.783  1.00  0.00    -0.239 A  
BRANCH  25  26
HETATM   26  O   UNL     1     -11.551   6.209  69.694  1.00  0.00    -0.407 OA 
HETATM   27  C   UNL     1     -11.256   6.242  71.073  1.00  0.00    -0.312 C  
ENDBRANCH  25  26
BRANCH  20  28
HETATM   28  O   UNL     1      -8.275   6.566  66.094  1.00  0.00    -0.112 OA 
HETATM   29  C   UNL     1      -7.781   7.389  65.042  1.00  0.00    -0.114 C  
ENDBRANCH  20  28
ENDBRANCH   7  18
BRANCH   8  30
HETATM   30  O   UNL     1      -7.951  13.904  67.905  1.00  0.00    -0.131 OA 
BRANCH  30  31
HETATM   31  C   UNL     1      -7.983  15.146  67.195  1.00  0.00    -0.215 C  
HETATM   32  O   UNL     1      -6.684  15.734  67.045  1.00  0.00    -0.265 OA 
HETATM   33  C   UNL     1      -6.750  17.108  66.632  1.00  0.00    -0.242 C  
HETATM   34  C   UNL     1      -5.386  17.717  66.300  1.00  0.00    -0.194 C  
HETATM   35  O   UNL     1      -5.520  19.112  66.022  1.00  0.00    -0.153 OA 
HETATM   36  C   UNL     1      -6.070  19.818  67.131  1.00  0.00    -0.183 C  
HETATM   37  C   UNL     1      -6.240  21.287  66.768  1.00  0.00    -0.392 C  
HETATM   38  O   UNL     1      -7.371  19.335  67.449  1.00  0.00    -0.226 OA 
HETATM   39  C   UNL     1      -7.363  17.940  67.753  1.00  0.00    -0.208 C  
HETATM   40  C   UNL     1      -8.814  17.522  67.902  1.00  0.00    -0.247 C  
HETATM   41  O   UNL     1      -9.379  18.178  69.048  1.00  0.00    -0.214 OA 
HETATM   42  C   UNL     1      -8.977  16.006  68.033  1.00  0.00    -0.187 C  
HETATM   43  H   UNL     1     -10.287  17.918  69.141  1.00  0.00     0.000 HD 
HETATM   44  O   UNL     1     -10.329  15.625  67.677  1.00  0.00    -0.263 OA 
HETATM   45  H   UNL     1     -10.936  16.150  68.187  1.00  0.00     0.000 HD 
ENDBRANCH  30  31
ENDBRANCH   8  30
TORSDOF 5
ENDMDL
MODEL       76
REMARK 921   NORMALIZED FREE ENERGY PREDICTED BY IDOCK:   -6.25 KCAL/MOL
REMARK 922        TOTAL FREE ENERGY PREDICTED BY IDOCK:   -9.31 KCAL/MOL
REMARK 923 INTER-LIGAND FREE ENERGY PREDICTED BY IDOCK:   -7.89 KCAL/MOL
REMARK 924 INTRA-LIGAND FREE ENERGY PREDICTED BY IDOCK:   -1.42 KCAL/MOL
REMARK 927      BINDING AFFINITY PREDICTED BY RF-SCORE:    0.00 PKD
ROOT
HETATM    1  C   UNL     1     -11.588  14.368  68.835  1.00  0.00    -0.340 C  
HETATM    2  C   UNL     1     -12.187  14.812  70.138  1.00  0.00    -0.337 C  
HETATM    3  O   UNL     1     -11.169  15.660  70.692  1.00  0.00    -0.303 OA 
HETATM    4  C   UNL     1      -9.946  15.323  70.163  1.00  0.00    -0.029 C  
HETATM    5  C   UNL     1     -10.117  14.222  69.159  1.00  0.00    -0.067 C  
HETATM    6  O   UNL     1      -8.887  15.773  70.569  1.00  0.00     1.004 OA 
HETATM    7  C   UNL     1      -9.263  14.147  67.880  1.00  0.00    -0.196 C  
HETATM    8  C   UNL     1     -12.136  13.140  68.134  1.00  0.00    -0.184 C  
HETATM    9  C   UNL     1      -9.927  13.270  66.807  1.00  0.00    -0.263 A  
HETATM   10  C   UNL     1      -9.199  12.946  65.643  1.00  0.00     0.302 A  
HETATM   11  O   UNL     1      -9.296  11.925  63.430  1.00  0.00    -0.154 OA 
HETATM   12  C   UNL     1      -9.838  12.258  64.633  1.00  0.00    -0.100 A  
HETATM   13  C   UNL     1     -11.279  12.814  66.925  1.00  0.00    -0.339 A  
HETATM   14  C   UNL     1     -11.148  11.861  64.738  1.00  0.00    -0.311 A  
HETATM   15  C   UNL     1     -10.444  11.365  62.761  1.00  0.00     0.156 C  
HETATM   16  O   UNL     1     -11.602  11.248  63.613  1.00  0.00    -0.223 OA 
HETATM   17  C   UNL     1     -11.885  12.102  65.871  1.00  0.00    -0.342 A  
ENDROOT
BRANCH   7  18
HETATM   18  C   UNL     1      -8.853  15.534  67.388  1.00  0.00    -0.203 A  
HETATM   19  O   UNL     1      -7.628  18.893  65.228  1.00  0.00    -0.316 OA 
HETATM   20  C   UNL     1      -7.153  17.128  66.724  1.00  0.00    -0.224 A  
HETATM   21  C   UNL     1      -9.802  16.322  66.721  1.00  0.00    -0.254 A  
HETATM   22  H   UNL     1      -6.712  19.143  65.206  1.00  0.00     0.000 HD 
HETATM   23  C   UNL     1      -7.530  15.990  67.436  1.00  0.00    -0.208 A  
HETATM   24  C   UNL     1      -8.103  17.841  65.972  1.00  0.00    -0.101 A  
HETATM   25  C   UNL     1      -9.449  17.473  66.005  1.00  0.00    -0.070 A  
BRANCH  25  26
HETATM   26  O   UNL     1     -10.543  18.050  65.421  1.00  0.00    -0.648 OA 
HETATM   27  C   UNL     1     -10.892  19.390  65.689  1.00  0.00    -0.230 C  
ENDBRANCH  25  26
BRANCH  20  28
HETATM   28  O   UNL     1      -5.846  17.565  66.652  1.00  0.00    -0.154 OA 
HETATM   29  C   UNL     1      -5.426  18.467  67.671  1.00  0.00    -0.155 C  
ENDBRANCH  20  28
ENDBRANCH   7  18
BRANCH   8  30
HETATM   30  O   UNL     1     -12.511  12.015  68.902  1.00  0.00    -0.062 OA 
BRANCH  30  31
HETATM   31  C   UNL     1     -11.722  11.408  69.930  1.00  0.00    -0.346 C  
HETATM   32  O   UNL     1     -10.862  10.374  69.435  1.00  0.00    -0.215 OA 
HETATM   33  C   UNL     1     -10.324   9.559  70.489  1.00  0.00    -0.288 C  
HETATM   34  C   UNL     1      -9.274   8.554  70.012  1.00  0.00    -0.155 C  
HETATM   35  O   UNL     1      -8.880   7.700  71.089  1.00  0.00    -0.135 OA 
HETATM   36  C   UNL     1      -9.989   6.976  71.615  1.00  0.00    -0.178 C  
HETATM   37  C   UNL     1      -9.530   6.122  72.789  1.00  0.00    -0.151 C  
HETATM   38  O   UNL     1     -10.977   7.861  72.132  1.00  0.00    -0.244 OA 
HETATM   39  C   UNL     1     -11.454   8.768  71.137  1.00  0.00    -0.286 C  
HETATM   40  C   UNL     1     -12.360   9.754  71.851  1.00  0.00    -0.335 C  
HETATM   41  O   UNL     1     -13.516   9.059  72.347  1.00  0.00    -0.430 OA 
HETATM   42  C   UNL     1     -12.792  10.912  70.950  1.00  0.00    -0.326 C  
HETATM   43  H   UNL     1     -14.083   9.675  72.794  1.00  0.00     0.000 HD 
HETATM   44  O   UNL     1     -13.212  12.037  71.761  1.00  0.00    -0.450 OA 
HETATM   45  H   UNL     1     -13.865  11.734  72.383  1.00  0.00     0.000 HD 
ENDBRANCH  30  31
ENDBRANCH   8  30
TORSDOF 5
ENDMDL
MODEL       77
REMARK 921   NORMALIZED FREE ENERGY PREDICTED BY IDOCK:   -6.23 KCAL/MOL
REMARK 922        TOTAL FREE ENERGY PREDICTED BY IDOCK:   -9.29 KCAL/MOL
REMARK 923 INTER-LIGAND FREE ENERGY PREDICTED BY IDOCK:   -7.80 KCAL/MOL
REMARK 924 INTRA-LIGAND FREE ENERGY PREDICTED BY IDOCK:   -1.49 KCAL/MOL
REMARK 927      BINDING AFFINITY PREDICTED BY RF-SCORE:    0.00 PKD
ROOT
HETATM    1  C   UNL     1      -9.835   8.098  68.026  1.00  0.00    -0.200 C  
HETATM    2  C   UNL     1     -10.879   7.745  67.006  1.00  0.00    -0.106 C  
HETATM    3  O   UNL     1     -11.140   6.359  67.277  1.00  0.00    -0.368 OA 
HETATM    4  C   UNL     1     -10.055   5.794  67.901  1.00  0.00    -0.162 C  
HETATM    5  C   UNL     1      -9.001   6.839  68.123  1.00  0.00    -0.118 C  
HETATM    6  O   UNL     1      -9.939   4.598  68.106  1.00  0.00    -0.133 OA 
HETATM    7  C   UNL     1      -8.114   6.847  69.381  1.00  0.00    -0.127 C  
HETATM    8  C   UNL     1      -8.974   9.331  67.825  1.00  0.00    -0.126 C  
HETATM    9  C   UNL     1      -7.490   8.229  69.625  1.00  0.00    -0.081 A  
HETATM   10  C   UNL     1      -6.508   8.368  70.629  1.00  0.00    -0.037 A  
HETATM   11  O   UNL     1      -5.139   9.937  71.899  1.00  0.00    -0.073 OA 
HETATM   12  C   UNL     1      -6.035   9.630  70.923  1.00  0.00    -0.081 A  
HETATM   13  C   UNL     1      -7.907   9.392  68.903  1.00  0.00    -0.083 A  
HETATM   14  C   UNL     1      -6.474  10.746  70.253  1.00  0.00    -0.127 A  
HETATM   15  C   UNL     1      -5.142  11.377  71.827  1.00  0.00     0.054 C  
HETATM   16  O   UNL     1      -5.926  11.893  70.733  1.00  0.00    -0.330 OA 
HETATM   17  C   UNL     1      -7.386  10.660  69.230  1.00  0.00    -0.119 A  
ENDROOT
BRANCH   7  18
HETATM   18  C   UNL     1      -8.841   6.267  70.594  1.00  0.00    -0.144 A  
HETATM   19  O   UNL     1     -11.205   4.112  73.279  1.00  0.00    -0.239 OA 
HETATM   20  C   UNL     1     -10.831   6.031  71.955  1.00  0.00    -0.254 A  
HETATM   21  C   UNL     1      -8.339   5.101  71.190  1.00  0.00    -0.121 A  
HETATM   22  H   UNL     1     -12.073   4.419  73.511  1.00  0.00     0.000 HD 
HETATM   23  C   UNL     1     -10.073   6.760  71.040  1.00  0.00    -0.206 A  
HETATM   24  C   UNL     1     -10.354   4.807  72.456  1.00  0.00    -0.201 A  
HETATM   25  C   UNL     1      -9.078   4.355  72.116  1.00  0.00    -0.121 A  
BRANCH  25  26
HETATM   26  O   UNL     1      -8.387   3.249  72.529  1.00  0.00    -0.077 OA 
HETATM   27  C   UNL     1      -7.360   2.694  71.738  1.00  0.00    -0.040 C  
ENDBRANCH  25  26
BRANCH  20  28
HETATM   28  O   UNL     1     -12.096   6.417  72.352  1.00  0.00    -0.241 OA 
HETATM   29  C   UNL     1     -12.568   7.657  71.836  1.00  0.00    -0.303 C  
ENDBRANCH  20  28
ENDBRANCH   7  18
BRANCH   8  30
HETATM   30  O   UNL     1      -8.511   9.648  66.530  1.00  0.00    -0.122 OA 
BRANCH  30  31
HETATM   31  C   UNL     1      -8.676  10.907  65.871  1.00  0.00    -0.183 C  
HETATM   32  O   UNL     1      -9.447  11.841  66.638  1.00  0.00    -0.194 OA 
HETATM   33  C   UNL     1      -9.882  12.965  65.857  1.00  0.00    -0.235 C  
HETATM   34  C   UNL     1     -10.563  14.059  66.680  1.00  0.00    -0.274 C  
HETATM   35  O   UNL     1     -11.077  15.079  65.821  1.00  0.00    -0.340 OA 
HETATM   36  C   UNL     1     -12.027  14.556  64.897  1.00  0.00    -0.422 C  
HETATM   37  C   UNL     1     -12.506  15.667  63.973  1.00  0.00     0.364 C  
HETATM   38  O   UNL     1     -11.434  13.571  64.058  1.00  0.00    -0.379 OA 
HETATM   39  C   UNL     1     -10.883  12.489  64.811  1.00  0.00    -0.298 C  
HETATM   40  C   UNL     1     -10.140  11.610  63.822  1.00  0.00    -0.381 C  
HETATM   41  O   UNL     1     -11.083  11.024  62.909  1.00  0.00    -0.775 OA 
HETATM   42  C   UNL     1      -9.327  10.512  64.510  1.00  0.00    -0.253 C  
HETATM   43  H   UNL     1     -10.618  10.474  62.290  1.00  0.00     0.000 HD 
HETATM   44  O   UNL     1      -8.285  10.041  63.620  1.00  0.00    -0.144 OA 
HETATM   45  H   UNL     1      -8.682   9.800  62.791  1.00  0.00     0.000 HD 
ENDBRANCH  30  31
ENDBRANCH   8  30
TORSDOF 5
ENDMDL
MODEL       78
REMARK 921   NORMALIZED FREE ENERGY PREDICTED BY IDOCK:   -6.22 KCAL/MOL
REMARK 922        TOTAL FREE ENERGY PREDICTED BY IDOCK:   -9.27 KCAL/MOL
REMARK 923 INTER-LIGAND FREE ENERGY PREDICTED BY IDOCK:   -7.93 KCAL/MOL
REMARK 924 INTRA-LIGAND FREE ENERGY PREDICTED BY IDOCK:   -1.33 KCAL/MOL
REMARK 927      BINDING AFFINITY PREDICTED BY RF-SCORE:    0.00 PKD
ROOT
HETATM    1  C   UNL     1      -9.302   9.099  68.170  1.00  0.00    -0.147 C  
HETATM    2  C   UNL     1     -10.086   9.437  69.405  1.00  0.00    -0.198 C  
HETATM    3  O   UNL     1     -10.674   8.178  69.771  1.00  0.00    -0.245 OA 
HETATM    4  C   UNL     1     -10.762   7.368  68.665  1.00  0.00    -0.101 C  
HETATM    5  C   UNL     1     -10.167   8.068  67.478  1.00  0.00    -0.311 C  
HETATM    6  O   UNL     1     -11.361   6.306  68.652  1.00  0.00    -0.337 OA 
HETATM    7  C   UNL     1      -9.381   7.308  66.394  1.00  0.00    -0.199 C  
HETATM    8  C   UNL     1      -8.876  10.205  67.223  1.00  0.00    -0.132 C  
HETATM    9  C   UNL     1      -8.476   8.250  65.587  1.00  0.00    -0.173 A  
HETATM   10  C   UNL     1      -7.823   7.752  64.439  1.00  0.00    -0.138 A  
HETATM   11  O   UNL     1      -6.171   8.217  62.706  1.00  0.00    -0.080 OA 
HETATM   12  C   UNL     1      -6.923   8.566  63.784  1.00  0.00    -0.087 A  
HETATM   13  C   UNL     1      -8.232   9.602  65.988  1.00  0.00    -0.119 A  
HETATM   14  C   UNL     1      -6.663   9.849  64.202  1.00  0.00    -0.126 A  
HETATM   15  C   UNL     1      -5.344   9.389  62.560  1.00  0.00    -0.084 C  
HETATM   16  O   UNL     1      -5.706  10.459  63.456  1.00  0.00    -0.135 OA 
HETATM   17  C   UNL     1      -7.312  10.401  65.280  1.00  0.00    -0.108 A  
ENDROOT
BRANCH   7  18
HETATM   18  C   UNL     1      -8.661   6.087  66.965  1.00  0.00    -0.110 A  
HETATM   19  O   UNL     1      -7.437   2.698  69.078  1.00  0.00    -0.044 OA 
HETATM   20  C   UNL     1      -7.339   5.026  68.696  1.00  0.00    -0.062 A  
HETATM   21  C   UNL     1      -9.040   4.811  66.522  1.00  0.00    -0.121 A  
HETATM   22  H   UNL     1      -6.881   2.782  69.843  1.00  0.00     0.000 HD 
HETATM   23  C   UNL     1      -7.748   6.176  68.023  1.00  0.00    -0.102 A  
HETATM   24  C   UNL     1      -7.819   3.765  68.302  1.00  0.00    -0.072 A  
HETATM   25  C   UNL     1      -8.636   3.640  67.178  1.00  0.00    -0.108 A  
BRANCH  25  26
HETATM   26  O   UNL     1      -9.157   2.528  66.575  1.00  0.00    -0.141 OA 
HETATM   27  C   UNL     1      -9.128   2.377  65.173  1.00  0.00    -0.126 C  
ENDBRANCH  25  26
BRANCH  20  28
HETATM   28  O   UNL     1      -6.522   5.063  69.809  1.00  0.00    -0.032 OA 
HETATM   29  C   UNL     1      -7.058   5.701  70.963  1.00  0.00    -0.070 C  
ENDBRANCH  20  28
ENDBRANCH   7  18
BRANCH   8  30
HETATM   30  O   UNL     1      -9.767  11.266  66.954  1.00  0.00    -0.188 OA 
BRANCH  30  31
HETATM   31  C   UNL     1      -9.398  12.636  66.766  1.00  0.00    -0.232 C  
HETATM   32  O   UNL     1      -9.418  13.391  67.985  1.00  0.00    -0.204 OA 
HETATM   33  C   UNL     1      -9.369  14.808  67.752  1.00  0.00    -0.199 C  
HETATM   34  C   UNL     1      -9.220  15.635  69.031  1.00  0.00    -0.243 C  
HETATM   35  O   UNL     1      -9.305  17.030  68.731  1.00  0.00    -0.260 OA 
HETATM   36  C   UNL     1     -10.552  17.360  68.125  1.00  0.00    -0.376 C  
HETATM   37  C   UNL     1     -10.574  18.843  67.778  1.00  0.00    -0.471 C  
HETATM   38  O   UNL     1     -10.721  16.664  66.894  1.00  0.00    -0.266 OA 
HETATM   39  C   UNL     1     -10.658  15.248  67.069  1.00  0.00    -0.306 C  
HETATM   40  C   UNL     1     -10.678  14.640  65.679  1.00  0.00    -0.332 C  
HETATM   41  O   UNL     1     -11.948  14.912  65.063  1.00  0.00    -0.336 OA 
HETATM   42  C   UNL     1     -10.416  13.133  65.694  1.00  0.00    -0.282 C  
HETATM   43  H   UNL     1     -11.960  14.532  64.193  1.00  0.00     0.000 HD 
HETATM   44  O   UNL     1      -9.959  12.700  64.389  1.00  0.00    -0.530 OA 
HETATM   45  H   UNL     1     -10.579  13.003  63.736  1.00  0.00     0.000 HD 
ENDBRANCH  30  31
ENDBRANCH   8  30
TORSDOF 5
ENDMDL
MODEL       79
REMARK 921   NORMALIZED FREE ENERGY PREDICTED BY IDOCK:   -6.20 KCAL/MOL
REMARK 922        TOTAL FREE ENERGY PREDICTED BY IDOCK:   -9.24 KCAL/MOL
REMARK 923 INTER-LIGAND FREE ENERGY PREDICTED BY IDOCK:   -8.00 KCAL/MOL
REMARK 924 INTRA-LIGAND FREE ENERGY PREDICTED BY IDOCK:   -1.24 KCAL/MOL
REMARK 927      BINDING AFFINITY PREDICTED BY RF-SCORE:    0.00 PKD
ROOT
HETATM    1  C   UNL     1      -7.506   8.643  69.308  1.00  0.00    -0.082 C  
HETATM    2  C   UNL     1      -6.235   8.703  68.513  1.00  0.00    -0.053 C  
HETATM    3  O   UNL     1      -5.389   7.753  69.181  1.00  0.00    -0.018 OA 
HETATM    4  C   UNL     1      -5.803   7.596  70.481  1.00  0.00    -0.030 C  
HETATM    5  C   UNL     1      -7.022   8.436  70.727  1.00  0.00    -0.045 C  
HETATM    6  O   UNL     1      -5.175   6.971  71.320  1.00  0.00    -0.026 OA 
HETATM    7  C   UNL     1      -8.162   7.966  71.649  1.00  0.00    -0.132 C  
HETATM    8  C   UNL     1      -8.507   9.779  69.214  1.00  0.00    -0.152 C  
HETATM    9  C   UNL     1      -9.469   8.721  71.362  1.00  0.00    -0.330 A  
HETATM   10  C   UNL     1     -10.565   8.545  72.234  1.00  0.00    -0.408 A  
HETATM   11  O   UNL     1     -12.930   9.008  72.609  1.00  0.00    -0.405 OA 
HETATM   12  C   UNL     1     -11.770   9.132  71.909  1.00  0.00    -0.366 A  
HETATM   13  C   UNL     1      -9.629   9.557  70.212  1.00  0.00    -0.314 A  
HETATM   14  C   UNL     1     -11.925   9.898  70.780  1.00  0.00    -0.323 A  
HETATM   15  C   UNL     1     -13.847   9.700  71.738  1.00  0.00    -0.186 C  
HETATM   16  O   UNL     1     -13.202  10.336  70.616  1.00  0.00    -0.354 OA 
HETATM   17  C   UNL     1     -10.877  10.147  69.928  1.00  0.00    -0.347 A  
ENDROOT
BRANCH   7  18
HETATM   18  C   UNL     1      -8.305   6.445  71.646  1.00  0.00    -0.125 A  
HETATM   19  O   UNL     1      -9.565   2.471  71.907  1.00  0.00    -0.114 OA 
HETATM   20  C   UNL     1      -8.422   4.327  72.817  1.00  0.00    -0.101 A  
HETATM   21  C   UNL     1      -8.900   5.824  70.538  1.00  0.00    -0.144 A  
HETATM   22  H   UNL     1      -9.428   1.974  72.705  1.00  0.00     0.000 HD 
HETATM   23  C   UNL     1      -8.010   5.658  72.766  1.00  0.00    -0.102 A  
HETATM   24  C   UNL     1      -9.115   3.757  71.735  1.00  0.00    -0.111 A  
HETATM   25  C   UNL     1      -9.317   4.487  70.562  1.00  0.00    -0.148 A  
BRANCH  25  26
HETATM   26  O   UNL     1      -9.892   4.124  69.376  1.00  0.00    -0.197 OA 
HETATM   27  C   UNL     1      -9.111   3.645  68.303  1.00  0.00    -0.148 C  
ENDBRANCH  25  26
BRANCH  20  28
HETATM   28  O   UNL     1      -8.250   3.534  73.934  1.00  0.00    -0.077 OA 
HETATM   29  C   UNL     1      -6.921   3.434  74.436  1.00  0.00    -0.046 C  
ENDBRANCH  20  28
ENDBRANCH   7  18
BRANCH   8  30
HETATM   30  O   UNL     1      -8.040  11.110  69.151  1.00  0.00    -0.121 OA 
BRANCH  30  31
HETATM   31  C   UNL     1      -8.120  11.968  68.009  1.00  0.00    -0.153 C  
HETATM   32  O   UNL     1      -8.698  13.245  68.311  1.00  0.00    -0.176 OA 
HETATM   33  C   UNL     1      -9.073  13.969  67.129  1.00  0.00    -0.232 C  
HETATM   34  C   UNL     1      -9.537  15.400  67.407  1.00  0.00    -0.210 C  
HETATM   35  O   UNL     1     -10.011  16.010  66.204  1.00  0.00    -0.282 OA 
HETATM   36  C   UNL     1     -11.102  15.286  65.643  1.00  0.00    -0.308 C  
HETATM   37  C   UNL     1     -11.536  15.944  64.341  1.00  0.00    -0.268 C  
HETATM   38  O   UNL     1     -10.712  13.958  65.306  1.00  0.00    -0.309 OA 
HETATM   39  C   UNL     1     -10.221  13.242  66.439  1.00  0.00    -0.292 C  
HETATM   40  C   UNL     1      -9.686  11.921  65.916  1.00  0.00    -0.238 C  
HETATM   41  O   UNL     1     -10.776  11.145  65.392  1.00  0.00    -0.258 OA 
HETATM   42  C   UNL     1      -8.944  11.123  66.989  1.00  0.00    -0.154 C  
HETATM   43  H   UNL     1     -10.442  10.319  65.064  1.00  0.00     0.000 HD 
HETATM   44  O   UNL     1      -8.056  10.164  66.362  1.00  0.00    -0.117 OA 
HETATM   45  H   UNL     1      -8.558   9.649  65.741  1.00  0.00     0.000 HD 
ENDBRANCH  30  31
ENDBRANCH   8  30
TORSDOF 5
ENDMDL
MODEL       80
REMARK 921   NORMALIZED FREE ENERGY PREDICTED BY IDOCK:   -6.18 KCAL/MOL
REMARK 922        TOTAL FREE ENERGY PREDICTED BY IDOCK:   -9.23 KCAL/MOL
REMARK 923 INTER-LIGAND FREE ENERGY PREDICTED BY IDOCK:   -7.55 KCAL/MOL
REMARK 924 INTRA-LIGAND FREE ENERGY PREDICTED BY IDOCK:   -1.67 KCAL/MOL
REMARK 927      BINDING AFFINITY PREDICTED BY RF-SCORE:    0.00 PKD
ROOT
HETATM    1  C   UNL     1     -10.015  10.724  67.581  1.00  0.00    -0.199 C  
HETATM    2  C   UNL     1     -11.145  10.248  66.716  1.00  0.00     0.099 C  
HETATM    3  O   UNL     1     -11.002   8.819  66.752  1.00  0.00    -0.009 OA 
HETATM    4  C   UNL     1      -9.702   8.490  67.050  1.00  0.00    -0.204 C  
HETATM    5  C   UNL     1      -8.905   9.741  67.280  1.00  0.00    -0.139 C  
HETATM    6  O   UNL     1      -9.263   7.354  66.992  1.00  0.00    -0.131 OA 
HETATM    7  C   UNL     1      -7.787   9.811  68.336  1.00  0.00    -0.081 C  
HETATM    8  C   UNL     1      -9.540  12.161  67.476  1.00  0.00    -0.179 C  
HETATM    9  C   UNL     1      -7.471  11.262  68.730  1.00  0.00    -0.123 A  
HETATM   10  C   UNL     1      -6.352  11.519  69.549  1.00  0.00    -0.116 A  
HETATM   11  O   UNL     1      -5.147  13.204  70.835  1.00  0.00    -0.110 OA 
HETATM   12  C   UNL     1      -6.140  12.806  69.995  1.00  0.00    -0.112 A  
HETATM   13  C   UNL     1      -8.305  12.357  68.336  1.00  0.00    -0.137 A  
HETATM   14  C   UNL     1      -6.970  13.844  69.646  1.00  0.00     0.075 A  
HETATM   15  C   UNL     1      -5.509  14.584  71.049  1.00  0.00    -0.160 C  
HETATM   16  O   UNL     1      -6.618  15.017  70.235  1.00  0.00    -0.153 OA 
HETATM   17  C   UNL     1      -8.040  13.659  68.806  1.00  0.00     0.001 A  
ENDROOT
BRANCH   7  18
HETATM   18  C   UNL     1      -8.065   8.888  69.521  1.00  0.00    -0.101 A  
HETATM   19  O   UNL     1      -9.335   5.895  72.144  1.00  0.00    -0.146 OA 
HETATM   20  C   UNL     1      -9.521   8.087  71.284  1.00  0.00    -0.157 A  
HETATM   21  C   UNL     1      -7.323   7.704  69.645  1.00  0.00    -0.089 A  
HETATM   22  H   UNL     1     -10.109   6.020  72.678  1.00  0.00     0.000 HD 
HETATM   23  C   UNL     1      -9.133   9.095  70.403  1.00  0.00    -0.270 A  
HETATM   24  C   UNL     1      -8.828   6.864  71.313  1.00  0.00    -0.135 A  
HETATM   25  C   UNL     1      -7.689   6.680  70.527  1.00  0.00    -0.104 A  
BRANCH  25  26
HETATM   26  O   UNL     1      -6.829   5.620  70.443  1.00  0.00    -0.046 OA 
HETATM   27  C   UNL     1      -7.175   4.453  69.730  1.00  0.00    -0.050 C  
ENDBRANCH  25  26
BRANCH  20  28
HETATM   28  O   UNL     1     -10.627   8.196  72.103  1.00  0.00    -0.245 OA 
HETATM   29  C   UNL     1     -11.625   9.125  71.694  1.00  0.00    -0.379 C  
ENDBRANCH  20  28
ENDBRANCH   7  18
BRANCH   8  30
HETATM   30  O   UNL     1      -9.466  12.773  66.205  1.00  0.00    -0.243 OA 
BRANCH  30  31
HETATM   31  C   UNL     1      -9.946  14.082  65.883  1.00  0.00    -0.307 C  
HETATM   32  O   UNL     1      -8.925  15.085  65.963  1.00  0.00    -0.223 OA 
HETATM   33  C   UNL     1      -9.464  16.417  65.961  1.00  0.00    -0.310 C  
HETATM   34  C   UNL     1      -8.398  17.511  65.877  1.00  0.00     0.037 C  
HETATM   35  O   UNL     1      -9.001  18.801  66.007  1.00  0.00    -0.479 OA 
HETATM   36  C   UNL     1      -9.687  18.936  67.248  1.00  0.00    -0.311 C  
HETATM   37  C   UNL     1     -10.353  20.304  67.316  1.00  0.00    -0.420 C  
HETATM   38  O   UNL     1     -10.736  17.980  67.358  1.00  0.00    -0.390 OA 
HETATM   39  C   UNL     1     -10.251  16.641  67.247  1.00  0.00    -0.290 C  
HETATM   40  C   UNL     1     -11.472  15.741  67.208  1.00  0.00     0.032 C  
HETATM   41  O   UNL     1     -12.155  15.817  68.469  1.00  0.00    -0.512 OA 
HETATM   42  C   UNL     1     -11.119  14.287  66.890  1.00  0.00    -0.312 C  
HETATM   43  H   UNL     1     -12.920  15.254  68.445  1.00  0.00     0.000 HD 
HETATM   44  O   UNL     1     -12.288  13.597  66.382  1.00  0.00    -0.424 OA 
HETATM   45  H   UNL     1     -13.003  13.722  66.996  1.00  0.00     0.000 HD 
ENDBRANCH  30  31
ENDBRANCH   8  30
TORSDOF 5
ENDMDL
MODEL       81
REMARK 921   NORMALIZED FREE ENERGY PREDICTED BY IDOCK:   -6.17 KCAL/MOL
REMARK 922        TOTAL FREE ENERGY PREDICTED BY IDOCK:   -9.21 KCAL/MOL
REMARK 923 INTER-LIGAND FREE ENERGY PREDICTED BY IDOCK:   -8.36 KCAL/MOL
REMARK 924 INTRA-LIGAND FREE ENERGY PREDICTED BY IDOCK:   -0.85 KCAL/MOL
REMARK 927      BINDING AFFINITY PREDICTED BY RF-SCORE:    0.00 PKD
ROOT
HETATM    1  C   UNL     1      -7.855  14.974  68.898  1.00  0.00    -0.162 C  
HETATM    2  C   UNL     1      -6.883  15.045  70.039  1.00  0.00    -0.126 C  
HETATM    3  O   UNL     1      -6.070  16.181  69.703  1.00  0.00    -0.161 OA 
HETATM    4  C   UNL     1      -6.108  16.394  68.346  1.00  0.00    -0.119 C  
HETATM    5  C   UNL     1      -7.025  15.394  67.704  1.00  0.00    -0.209 C  
HETATM    6  O   UNL     1      -5.390  17.191  67.767  1.00  0.00    -0.109 OA 
HETATM    7  C   UNL     1      -7.913  15.759  66.500  1.00  0.00    -0.172 C  
HETATM    8  C   UNL     1      -8.612  13.686  68.633  1.00  0.00    -0.031 C  
HETATM    9  C   UNL     1      -9.083  14.777  66.343  1.00  0.00    -0.267 A  
HETATM   10  C   UNL     1      -9.890  14.855  65.188  1.00  0.00    -0.165 A  
HETATM   11  O   UNL     1     -11.914  14.051  64.090  1.00  0.00    -0.441 OA 
HETATM   12  C   UNL     1     -11.007  14.051  65.104  1.00  0.00    -0.353 A  
HETATM   13  C   UNL     1      -9.415  13.818  67.352  1.00  0.00    -0.224 A  
HETATM   14  C   UNL     1     -11.340  13.163  66.098  1.00  0.00    -0.312 A  
HETATM   15  C   UNL     1     -12.901  13.137  64.609  1.00  0.00    -0.166 C  
HETATM   16  O   UNL     1     -12.505  12.509  65.846  1.00  0.00    -0.596 OA 
HETATM   17  C   UNL     1     -10.560  13.007  67.216  1.00  0.00    -0.247 A  
ENDROOT
BRANCH   7  18
HETATM   18  C   UNL     1      -8.329  17.229  66.526  1.00  0.00    -0.312 A  
HETATM   19  O   UNL     1      -8.817  21.313  67.253  1.00  0.00    -0.471 OA 
HETATM   20  C   UNL     1      -9.513  19.076  67.553  1.00  0.00    -0.303 A  
HETATM   21  C   UNL     1      -7.556  18.163  65.821  1.00  0.00    -0.070 A  
HETATM   22  H   UNL     1      -9.468  21.617  67.874  1.00  0.00     0.000 HD 
HETATM   23  C   UNL     1      -9.359  17.707  67.346  1.00  0.00    -0.247 A  
HETATM   24  C   UNL     1      -8.653  19.991  66.921  1.00  0.00    -0.336 A  
HETATM   25  C   UNL     1      -7.697  19.544  66.007  1.00  0.00    -0.312 A  
BRANCH  25  26
HETATM   26  O   UNL     1      -6.813  20.243  65.232  1.00  0.00    -0.298 OA 
HETATM   27  C   UNL     1      -5.838  21.081  65.811  1.00  0.00    -0.253 C  
ENDBRANCH  25  26
BRANCH  20  28
HETATM   28  O   UNL     1     -10.443  19.599  68.430  1.00  0.00    -0.419 OA 
HETATM   29  C   UNL     1     -10.102  19.553  69.812  1.00  0.00     0.275 C  
ENDBRANCH  20  28
ENDBRANCH   7  18
BRANCH   8  30
HETATM   30  O   UNL     1      -7.945  12.450  68.777  1.00  0.00    -0.072 OA 
BRANCH  30  31
HETATM   31  C   UNL     1      -8.299  11.231  68.117  1.00  0.00    -0.143 C  
HETATM   32  O   UNL     1      -9.032  10.333  68.960  1.00  0.00    -0.152 OA 
HETATM   33  C   UNL     1      -9.102   9.005  68.417  1.00  0.00    -0.133 C  
HETATM   34  C   UNL     1     -10.016   8.065  69.207  1.00  0.00    -0.191 C  
HETATM   35  O   UNL     1      -9.934   6.738  68.682  1.00  0.00    -0.140 OA 
HETATM   36  C   UNL     1      -8.604   6.230  68.745  1.00  0.00    -0.122 C  
HETATM   37  C   UNL     1      -8.560   4.839  68.130  1.00  0.00    -0.106 C  
HETATM   38  O   UNL     1      -7.715   7.032  67.976  1.00  0.00    -0.108 OA 
HETATM   39  C   UNL     1      -7.707   8.391  68.414  1.00  0.00    -0.105 C  
HETATM   40  C   UNL     1      -6.863   9.162  67.415  1.00  0.00    -0.077 C  
HETATM   41  O   UNL     1      -5.502   8.707  67.496  1.00  0.00    -0.037 OA 
HETATM   42  C   UNL     1      -6.923  10.674  67.640  1.00  0.00    -0.079 C  
HETATM   43  H   UNL     1      -4.974   9.188  66.871  1.00  0.00     0.000 HD 
HETATM   44  O   UNL     1      -6.541  11.367  66.426  1.00  0.00    -0.286 OA 
HETATM   45  H   UNL     1      -5.702  11.028  66.135  1.00  0.00     0.000 HD 
ENDBRANCH  30  31
ENDBRANCH   8  30
TORSDOF 5
ENDMDL
MODEL       82
REMARK 921   NORMALIZED FREE ENERGY PREDICTED BY IDOCK:   -6.14 KCAL/MOL
REMARK 922        TOTAL FREE ENERGY PREDICTED BY IDOCK:   -9.17 KCAL/MOL
REMARK 923 INTER-LIGAND FREE ENERGY PREDICTED BY IDOCK:   -8.23 KCAL/MOL
REMARK 924 INTRA-LIGAND FREE ENERGY PREDICTED BY IDOCK:   -0.93 KCAL/MOL
REMARK 927      BINDING AFFINITY PREDICTED BY RF-SCORE:    0.00 PKD
ROOT
HETATM    1  C   UNL     1      -7.208  10.375  68.524  1.00  0.00    -0.084 C  
HETATM    2  C   UNL     1      -5.850  10.689  67.967  1.00  0.00    -0.042 C  
HETATM    3  O   UNL     1      -6.145  11.184  66.651  1.00  0.00    -0.104 OA 
HETATM    4  C   UNL     1      -7.360  10.698  66.234  1.00  0.00    -0.137 C  
HETATM    5  C   UNL     1      -7.969   9.861  67.321  1.00  0.00    -0.109 C  
HETATM    6  O   UNL     1      -7.787  10.829  65.099  1.00  0.00    -0.071 OA 
HETATM    7  C   UNL     1      -9.486   9.842  67.580  1.00  0.00    -0.164 C  
HETATM    8  C   UNL     1      -7.336   9.441  69.713  1.00  0.00    -0.083 C  
HETATM    9  C   UNL     1      -9.812   9.339  68.995  1.00  0.00    -0.168 A  
HETATM   10  C   UNL     1     -11.157   9.087  69.337  1.00  0.00    -0.000 A  
HETATM   11  O   UNL     1     -12.703   8.534  71.140  1.00  0.00    -0.239 OA 
HETATM   12  C   UNL     1     -11.457   8.748  70.640  1.00  0.00    -0.231 A  
HETATM   13  C   UNL     1      -8.802   9.168  69.994  1.00  0.00    -0.193 A  
HETATM   14  C   UNL     1     -10.484   8.627  71.603  1.00  0.00    -0.296 A  
HETATM   15  C   UNL     1     -12.408   8.363  72.542  1.00  0.00    -0.296 C  
HETATM   16  O   UNL     1     -10.995   8.342  72.830  1.00  0.00    -0.354 OA 
HETATM   17  C   UNL     1      -9.155   8.807  71.310  1.00  0.00    -0.300 A  
ENDROOT
BRANCH   7  18
HETATM   18  C   UNL     1     -10.141  11.176  67.225  1.00  0.00    -0.218 A  
HETATM   19  O   UNL     1     -12.581  14.546  66.854  1.00  0.00    -0.492 OA 
HETATM   20  C   UNL     1     -11.821  12.462  66.044  1.00  0.00    -0.395 A  
HETATM   21  C   UNL     1      -9.964  12.267  68.089  1.00  0.00    -0.210 A  
HETATM   22  H   UNL     1     -13.239  14.591  66.171  1.00  0.00     0.000 HD 
HETATM   23  C   UNL     1     -11.035  11.316  66.156  1.00  0.00    -0.252 A  
HETATM   24  C   UNL     1     -11.704  13.497  66.988  1.00  0.00    -0.383 A  
HETATM   25  C   UNL     1     -10.737  13.431  67.992  1.00  0.00    -0.248 A  
BRANCH  25  26
HETATM   26  O   UNL     1     -10.398  14.335  68.961  1.00  0.00    -0.231 OA 
HETATM   27  C   UNL     1     -11.259  14.599  70.046  1.00  0.00    -0.209 C  
ENDBRANCH  25  26
BRANCH  20  28
HETATM   28  O   UNL     1     -12.791  12.610  65.073  1.00  0.00    -0.765 OA 
HETATM   29  C   UNL     1     -12.390  12.330  63.735  1.00  0.00    -0.538 C  
ENDBRANCH  20  28
ENDBRANCH   7  18
BRANCH   8  30
HETATM   30  O   UNL     1      -6.506   8.301  69.790  1.00  0.00    -0.035 OA 
BRANCH  30  31
HETATM   31  C   UNL     1      -6.678   7.094  69.040  1.00  0.00    -0.056 C  
HETATM   32  O   UNL     1      -6.936   7.333  67.651  1.00  0.00    -0.071 OA 
HETATM   33  C   UNL     1      -7.424   6.163  66.975  1.00  0.00    -0.087 C  
HETATM   34  C   UNL     1      -7.550   6.336  65.460  1.00  0.00    -0.087 C  
HETATM   35  O   UNL     1      -8.156   5.181  64.878  1.00  0.00    -0.106 OA 
HETATM   36  C   UNL     1      -9.456   4.945  65.413  1.00  0.00    -0.123 C  
HETATM   37  C   UNL     1     -10.038   3.679  64.801  1.00  0.00    -0.133 C  
HETATM   38  O   UNL     1      -9.396   4.715  66.816  1.00  0.00    -0.129 OA 
HETATM   39  C   UNL     1      -8.806   5.814  67.512  1.00  0.00    -0.106 C  
HETATM   40  C   UNL     1      -8.646   5.374  68.956  1.00  0.00    -0.102 C  
HETATM   41  O   UNL     1      -9.945   5.182  69.538  1.00  0.00    -0.190 OA 
HETATM   42  C   UNL     1      -7.843   6.376  69.788  1.00  0.00    -0.114 C  
HETATM   43  H   UNL     1      -9.845   4.906  70.441  1.00  0.00     0.000 HD 
HETATM   44  O   UNL     1      -7.302   5.719  70.961  1.00  0.00    -0.080 OA 
HETATM   45  H   UNL     1      -8.012   5.281  71.417  1.00  0.00     0.000 HD 
ENDBRANCH  30  31
ENDBRANCH   8  30
TORSDOF 5
ENDMDL
MODEL       83
REMARK 921   NORMALIZED FREE ENERGY PREDICTED BY IDOCK:   -6.05 KCAL/MOL
REMARK 922        TOTAL FREE ENERGY PREDICTED BY IDOCK:   -9.05 KCAL/MOL
REMARK 923 INTER-LIGAND FREE ENERGY PREDICTED BY IDOCK:   -7.78 KCAL/MOL
REMARK 924 INTRA-LIGAND FREE ENERGY PREDICTED BY IDOCK:   -1.27 KCAL/MOL
REMARK 927      BINDING AFFINITY PREDICTED BY RF-SCORE:    0.00 PKD
ROOT
HETATM    1  C   UNL     1      -9.306   9.101  68.151  1.00  0.00    -0.147 C  
HETATM    2  C   UNL     1     -10.071   9.467  69.389  1.00  0.00    -0.198 C  
HETATM    3  O   UNL     1     -10.654   8.217  69.792  1.00  0.00    -0.226 OA 
HETATM    4  C   UNL     1     -10.759   7.382  68.706  1.00  0.00    -0.118 C  
HETATM    5  C   UNL     1     -10.181   8.054  67.495  1.00  0.00    -0.311 C  
HETATM    6  O   UNL     1     -11.358   6.320  68.726  1.00  0.00    -0.356 OA 
HETATM    7  C   UNL     1      -9.411   7.270  66.418  1.00  0.00    -0.199 C  
HETATM    8  C   UNL     1      -8.894  10.185  67.173  1.00  0.00    -0.132 C  
HETATM    9  C   UNL     1      -8.517   8.193  65.576  1.00  0.00    -0.174 A  
HETATM   10  C   UNL     1      -7.882   7.669  64.431  1.00  0.00    -0.137 A  
HETATM   11  O   UNL     1      -6.255   8.093  62.663  1.00  0.00    -0.083 OA 
HETATM   12  C   UNL     1      -6.990   8.468  63.745  1.00  0.00    -0.087 A  
HETATM   13  C   UNL     1      -8.267   9.554  65.943  1.00  0.00    -0.115 A  
HETATM   14  C   UNL     1      -6.725   9.760  64.129  1.00  0.00    -0.120 A  
HETATM   15  C   UNL     1      -5.430   9.261  62.479  1.00  0.00    -0.085 C  
HETATM   16  O   UNL     1      -5.778  10.352  63.355  1.00  0.00    -0.136 OA 
HETATM   17  C   UNL     1      -7.358  10.336  65.203  1.00  0.00    -0.127 A  
ENDROOT
BRANCH   7  18
HETATM   18  C   UNL     1      -8.683   6.062  67.006  1.00  0.00    -0.110 A  
HETATM   19  O   UNL     1      -6.008   3.027  68.048  1.00  0.00    -0.023 OA 
HETATM   20  C   UNL     1      -7.892   3.778  66.837  1.00  0.00    -0.084 A  
HETATM   21  C   UNL     1      -7.758   6.268  68.040  1.00  0.00    -0.103 A  
HETATM   22  H   UNL     1      -6.038   2.187  67.607  1.00  0.00     0.000 HD 
HETATM   23  C   UNL     1      -8.784   4.778  66.455  1.00  0.00    -0.112 A  
HETATM   24  C   UNL     1      -6.901   4.041  67.799  1.00  0.00    -0.051 A  
HETATM   25  C   UNL     1      -6.856   5.276  68.447  1.00  0.00    -0.056 A  
BRANCH  25  26
HETATM   26  O   UNL     1      -6.040   5.726  69.448  1.00  0.00    -0.028 OA 
HETATM   27  C   UNL     1      -6.253   6.982  70.054  1.00  0.00    -0.031 C  
ENDBRANCH  25  26
BRANCH  20  28
HETATM   28  O   UNL     1      -7.878   2.527  66.254  1.00  0.00    -0.078 OA 
HETATM   29  C   UNL     1      -9.139   1.878  66.125  1.00  0.00    -0.039 C  
ENDBRANCH  20  28
ENDBRANCH   7  18
BRANCH   8  30
HETATM   30  O   UNL     1      -9.789  11.240  66.893  1.00  0.00    -0.189 OA 
BRANCH  30  31
HETATM   31  C   UNL     1      -9.423  12.606  66.673  1.00  0.00    -0.244 C  
HETATM   32  O   UNL     1      -9.484  13.398  67.867  1.00  0.00    -0.201 OA 
HETATM   33  C   UNL     1      -9.436  14.807  67.593  1.00  0.00    -0.204 C  
HETATM   34  C   UNL     1      -9.331  15.674  68.848  1.00  0.00    -0.223 C  
HETATM   35  O   UNL     1      -9.416  17.059  68.503  1.00  0.00    -0.252 OA 
HETATM   36  C   UNL     1     -10.646  17.361  67.850  1.00  0.00    -0.383 C  
HETATM   37  C   UNL     1     -10.667  18.832  67.458  1.00  0.00    -0.474 C  
HETATM   38  O   UNL     1     -10.774  16.626  66.638  1.00  0.00    -0.247 OA 
HETATM   39  C   UNL     1     -10.707  15.217  66.858  1.00  0.00    -0.313 C  
HETATM   40  C   UNL     1     -10.682  14.566  65.488  1.00  0.00    -0.341 C  
HETATM   41  O   UNL     1     -11.935  14.810  64.826  1.00  0.00    -0.411 OA 
HETATM   42  C   UNL     1     -10.412  13.062  65.557  1.00  0.00    -0.285 C  
HETATM   43  H   UNL     1     -11.919  14.403  63.968  1.00  0.00     0.000 HD 
HETATM   44  O   UNL     1      -9.913  12.593  64.280  1.00  0.00    -0.551 OA 
HETATM   45  H   UNL     1     -10.516  12.871  63.600  1.00  0.00     0.000 HD 
ENDBRANCH  30  31
ENDBRANCH   8  30
TORSDOF 5
ENDMDL
MODEL       84
REMARK 921   NORMALIZED FREE ENERGY PREDICTED BY IDOCK:   -6.01 KCAL/MOL
REMARK 922        TOTAL FREE ENERGY PREDICTED BY IDOCK:   -9.00 KCAL/MOL
REMARK 923 INTER-LIGAND FREE ENERGY PREDICTED BY IDOCK:   -9.45 KCAL/MOL
REMARK 924 INTRA-LIGAND FREE ENERGY PREDICTED BY IDOCK:    0.45 KCAL/MOL
REMARK 927      BINDING AFFINITY PREDICTED BY RF-SCORE:    0.00 PKD
ROOT
HETATM    1  C   UNL     1     -10.674  11.132  65.037  1.00  0.00    -0.301 C  
HETATM    2  C   UNL     1     -10.772  11.656  63.634  1.00  0.00    -0.435 C  
HETATM    3  O   UNL     1      -9.645  11.050  62.982  1.00  0.00    -0.304 OA 
HETATM    4  C   UNL     1      -8.688  10.727  63.913  1.00  0.00    -0.075 C  
HETATM    5  C   UNL     1      -9.182  11.076  65.286  1.00  0.00    -0.229 C  
HETATM    6  O   UNL     1      -7.566  10.344  63.625  1.00  0.00    -0.126 OA 
HETATM    7  C   UNL     1      -8.848  10.213  66.516  1.00  0.00    -0.153 C  
HETATM    8  C   UNL     1     -11.407  11.843  66.159  1.00  0.00    -0.324 C  
HETATM    9  C   UNL     1      -9.832  10.465  67.668  1.00  0.00    -0.197 A  
HETATM   10  C   UNL     1      -9.567   9.893  68.931  1.00  0.00    -0.172 A  
HETATM   11  O   UNL     1     -10.432   9.483  71.174  1.00  0.00    -0.313 OA 
HETATM   12  C   UNL     1     -10.510  10.024  69.929  1.00  0.00    -0.274 A  
HETATM   13  C   UNL     1     -11.037  11.217  67.491  1.00  0.00    -0.346 A  
HETATM   14  C   UNL     1     -11.683  10.713  69.736  1.00  0.00    -0.310 A  
HETATM   15  C   UNL     1     -11.729   9.827  71.701  1.00  0.00    -0.318 C  
HETATM   16  O   UNL     1     -12.497  10.675  70.823  1.00  0.00    -0.324 OA 
HETATM   17  C   UNL     1     -11.966  11.335  68.544  1.00  0.00    -0.288 A  
ENDROOT
BRANCH   7  18
HETATM   18  C   UNL     1      -8.680   8.740  66.148  1.00  0.00    -0.184 A  
HETATM   19  O   UNL     1      -8.773   4.933  64.431  1.00  0.00    -0.147 OA 
HETATM   20  C   UNL     1      -9.522   6.470  66.061  1.00  0.00     0.055 A  
HETATM   21  C   UNL     1      -7.741   8.392  65.165  1.00  0.00    -0.097 A  
HETATM   22  H   UNL     1      -9.409   4.290  64.720  1.00  0.00     0.000 HD 
HETATM   23  C   UNL     1      -9.528   7.739  66.638  1.00  0.00    -0.263 A  
HETATM   24  C   UNL     1      -8.647   6.177  65.001  1.00  0.00    -0.008 A  
HETATM   25  C   UNL     1      -7.711   7.121  64.576  1.00  0.00    -0.113 A  
BRANCH  25  26
HETATM   26  O   UNL     1      -6.729   7.037  63.628  1.00  0.00    -0.042 OA 
HETATM   27  C   UNL     1      -6.913   7.575  62.337  1.00  0.00    -0.075 C  
ENDBRANCH  25  26
BRANCH  20  28
HETATM   28  O   UNL     1     -10.406   5.477  66.433  1.00  0.00    -0.220 OA 
HETATM   29  C   UNL     1     -10.877   5.523  67.775  1.00  0.00     0.014 C  
ENDBRANCH  20  28
ENDBRANCH   7  18
BRANCH   8  30
HETATM   30  O   UNL     1     -11.449  13.255  66.172  1.00  0.00    -0.309 OA 
BRANCH  30  31
HETATM   31  C   UNL     1     -10.312  14.121  66.231  1.00  0.00    -0.292 C  
HETATM   32  O   UNL     1      -9.886  14.390  67.573  1.00  0.00    -0.217 OA 
HETATM   33  C   UNL     1      -8.971  15.495  67.647  1.00  0.00    -0.184 C  
HETATM   34  C   UNL     1      -8.368  15.702  69.038  1.00  0.00    -0.235 C  
HETATM   35  O   UNL     1      -7.571  16.888  69.061  1.00  0.00    -0.240 OA 
HETATM   36  C   UNL     1      -8.339  18.041  68.728  1.00  0.00    -0.212 C  
HETATM   37  C   UNL     1      -7.438  19.269  68.716  1.00  0.00    -0.387 C  
HETATM   38  O   UNL     1      -8.878  17.934  67.415  1.00  0.00    -0.241 OA 
HETATM   39  C   UNL     1      -9.703  16.777  67.270  1.00  0.00    -0.250 C  
HETATM   40  C   UNL     1     -10.068  16.688  65.799  1.00  0.00    -0.277 C  
HETATM   41  O   UNL     1     -10.890  17.813  65.448  1.00  0.00    -0.550 OA 
HETATM   42  C   UNL     1     -10.789  15.385  65.452  1.00  0.00    -0.391 C  
HETATM   43  H   UNL     1     -11.118  17.759  64.528  1.00  0.00     0.000 HD 
HETATM   44  O   UNL     1     -10.671  15.122  64.031  1.00  0.00    -0.098 OA 
HETATM   45  H   UNL     1     -10.962  15.891  63.556  1.00  0.00     0.000 HD 
ENDBRANCH  30  31
ENDBRANCH   8  30
TORSDOF 5
ENDMDL
MODEL       85
REMARK 921   NORMALIZED FREE ENERGY PREDICTED BY IDOCK:   -5.99 KCAL/MOL
REMARK 922        TOTAL FREE ENERGY PREDICTED BY IDOCK:   -8.97 KCAL/MOL
REMARK 923 INTER-LIGAND FREE ENERGY PREDICTED BY IDOCK:   -9.32 KCAL/MOL
REMARK 924 INTRA-LIGAND FREE ENERGY PREDICTED BY IDOCK:    0.35 KCAL/MOL
REMARK 927      BINDING AFFINITY PREDICTED BY RF-SCORE:    0.00 PKD
ROOT
HETATM    1  C   UNL     1     -11.001  10.866  67.999  1.00  0.00    -0.317 C  
HETATM    2  C   UNL     1     -11.636  11.819  67.028  1.00  0.00    -0.244 C  
HETATM    3  O   UNL     1     -10.731  11.797  65.913  1.00  0.00    -0.264 OA 
HETATM    4  C   UNL     1      -9.482  11.412  66.336  1.00  0.00    -0.204 C  
HETATM    5  C   UNL     1      -9.519  11.103  67.804  1.00  0.00    -0.173 C  
HETATM    6  O   UNL     1      -8.486  11.456  65.633  1.00  0.00    -0.051 OA 
HETATM    7  C   UNL     1      -8.681   9.969  68.420  1.00  0.00    -0.117 C  
HETATM    8  C   UNL     1     -11.392  10.913  69.464  1.00  0.00    -0.283 C  
HETATM    9  C   UNL     1      -9.238   9.528  69.782  1.00  0.00    -0.224 A  
HETATM   10  C   UNL     1      -8.490   8.626  70.567  1.00  0.00    -0.160 A  
HETATM   11  O   UNL     1      -8.481   7.227  72.565  1.00  0.00    -0.106 OA 
HETATM   12  C   UNL     1      -9.046   8.144  71.733  1.00  0.00    -0.174 A  
HETATM   13  C   UNL     1     -10.516   9.963  70.259  1.00  0.00    -0.348 A  
HETATM   14  C   UNL     1     -10.291   8.535  72.162  1.00  0.00    -0.339 A  
HETATM   15  C   UNL     1      -9.554   7.017  73.505  1.00  0.00    -0.208 C  
HETATM   16  O   UNL     1     -10.675   7.902  73.302  1.00  0.00    -0.341 OA 
HETATM   17  C   UNL     1     -11.037   9.453  71.465  1.00  0.00    -0.446 A  
ENDROOT
BRANCH   7  18
HETATM   18  C   UNL     1      -8.464   8.822  67.433  1.00  0.00    -0.116 A  
HETATM   19  O   UNL     1      -8.385   6.215  64.171  1.00  0.00    -0.283 OA 
HETATM   20  C   UNL     1      -9.259   6.851  66.271  1.00  0.00    -0.120 A  
HETATM   21  C   UNL     1      -7.462   8.949  66.459  1.00  0.00    -0.088 A  
HETATM   22  H   UNL     1      -9.026   5.519  64.096  1.00  0.00     0.000 HD 
HETATM   23  C   UNL     1      -9.322   7.718  67.360  1.00  0.00    -0.168 A  
HETATM   24  C   UNL     1      -8.316   7.062  65.250  1.00  0.00    -0.096 A  
HETATM   25  C   UNL     1      -7.374   8.086  65.360  1.00  0.00    -0.069 A  
BRANCH  25  26
HETATM   26  O   UNL     1      -6.335   8.431  64.539  1.00  0.00    -0.064 OA 
HETATM   27  C   UNL     1      -6.559   9.122  63.331  1.00  0.00    -0.090 C  
ENDBRANCH  25  26
BRANCH  20  28
HETATM   28  O   UNL     1     -10.146   5.807  66.095  1.00  0.00    -0.113 OA 
HETATM   29  C   UNL     1     -10.992   5.506  67.199  1.00  0.00     0.099 C  
ENDBRANCH  20  28
ENDBRANCH   7  18
BRANCH   8  30
HETATM   30  O   UNL     1     -11.604  12.164  70.084  1.00  0.00    -0.248 OA 
BRANCH  30  31
HETATM   31  C   UNL     1     -11.636  13.430  69.416  1.00  0.00    -0.307 C  
HETATM   32  O   UNL     1     -10.359  13.817  68.894  1.00  0.00    -0.219 OA 
HETATM   33  C   UNL     1     -10.317  15.203  68.521  1.00  0.00    -0.230 C  
HETATM   34  C   UNL     1      -9.026  15.609  67.807  1.00  0.00    -0.176 C  
HETATM   35  O   UNL     1      -9.007  17.020  67.582  1.00  0.00    -0.217 OA 
HETATM   36  C   UNL     1      -9.092  17.747  68.804  1.00  0.00    -0.205 C  
HETATM   37  C   UNL     1      -9.120  19.241  68.509  1.00  0.00    -0.425 C  
HETATM   38  O   UNL     1     -10.307  17.457  69.487  1.00  0.00    -0.232 OA 
HETATM   39  C   UNL     1     -10.438  16.064  69.773  1.00  0.00    -0.300 C  
HETATM   40  C   UNL     1     -11.833  15.868  70.338  1.00  0.00    -0.338 C  
HETATM   41  O   UNL     1     -11.931  16.548  71.600  1.00  0.00    -0.651 OA 
HETATM   42  C   UNL     1     -12.195  14.392  70.509  1.00  0.00    -0.341 C  
HETATM   43  H   UNL     1     -12.803  16.426  71.954  1.00  0.00     0.000 HD 
HETATM   44  O   UNL     1     -13.635  14.242  70.562  1.00  0.00    -0.321 OA 
HETATM   45  H   UNL     1     -13.976  14.828  71.228  1.00  0.00     0.000 HD 
ENDBRANCH  30  31
ENDBRANCH   8  30
TORSDOF 5
ENDMDL
MODEL       86
REMARK 921   NORMALIZED FREE ENERGY PREDICTED BY IDOCK:   -5.97 KCAL/MOL
REMARK 922        TOTAL FREE ENERGY PREDICTED BY IDOCK:   -8.95 KCAL/MOL
REMARK 923 INTER-LIGAND FREE ENERGY PREDICTED BY IDOCK:   -7.68 KCAL/MOL
REMARK 924 INTRA-LIGAND FREE ENERGY PREDICTED BY IDOCK:   -1.27 KCAL/MOL
REMARK 927      BINDING AFFINITY PREDICTED BY RF-SCORE:    0.00 PKD
ROOT
HETATM    1  C   UNL     1      -8.802  10.938  68.890  1.00  0.00    -0.143 C  
HETATM    2  C   UNL     1      -8.197  10.102  69.980  1.00  0.00    -0.035 C  
HETATM    3  O   UNL     1      -6.976  10.796  70.281  1.00  0.00    -0.233 OA 
HETATM    4  C   UNL     1      -6.585  11.541  69.195  1.00  0.00    -0.102 C  
HETATM    5  C   UNL     1      -7.600  11.404  68.098  1.00  0.00    -0.114 C  
HETATM    6  O   UNL     1      -5.507  12.105  69.115  1.00  0.00    -0.061 OA 
HETATM    7  C   UNL     1      -7.958  12.577  67.168  1.00  0.00    -0.140 C  
HETATM    8  C   UNL     1      -9.873  10.345  67.994  1.00  0.00    -0.150 C  
HETATM    9  C   UNL     1      -9.319  12.365  66.488  1.00  0.00    -0.233 A  
HETATM   10  C   UNL     1      -9.718  13.254  65.467  1.00  0.00    -0.063 A  
HETATM   11  O   UNL     1     -11.541  13.943  64.000  1.00  0.00    -0.336 OA 
HETATM   12  C   UNL     1     -10.987  13.131  64.941  1.00  0.00    -0.318 A  
HETATM   13  C   UNL     1     -10.218  11.326  66.889  1.00  0.00    -0.254 A  
HETATM   14  C   UNL     1     -11.859  12.156  65.362  1.00  0.00    -0.295 A  
HETATM   15  C   UNL     1     -12.887  13.427  63.956  1.00  0.00     0.230 C  
HETATM   16  O   UNL     1     -13.073  12.243  64.758  1.00  0.00    -0.724 OA 
HETATM   17  C   UNL     1     -11.500  11.231  66.312  1.00  0.00     0.076 A  
ENDROOT
BRANCH   7  18
HETATM   18  C   UNL     1      -7.815  13.925  67.873  1.00  0.00    -0.161 A  
HETATM   19  O   UNL     1      -7.883  17.929  69.060  1.00  0.00    -0.212 OA 
HETATM   20  C   UNL     1      -6.750  16.088  68.110  1.00  0.00    -0.124 A  
HETATM   21  C   UNL     1      -8.898  14.417  68.617  1.00  0.00    -0.167 A  
HETATM   22  H   UNL     1      -7.157  18.505  68.853  1.00  0.00     0.000 HD 
HETATM   23  C   UNL     1      -6.708  14.762  67.684  1.00  0.00    -0.198 A  
HETATM   24  C   UNL     1      -7.892  16.590  68.757  1.00  0.00    -0.235 A  
HETATM   25  C   UNL     1      -8.959  15.744  69.062  1.00  0.00    -0.246 A  
BRANCH  25  26
HETATM   26  O   UNL     1     -10.124  15.988  69.736  1.00  0.00    -0.266 OA 
HETATM   27  C   UNL     1     -11.280  15.216  69.500  1.00  0.00    -0.273 C  
ENDBRANCH  25  26
BRANCH  20  28
HETATM   28  O   UNL     1      -5.730  16.985  67.860  1.00  0.00    -0.114 OA 
HETATM   29  C   UNL     1      -5.248  17.033  66.521  1.00  0.00    -0.070 C  
ENDBRANCH  20  28
ENDBRANCH   7  18
BRANCH   8  30
HETATM   30  O   UNL     1      -9.752   9.005  67.564  1.00  0.00    -0.149 OA 
BRANCH  30  31
HETATM   31  C   UNL     1     -10.418   7.880  68.146  1.00  0.00    -0.173 C  
HETATM   32  O   UNL     1     -10.332   7.860  69.577  1.00  0.00    -0.208 OA 
HETATM   33  C   UNL     1     -10.708   6.590  70.130  1.00  0.00    -0.252 C  
HETATM   34  C   UNL     1     -10.789   6.584  71.658  1.00  0.00    -0.240 C  
HETATM   35  O   UNL     1     -11.043   5.262  72.137  1.00  0.00    -0.207 OA 
HETATM   36  C   UNL     1     -10.020   4.355  71.738  1.00  0.00    -0.186 C  
HETATM   37  C   UNL     1     -10.361   2.953  72.226  1.00  0.00    -0.116 C  
HETATM   38  O   UNL     1      -9.938   4.270  70.319  1.00  0.00    -0.210 OA 
HETATM   39  C   UNL     1      -9.680   5.541  69.723  1.00  0.00    -0.176 C  
HETATM   40  C   UNL     1      -9.788   5.344  68.222  1.00  0.00    -0.150 C  
HETATM   41  O   UNL     1      -8.732   4.474  67.783  1.00  0.00    -0.102 OA 
HETATM   42  C   UNL     1      -9.732   6.665  67.451  1.00  0.00    -0.128 C  
HETATM   43  H   UNL     1      -8.800   4.350  66.844  1.00  0.00     0.000 HD 
HETATM   44  O   UNL     1     -10.320   6.492  66.138  1.00  0.00    -0.425 OA 
HETATM   45  H   UNL     1      -9.902   5.751  65.714  1.00  0.00     0.000 HD 
ENDBRANCH  30  31
ENDBRANCH   8  30
TORSDOF 5
ENDMDL
MODEL       87
REMARK 921   NORMALIZED FREE ENERGY PREDICTED BY IDOCK:   -5.95 KCAL/MOL
REMARK 922        TOTAL FREE ENERGY PREDICTED BY IDOCK:   -8.92 KCAL/MOL
REMARK 923 INTER-LIGAND FREE ENERGY PREDICTED BY IDOCK:   -7.57 KCAL/MOL
REMARK 924 INTRA-LIGAND FREE ENERGY PREDICTED BY IDOCK:   -1.36 KCAL/MOL
REMARK 927      BINDING AFFINITY PREDICTED BY RF-SCORE:    0.00 PKD
ROOT
HETATM    1  C   UNL     1      -9.220  10.756  66.332  1.00  0.00    -0.191 C  
HETATM    2  C   UNL     1      -8.345  10.405  65.164  1.00  0.00    -0.165 C  
HETATM    3  O   UNL     1      -8.381  11.597  64.363  1.00  0.00     0.765 OA 
HETATM    4  C   UNL     1      -9.524  12.308  64.638  1.00  0.00     0.241 C  
HETATM    5  C   UNL     1     -10.305  11.611  65.713  1.00  0.00    -0.292 C  
HETATM    6  O   UNL     1      -9.888  13.278  63.994  1.00  0.00    -0.155 OA 
HETATM    7  C   UNL     1     -11.089  12.390  66.785  1.00  0.00    -0.333 C  
HETATM    8  C   UNL     1      -9.798   9.652  67.197  1.00  0.00    -0.186 C  
HETATM    9  C   UNL     1     -11.376  11.520  68.019  1.00  0.00    -0.368 A  
HETATM   10  C   UNL     1     -12.239  12.017  69.018  1.00  0.00    -0.078 A  
HETATM   11  O   UNL     1     -13.148  11.654  71.252  1.00  0.00    -0.318 OA 
HETATM   12  C   UNL     1     -12.402  11.286  70.176  1.00  0.00    -0.276 A  
HETATM   13  C   UNL     1     -10.757  10.245  68.213  1.00  0.00    -0.276 A  
HETATM   14  C   UNL     1     -11.770  10.082  70.371  1.00  0.00    -0.286 A  
HETATM   15  C   UNL     1     -12.830  10.595  72.178  1.00  0.00    -0.137 C  
HETATM   16  O   UNL     1     -12.020   9.553  71.598  1.00  0.00    -0.362 OA 
HETATM   17  C   UNL     1     -10.964   9.527  69.408  1.00  0.00    -0.192 A  
ENDROOT
BRANCH   7  18
HETATM   18  C   UNL     1     -10.435  13.733  67.105  1.00  0.00    -0.272 A  
HETATM   19  O   UNL     1      -9.200  17.380  68.723  1.00  0.00    -0.279 OA 
HETATM   20  C   UNL     1     -10.494  16.153  67.175  1.00  0.00    -0.305 A  
HETATM   21  C   UNL     1      -9.381  13.768  68.030  1.00  0.00    -0.199 A  
HETATM   22  H   UNL     1      -9.610  18.192  68.449  1.00  0.00     0.000 HD 
HETATM   23  C   UNL     1     -10.941  14.950  66.632  1.00  0.00    -0.325 A  
HETATM   24  C   UNL     1      -9.514  16.157  68.181  1.00  0.00    -0.209 A  
HETATM   25  C   UNL     1      -8.910  14.965  68.583  1.00  0.00    -0.179 A  
BRANCH  25  26
HETATM   26  O   UNL     1      -7.902  14.736  69.479  1.00  0.00    -0.140 OA 
HETATM   27  C   UNL     1      -6.702  15.477  69.432  1.00  0.00    -0.169 C  
ENDBRANCH  25  26
BRANCH  20  28
HETATM   28  O   UNL     1     -11.030  17.376  66.821  1.00  0.00    -0.051 OA 
HETATM   29  C   UNL     1     -10.425  18.032  65.712  1.00  0.00    -0.198 C  
ENDBRANCH  20  28
ENDBRANCH   7  18
BRANCH   8  30
HETATM   30  O   UNL     1     -10.259   8.464  66.587  1.00  0.00    -0.285 OA 
BRANCH  30  31
HETATM   31  C   UNL     1      -9.661   7.171  66.724  1.00  0.00    -0.192 C  
HETATM   32  O   UNL     1      -8.557   6.971  65.832  1.00  0.00    -0.143 OA 
HETATM   33  C   UNL     1      -8.172   5.591  65.737  1.00  0.00    -0.124 C  
HETATM   34  C   UNL     1      -6.895   5.363  64.927  1.00  0.00    -0.049 C  
HETATM   35  O   UNL     1      -6.649   3.963  64.773  1.00  0.00    -0.041 OA 
HETATM   36  C   UNL     1      -7.727   3.312  64.105  1.00  0.00    -0.077 C  
HETATM   37  C   UNL     1      -7.442   1.820  64.011  1.00  0.00    -0.058 C  
HETATM   38  O   UNL     1      -8.936   3.438  64.846  1.00  0.00    -0.122 OA 
HETATM   39  C   UNL     1      -9.290   4.805  65.062  1.00  0.00    -0.107 C  
HETATM   40  C   UNL     1     -10.485   4.799  65.998  1.00  0.00    -0.292 C  
HETATM   41  O   UNL     1     -11.605   4.195  65.329  1.00  0.00    -0.622 OA 
HETATM   42  C   UNL     1     -10.858   6.201  66.481  1.00  0.00    -0.095 C  
HETATM   43  H   UNL     1     -12.352   4.191  65.915  1.00  0.00     0.000 HD 
HETATM   44  O   UNL     1     -11.632   6.110  67.703  1.00  0.00    -0.425 OA 
HETATM   45  H   UNL     1     -12.361   5.519  67.555  1.00  0.00     0.000 HD 
ENDBRANCH  30  31
ENDBRANCH   8  30
TORSDOF 5
ENDMDL
MODEL       88
REMARK 921   NORMALIZED FREE ENERGY PREDICTED BY IDOCK:   -5.95 KCAL/MOL
REMARK 922        TOTAL FREE ENERGY PREDICTED BY IDOCK:   -8.92 KCAL/MOL
REMARK 923 INTER-LIGAND FREE ENERGY PREDICTED BY IDOCK:   -7.42 KCAL/MOL
REMARK 924 INTRA-LIGAND FREE ENERGY PREDICTED BY IDOCK:   -1.50 KCAL/MOL
REMARK 927      BINDING AFFINITY PREDICTED BY RF-SCORE:    0.00 PKD
ROOT
HETATM    1  C   UNL     1      -7.823  11.708  67.971  1.00  0.00    -0.128 C  
HETATM    2  C   UNL     1      -6.717  11.243  68.873  1.00  0.00    -0.081 C  
HETATM    3  O   UNL     1      -6.427  12.410  69.659  1.00  0.00    -0.119 OA 
HETATM    4  C   UNL     1      -6.818  13.537  68.978  1.00  0.00    -0.107 C  
HETATM    5  C   UNL     1      -7.454  13.146  67.677  1.00  0.00    -0.164 C  
HETATM    6  O   UNL     1      -6.551  14.671  69.340  1.00  0.00    -0.117 OA 
HETATM    7  C   UNL     1      -8.643  13.924  67.085  1.00  0.00    -0.217 C  
HETATM    8  C   UNL     1      -8.136  10.936  66.703  1.00  0.00    -0.147 C  
HETATM    9  C   UNL     1      -9.417  13.081  66.060  1.00  0.00    -0.108 A  
HETATM   10  C   UNL     1     -10.424  13.699  65.289  1.00  0.00    -0.362 A  
HETATM   11  O   UNL     1     -12.237  13.346  63.696  1.00  0.00    -0.616 OA 
HETATM   12  C   UNL     1     -11.194  12.915  64.455  1.00  0.00    -0.351 A  
HETATM   13  C   UNL     1      -9.185  11.679  65.896  1.00  0.00    -0.206 A  
HETATM   14  C   UNL     1     -10.991  11.562  64.335  1.00  0.00    -0.324 A  
HETATM   15  C   UNL     1     -12.724  12.095  63.169  1.00  0.00    -0.116 C  
HETATM   16  O   UNL     1     -11.890  10.969  63.507  1.00  0.00     0.363 OA 
HETATM   17  C   UNL     1      -9.988  10.921  65.020  1.00  0.00    -0.356 A  
ENDROOT
BRANCH   7  18
HETATM   18  C   UNL     1      -9.519  14.540  68.176  1.00  0.00    -0.208 A  
HETATM   19  O   UNL     1     -12.534  16.296  70.472  1.00  0.00    -0.425 OA 
HETATM   20  C   UNL     1     -10.520  16.466  69.251  1.00  0.00    -0.303 A  
HETATM   21  C   UNL     1     -10.477  13.734  68.809  1.00  0.00    -0.224 A  
HETATM   22  H   UNL     1     -12.562  17.237  70.591  1.00  0.00     0.000 HD 
HETATM   23  C   UNL     1      -9.514  15.910  68.463  1.00  0.00    -0.209 A  
HETATM   24  C   UNL     1     -11.533  15.652  69.786  1.00  0.00    -0.342 A  
HETATM   25  C   UNL     1     -11.493  14.268  69.611  1.00  0.00    -0.282 A  
BRANCH  25  26
HETATM   26  O   UNL     1     -12.316  13.287  70.090  1.00  0.00    -0.301 OA 
HETATM   27  C   UNL     1     -11.907  11.937  70.111  1.00  0.00    -0.308 C  
ENDBRANCH  25  26
BRANCH  20  28
HETATM   28  O   UNL     1     -10.623  17.824  69.483  1.00  0.00    -0.033 OA 
HETATM   29  C   UNL     1      -9.755  18.660  68.724  1.00  0.00    -0.366 C  
ENDBRANCH  20  28
ENDBRANCH   7  18
BRANCH   8  30
HETATM   30  O   UNL     1      -7.075  10.410  65.934  1.00  0.00    -0.123 OA 
BRANCH  30  31
HETATM   31  C   UNL     1      -6.863   9.025  65.644  1.00  0.00    -0.076 C  
HETATM   32  O   UNL     1      -7.365   8.642  64.357  1.00  0.00    -0.097 OA 
HETATM   33  C   UNL     1      -7.447   7.216  64.203  1.00  0.00    -0.099 C  
HETATM   34  C   UNL     1      -7.818   6.772  62.787  1.00  0.00    -0.107 C  
HETATM   35  O   UNL     1      -8.003   5.355  62.744  1.00  0.00    -0.080 OA 
HETATM   36  C   UNL     1      -9.035   4.935  63.632  1.00  0.00    -0.024 C  
HETATM   37  C   UNL     1      -9.158   3.418  63.589  1.00  0.00    -0.094 C  
HETATM   38  O   UNL     1      -8.716   5.267  64.979  1.00  0.00    -0.150 OA 
HETATM   39  C   UNL     1      -8.511   6.671  65.148  1.00  0.00    -0.034 C  
HETATM   40  C   UNL     1      -8.014   6.867  66.568  1.00  0.00    -0.109 C  
HETATM   41  O   UNL     1      -9.057   6.501  67.487  1.00  0.00    -0.117 OA 
HETATM   42  C   UNL     1      -7.560   8.303  66.838  1.00  0.00    -0.092 C  
HETATM   43  H   UNL     1      -8.746   6.623  68.376  1.00  0.00     0.000 HD 
HETATM   44  O   UNL     1      -6.666   8.329  67.978  1.00  0.00    -0.062 OA 
HETATM   45  H   UNL     1      -7.090   7.889  68.706  1.00  0.00     0.000 HD 
ENDBRANCH  30  31
ENDBRANCH   8  30
TORSDOF 5
ENDMDL
MODEL       89
REMARK 921   NORMALIZED FREE ENERGY PREDICTED BY IDOCK:   -5.93 KCAL/MOL
REMARK 922        TOTAL FREE ENERGY PREDICTED BY IDOCK:   -8.89 KCAL/MOL
REMARK 923 INTER-LIGAND FREE ENERGY PREDICTED BY IDOCK:   -8.11 KCAL/MOL
REMARK 924 INTRA-LIGAND FREE ENERGY PREDICTED BY IDOCK:   -0.78 KCAL/MOL
REMARK 927      BINDING AFFINITY PREDICTED BY RF-SCORE:    0.00 PKD
ROOT
HETATM    1  C   UNL     1     -10.063  11.162  66.524  1.00  0.00    -0.265 C  
HETATM    2  C   UNL     1      -9.745  11.504  65.097  1.00  0.00    -0.237 C  
HETATM    3  O   UNL     1     -10.563  12.659  64.851  1.00  0.00    -0.286 OA 
HETATM    4  C   UNL     1     -11.630  12.665  65.715  1.00  0.00    -0.387 C  
HETATM    5  C   UNL     1     -11.535  11.489  66.643  1.00  0.00    -0.205 C  
HETATM    6  O   UNL     1     -12.567  13.441  65.628  1.00  0.00    -0.466 OA 
HETATM    7  C   UNL     1     -11.977  11.575  68.115  1.00  0.00    -0.206 C  
HETATM    8  C   UNL     1      -9.748   9.775  67.053  1.00  0.00    -0.183 C  
HETATM    9  C   UNL     1     -11.344  10.459  68.961  1.00  0.00    -0.279 A  
HETATM   10  C   UNL     1     -11.781  10.280  70.291  1.00  0.00    -0.388 A  
HETATM   11  O   UNL     1     -11.390   9.109  72.394  1.00  0.00    -0.151 OA 
HETATM   12  C   UNL     1     -11.131   9.356  71.082  1.00  0.00    -0.362 A  
HETATM   13  C   UNL     1     -10.291   9.629  68.463  1.00  0.00    -0.231 A  
HETATM   14  C   UNL     1     -10.092   8.593  70.607  1.00  0.00    -0.198 A  
HETATM   15  C   UNL     1     -10.333   8.180  72.710  1.00  0.00    -0.313 C  
HETATM   16  O   UNL     1      -9.555   7.788  71.561  1.00  0.00    -0.153 OA 
HETATM   17  C   UNL     1      -9.665   8.689  69.305  1.00  0.00    -0.173 A  
ENDROOT
BRANCH   7  18
HETATM   18  C   UNL     1     -11.782  12.979  68.686  1.00  0.00    -0.359 A  
HETATM   19  O   UNL     1     -10.753  16.374  70.890  1.00  0.00     0.109 OA 
HETATM   20  C   UNL     1     -12.309  14.694  70.313  1.00  0.00    -0.349 A  
HETATM   21  C   UNL     1     -10.594  13.666  68.399  1.00  0.00    -0.260 A  
HETATM   22  H   UNL     1     -11.331  16.700  71.569  1.00  0.00     0.000 HD 
HETATM   23  C   UNL     1     -12.670  13.547  69.608  1.00  0.00     0.266 A  
HETATM   24  C   UNL     1     -11.064  15.304  70.087  1.00  0.00    -0.293 A  
HETATM   25  C   UNL     1     -10.214  14.824  69.089  1.00  0.00    -0.220 A  
BRANCH  25  26
HETATM   26  O   UNL     1      -9.006  15.291  68.650  1.00  0.00    -0.174 OA 
HETATM   27  C   UNL     1      -8.440  14.829  67.443  1.00  0.00    -0.201 C  
ENDBRANCH  25  26
BRANCH  20  28
HETATM   28  O   UNL     1     -13.099  15.239  71.306  1.00  0.00    -0.395 OA 
HETATM   29  C   UNL     1     -14.090  14.382  71.864  1.00  0.00    -0.508 C  
ENDBRANCH  20  28
ENDBRANCH   7  18
BRANCH   8  30
HETATM   30  O   UNL     1      -9.971   8.652  66.225  1.00  0.00    -0.277 OA 
BRANCH  30  31
HETATM   31  C   UNL     1      -9.282   7.401  66.316  1.00  0.00    -0.135 C  
HETATM   32  O   UNL     1      -8.110   7.350  65.492  1.00  0.00    -0.118 OA 
HETATM   33  C   UNL     1      -7.611   6.013  65.331  1.00  0.00    -0.086 C  
HETATM   34  C   UNL     1      -6.270   5.941  64.599  1.00  0.00    -0.029 C  
HETATM   35  O   UNL     1      -5.903   4.579  64.368  1.00  0.00    -0.016 OA 
HETATM   36  C   UNL     1      -6.880   3.899  63.585  1.00  0.00    -0.044 C  
HETATM   37  C   UNL     1      -6.472   2.443  63.410  1.00  0.00    -0.022 C  
HETATM   38  O   UNL     1      -8.141   3.879  64.246  1.00  0.00    -0.088 OA 
HETATM   39  C   UNL     1      -8.616   5.196  64.528  1.00  0.00    -0.130 C  
HETATM   40  C   UNL     1      -9.864   5.032  65.375  1.00  0.00     0.021 C  
HETATM   41  O   UNL     1     -10.887   4.397  64.591  1.00  0.00    -0.522 OA 
HETATM   42  C   UNL     1     -10.379   6.364  65.925  1.00  0.00     0.757 C  
HETATM   43  H   UNL     1     -11.668   4.294  65.121  1.00  0.00     0.000 HD 
HETATM   44  O   UNL     1     -11.220   6.127  67.081  1.00  0.00    -0.555 OA 
HETATM   45  H   UNL     1     -11.889   5.495  66.843  1.00  0.00     0.000 HD 
ENDBRANCH  30  31
ENDBRANCH   8  30
TORSDOF 5
ENDMDL
MODEL       90
REMARK 921   NORMALIZED FREE ENERGY PREDICTED BY IDOCK:   -5.90 KCAL/MOL
REMARK 922        TOTAL FREE ENERGY PREDICTED BY IDOCK:   -8.85 KCAL/MOL
REMARK 923 INTER-LIGAND FREE ENERGY PREDICTED BY IDOCK:   -8.38 KCAL/MOL
REMARK 924 INTRA-LIGAND FREE ENERGY PREDICTED BY IDOCK:   -0.47 KCAL/MOL
REMARK 927      BINDING AFFINITY PREDICTED BY RF-SCORE:    0.00 PKD
ROOT
HETATM    1  C   UNL     1      -9.784  12.470  65.807  1.00  0.00    -0.196 C  
HETATM    2  C   UNL     1     -10.218  13.082  64.507  1.00  0.00    -0.308 C  
HETATM    3  O   UNL     1     -11.480  13.683  64.837  1.00  0.00    -0.320 OA 
HETATM    4  C   UNL     1     -12.024  13.052  65.929  1.00  0.00    -0.435 C  
HETATM    5  C   UNL     1     -11.083  11.991  66.419  1.00  0.00    -0.365 C  
HETATM    6  O   UNL     1     -13.158  13.253  66.331  1.00  0.00     0.171 OA 
HETATM    7  C   UNL     1     -10.918  11.678  67.917  1.00  0.00    -0.277 C  
HETATM    8  C   UNL     1      -8.725  11.383  65.810  1.00  0.00    -0.062 C  
HETATM    9  C   UNL     1      -9.595  10.949  68.201  1.00  0.00    -0.169 A  
HETATM   10  C   UNL     1      -9.366  10.427  69.491  1.00  0.00    -0.150 A  
HETATM   11  O   UNL     1      -7.736   9.389  70.980  1.00  0.00    -0.284 OA 
HETATM   12  C   UNL     1      -8.133   9.878  69.773  1.00  0.00    -0.176 A  
HETATM   13  C   UNL     1      -8.566  10.827  67.214  1.00  0.00    -0.130 A  
HETATM   14  C   UNL     1      -7.136   9.803  68.831  1.00  0.00    -0.067 A  
HETATM   15  C   UNL     1      -6.351   9.094  70.710  1.00  0.00    -0.064 C  
HETATM   16  O   UNL     1      -5.984   9.280  69.328  1.00  0.00    -0.038 OA 
HETATM   17  C   UNL     1      -7.326  10.246  67.545  1.00  0.00    -0.089 A  
ENDROOT
BRANCH   7  18
HETATM   18  C   UNL     1     -11.149  12.914  68.786  1.00  0.00    -0.305 A  
HETATM   19  O   UNL     1     -12.471  16.455  70.562  1.00  0.00    -0.321 OA 
HETATM   20  C   UNL     1     -10.956  15.298  69.169  1.00  0.00    -0.251 A  
HETATM   21  C   UNL     1     -12.153  12.874  69.764  1.00  0.00    -0.312 A  
HETATM   22  H   UNL     1     -12.078  17.287  70.328  1.00  0.00     0.000 HD 
HETATM   23  C   UNL     1     -10.507  14.135  68.545  1.00  0.00    -0.252 A  
HETATM   24  C   UNL     1     -12.038  15.250  70.065  1.00  0.00    -0.352 A  
HETATM   25  C   UNL     1     -12.615  14.028  70.410  1.00  0.00    -0.308 A  
BRANCH  25  26
HETATM   26  O   UNL     1     -13.614  13.735  71.297  1.00  0.00    -0.237 OA 
HETATM   27  C   UNL     1     -13.379  13.733  72.688  1.00  0.00    -0.514 C  
ENDBRANCH  25  26
BRANCH  20  28
HETATM   28  O   UNL     1     -10.429  16.544  68.893  1.00  0.00    -0.262 OA 
HETATM   29  C   UNL     1     -10.539  16.990  67.546  1.00  0.00    -0.310 C  
ENDBRANCH  20  28
ENDBRANCH   7  18
BRANCH   8  30
HETATM   30  O   UNL     1      -8.737  10.402  64.795  1.00  0.00    -0.173 OA 
BRANCH  30  31
HETATM   31  C   UNL     1      -9.170   9.048  64.950  1.00  0.00     0.012 C  
HETATM   32  O   UNL     1      -9.756   8.794  66.233  1.00  0.00    -0.247 OA 
HETATM   33  C   UNL     1      -9.890   7.390  66.506  1.00  0.00    -0.139 C  
HETATM   34  C   UNL     1     -10.662   7.084  67.792  1.00  0.00    -0.231 C  
HETATM   35  O   UNL     1     -10.643   5.681  68.059  1.00  0.00    -0.221 OA 
HETATM   36  C   UNL     1      -9.312   5.193  68.208  1.00  0.00    -0.122 C  
HETATM   37  C   UNL     1      -9.343   3.689  68.440  1.00  0.00    -0.225 C  
HETATM   38  O   UNL     1      -8.559   5.395  67.017  1.00  0.00    -0.110 OA 
HETATM   39  C   UNL     1      -8.503   6.773  66.648  1.00  0.00    -0.120 C  
HETATM   40  C   UNL     1      -7.829   6.829  65.289  1.00  0.00    -0.121 C  
HETATM   41  O   UNL     1      -6.466   6.393  65.420  1.00  0.00    -0.037 OA 
HETATM   42  C   UNL     1      -7.874   8.227  64.669  1.00  0.00    -0.132 C  
HETATM   43  H   UNL     1      -6.044   6.428  64.570  1.00  0.00     0.000 HD 
HETATM   44  O   UNL     1      -7.689   8.135  63.235  1.00  0.00    -0.128 OA 
HETATM   45  H   UNL     1      -6.899   7.635  63.064  1.00  0.00     0.000 HD 
ENDBRANCH  30  31
ENDBRANCH   8  30
TORSDOF 5
ENDMDL
MODEL       91
REMARK 921   NORMALIZED FREE ENERGY PREDICTED BY IDOCK:   -5.86 KCAL/MOL
REMARK 922        TOTAL FREE ENERGY PREDICTED BY IDOCK:   -8.81 KCAL/MOL
REMARK 923 INTER-LIGAND FREE ENERGY PREDICTED BY IDOCK:   -7.15 KCAL/MOL
REMARK 924 INTRA-LIGAND FREE ENERGY PREDICTED BY IDOCK:   -1.66 KCAL/MOL
REMARK 927      BINDING AFFINITY PREDICTED BY RF-SCORE:    0.00 PKD
ROOT
HETATM    1  C   UNL     1      -8.403   9.282  66.803  1.00  0.00    -0.123 C  
HETATM    2  C   UNL     1      -7.332   8.888  65.828  1.00  0.00    -0.089 C  
HETATM    3  O   UNL     1      -7.625   9.700  64.679  1.00  0.00    -0.115 OA 
HETATM    4  C   UNL     1      -8.952  10.057  64.689  1.00  0.00    -0.214 C  
HETATM    5  C   UNL     1      -9.612   9.513  65.923  1.00  0.00    -0.327 C  
HETATM    6  O   UNL     1      -9.509  10.613  63.758  1.00  0.00    -0.237 OA 
HETATM    7  C   UNL     1     -10.713  10.289  66.667  1.00  0.00    -0.183 C  
HETATM    8  C   UNL     1      -8.724   8.373  67.975  1.00  0.00    -0.139 C  
HETATM    9  C   UNL     1     -10.872   9.797  68.114  1.00  0.00    -0.264 A  
HETATM   10  C   UNL     1     -11.955  10.274  68.882  1.00  0.00     0.193 A  
HETATM   11  O   UNL     1     -12.971  10.344  71.098  1.00  0.00    -0.367 OA 
HETATM   12  C   UNL     1     -12.028   9.921  70.214  1.00  0.00    -0.138 A  
HETATM   13  C   UNL     1      -9.929   8.911  68.726  1.00  0.00    -0.195 A  
HETATM   14  C   UNL     1     -11.095   9.103  70.803  1.00  0.00    -0.275 A  
HETATM   15  C   UNL     1     -12.464   9.780  72.325  1.00  0.00    -0.103 C  
HETATM   16  O   UNL     1     -11.319   8.925  72.131  1.00  0.00    -0.356 OA 
HETATM   17  C   UNL     1     -10.052   8.567  70.087  1.00  0.00    -0.197 A  
ENDROOT
BRANCH   7  18
HETATM   18  C   UNL     1     -10.529  11.801  66.538  1.00  0.00    -0.265 A  
HETATM   19  O   UNL     1      -9.547  15.705  65.425  1.00  0.00    -0.299 OA 
HETATM   20  C   UNL     1      -9.173  13.795  66.764  1.00  0.00    -0.244 A  
HETATM   21  C   UNL     1     -11.364  12.510  65.662  1.00  0.00    -0.372 A  
HETATM   22  H   UNL     1      -8.774  16.127  65.781  1.00  0.00     0.000 HD 
HETATM   23  C   UNL     1      -9.465  12.485  67.138  1.00  0.00    -0.208 A  
HETATM   24  C   UNL     1      -9.960  14.450  65.801  1.00  0.00    -0.329 A  
HETATM   25  C   UNL     1     -11.096  13.830  65.277  1.00  0.00    -0.313 A  
BRANCH  25  26
HETATM   26  O   UNL     1     -12.035  14.292  64.397  1.00  0.00    -0.438 OA 
HETATM   27  C   UNL     1     -12.388  13.549  63.251  1.00  0.00    -0.078 C  
ENDBRANCH  25  26
BRANCH  20  28
HETATM   28  O   UNL     1      -8.077  14.483  67.245  1.00  0.00    -0.188 OA 
HETATM   29  C   UNL     1      -8.125  14.866  68.616  1.00  0.00    -0.151 C  
ENDBRANCH  20  28
ENDBRANCH   7  18
BRANCH   8  30
HETATM   30  O   UNL     1      -8.737   6.974  67.782  1.00  0.00    -0.122 OA 
BRANCH  30  31
HETATM   31  C   UNL     1      -8.116   6.010  68.638  1.00  0.00    -0.107 C  
HETATM   32  O   UNL     1      -9.038   5.400  69.551  1.00  0.00    -0.110 OA 
HETATM   33  C   UNL     1      -8.373   4.689  70.607  1.00  0.00    -0.091 C  
HETATM   34  C   UNL     1      -9.322   3.890  71.502  1.00  0.00    -0.136 C  
HETATM   35  O   UNL     1      -8.605   3.316  72.597  1.00  0.00    -0.082 OA 
HETATM   36  C   UNL     1      -7.975   4.317  73.392  1.00  0.00    -0.090 C  
HETATM   37  C   UNL     1      -7.184   3.655  74.513  1.00  0.00    -0.053 C  
HETATM   38  O   UNL     1      -7.031   5.057  72.626  1.00  0.00    -0.074 OA 
HETATM   39  C   UNL     1      -7.637   5.685  71.495  1.00  0.00    -0.105 C  
HETATM   40  C   UNL     1      -6.508   6.288  70.680  1.00  0.00    -0.044 C  
HETATM   41  O   UNL     1      -5.887   7.340  71.438  1.00  0.00    -0.036 OA 
HETATM   42  C   UNL     1      -6.983   6.828  69.329  1.00  0.00    -0.074 C  
HETATM   43  H   UNL     1      -5.181   7.717  70.928  1.00  0.00     0.000 HD 
HETATM   44  O   UNL     1      -5.862   6.924  68.417  1.00  0.00    -0.017 OA 
HETATM   45  H   UNL     1      -5.171   7.423  68.838  1.00  0.00     0.000 HD 
ENDBRANCH  30  31
ENDBRANCH   8  30
TORSDOF 5
ENDMDL
MODEL       92
REMARK 921   NORMALIZED FREE ENERGY PREDICTED BY IDOCK:   -5.85 KCAL/MOL
REMARK 922        TOTAL FREE ENERGY PREDICTED BY IDOCK:   -8.79 KCAL/MOL
REMARK 923 INTER-LIGAND FREE ENERGY PREDICTED BY IDOCK:   -7.38 KCAL/MOL
REMARK 924 INTRA-LIGAND FREE ENERGY PREDICTED BY IDOCK:   -1.41 KCAL/MOL
REMARK 927      BINDING AFFINITY PREDICTED BY RF-SCORE:    0.00 PKD
ROOT
HETATM    1  C   UNL     1      -7.940  14.486  68.635  1.00  0.00    -0.145 C  
HETATM    2  C   UNL     1      -6.923  14.228  69.709  1.00  0.00    -0.011 C  
HETATM    3  O   UNL     1      -5.936  15.245  69.472  1.00  0.00    -0.105 OA 
HETATM    4  C   UNL     1      -5.993  15.652  68.161  1.00  0.00    -0.131 C  
HETATM    5  C   UNL     1      -7.099  14.923  67.455  1.00  0.00    -0.194 C  
HETATM    6  O   UNL     1      -5.170  16.389  67.645  1.00  0.00    -0.116 OA 
HETATM    7  C   UNL     1      -7.958  15.600  66.371  1.00  0.00     0.057 C  
HETATM    8  C   UNL     1      -8.924  13.396  68.253  1.00  0.00    -0.176 C  
HETATM    9  C   UNL     1      -9.290  14.864  66.163  1.00  0.00    -0.307 A  
HETATM   10  C   UNL     1     -10.117  15.241  65.084  1.00  0.00    -0.323 A  
HETATM   11  O   UNL     1     -12.296  14.956  64.026  1.00  0.00    -0.713 OA 
HETATM   12  C   UNL     1     -11.362  14.658  64.969  1.00  0.00    -0.390 A  
HETATM   13  C   UNL     1      -9.744  13.842  67.056  1.00  0.00    -0.251 A  
HETATM   14  C   UNL     1     -11.806  13.708  65.857  1.00  0.00    -0.378 A  
HETATM   15  C   UNL     1     -13.408  14.159  64.484  1.00  0.00     1.307 C  
HETATM   16  O   UNL     1     -13.078  13.304  65.598  1.00  0.00    -0.436 OA 
HETATM   17  C   UNL     1     -11.019  13.265  66.891  1.00  0.00    -0.298 A  
ENDROOT
BRANCH   7  18
HETATM   18  C   UNL     1      -8.106  17.101  66.618  1.00  0.00    -0.292 A  
HETATM   19  O   UNL     1      -9.289  21.103  66.799  1.00  0.00    -0.491 OA 
HETATM   20  C   UNL     1      -7.954  19.396  65.858  1.00  0.00    -0.184 A  
HETATM   21  C   UNL     1      -8.948  17.536  67.651  1.00  0.00    -0.231 A  
HETATM   22  H   UNL     1      -8.970  21.728  66.159  1.00  0.00     0.000 HD 
HETATM   23  C   UNL     1      -7.559  18.064  65.760  1.00  0.00    -0.070 A  
HETATM   24  C   UNL     1      -8.886  19.790  66.834  1.00  0.00    -0.335 A  
HETATM   25  C   UNL     1      -9.354  18.871  67.774  1.00  0.00    -0.293 A  
BRANCH  25  26
HETATM   26  O   UNL     1     -10.195  19.039  68.840  1.00  0.00    -0.370 OA 
HETATM   27  C   UNL     1     -10.611  17.941  69.621  1.00  0.00     0.662 C  
ENDBRANCH  25  26
BRANCH  20  28
HETATM   28  O   UNL     1      -7.527  20.369  64.975  1.00  0.00    -0.081 OA 
HETATM   29  C   UNL     1      -6.150  20.723  65.047  1.00  0.00    -0.273 C  
ENDBRANCH  20  28
ENDBRANCH   7  18
BRANCH   8  30
HETATM   30  O   UNL     1      -8.482  12.057  68.188  1.00  0.00    -0.157 OA 
BRANCH  30  31
HETATM   31  C   UNL     1      -9.289  10.900  68.433  1.00  0.00    -0.172 C  
HETATM   32  O   UNL     1     -10.221  11.089  69.506  1.00  0.00    -0.139 OA 
HETATM   33  C   UNL     1     -10.791   9.851  69.959  1.00  0.00    -0.294 C  
HETATM   34  C   UNL     1     -11.911  10.030  70.986  1.00  0.00    -0.376 C  
HETATM   35  O   UNL     1     -12.338   8.759  71.480  1.00  0.00    -0.305 OA 
HETATM   36  C   UNL     1     -11.268   8.051  72.101  1.00  0.00    -0.319 C  
HETATM   37  C   UNL     1     -11.760   6.686  72.564  1.00  0.00    -0.200 C  
HETATM   38  O   UNL     1     -10.217   7.800  71.174  1.00  0.00    -0.195 OA 
HETATM   39  C   UNL     1      -9.702   9.007  70.612  1.00  0.00    -0.234 C  
HETATM   40  C   UNL     1      -8.723   8.595  69.528  1.00  0.00    -0.139 C  
HETATM   41  O   UNL     1      -7.604   7.926  70.133  1.00  0.00    -0.080 OA 
HETATM   42  C   UNL     1      -8.234   9.783  68.697  1.00  0.00    -0.106 C  
HETATM   43  H   UNL     1      -6.991   7.667  69.456  1.00  0.00     0.000 HD 
HETATM   44  O   UNL     1      -7.730   9.315  67.421  1.00  0.00    -0.094 OA 
HETATM   45  H   UNL     1      -7.087   8.634  67.582  1.00  0.00     0.000 HD 
ENDBRANCH  30  31
ENDBRANCH   8  30
TORSDOF 5
ENDMDL
MODEL       93
REMARK 921   NORMALIZED FREE ENERGY PREDICTED BY IDOCK:   -5.82 KCAL/MOL
REMARK 922        TOTAL FREE ENERGY PREDICTED BY IDOCK:   -8.75 KCAL/MOL
REMARK 923 INTER-LIGAND FREE ENERGY PREDICTED BY IDOCK:   -7.28 KCAL/MOL
REMARK 924 INTRA-LIGAND FREE ENERGY PREDICTED BY IDOCK:   -1.47 KCAL/MOL
REMARK 927      BINDING AFFINITY PREDICTED BY RF-SCORE:    0.00 PKD
ROOT
HETATM    1  C   UNL     1      -8.306  12.301  68.333  1.00  0.00    -0.144 C  
HETATM    2  C   UNL     1      -7.348  11.714  69.328  1.00  0.00     0.025 C  
HETATM    3  O   UNL     1      -6.559  12.846  69.726  1.00  0.00    -0.054 OA 
HETATM    4  C   UNL     1      -6.588  13.802  68.739  1.00  0.00    -0.100 C  
HETATM    5  C   UNL     1      -7.474  13.344  67.618  1.00  0.00    -0.182 C  
HETATM    6  O   UNL     1      -5.883  14.798  68.742  1.00  0.00    -0.082 OA 
HETATM    7  C   UNL     1      -8.357  14.324  66.825  1.00  0.00     0.027 C  
HETATM    8  C   UNL     1      -9.029  11.391  67.357  1.00  0.00    -0.154 C  
HETATM    9  C   UNL     1      -9.502  13.597  66.104  1.00  0.00    -0.166 A  
HETATM   10  C   UNL     1     -10.297  14.316  65.187  1.00  0.00    -0.440 A  
HETATM   11  O   UNL     1     -12.290  14.265  63.782  1.00  0.00    -0.735 OA 
HETATM   12  C   UNL     1     -11.394  13.692  64.630  1.00  0.00    -0.366 A  
HETATM   13  C   UNL     1      -9.821  12.227  66.368  1.00  0.00    -0.242 A  
HETATM   14  C   UNL     1     -11.717  12.389  64.923  1.00  0.00    -0.365 A  
HETATM   15  C   UNL     1     -13.261  13.205  63.657  1.00  0.00     1.272 C  
HETATM   16  O   UNL     1     -12.863  11.985  64.314  1.00  0.00    -0.496 OA 
HETATM   17  C   UNL     1     -10.944  11.627  65.764  1.00  0.00    -0.329 A  
ENDROOT
BRANCH   7  18
HETATM   18  C   UNL     1      -8.809  15.504  67.684  1.00  0.00    -0.185 A  
HETATM   19  O   UNL     1     -10.609  18.902  69.315  1.00  0.00    -0.315 OA 
HETATM   20  C   UNL     1      -8.798  17.870  68.205  1.00  0.00    -0.275 A  
HETATM   21  C   UNL     1      -9.986  15.380  68.437  1.00  0.00    -0.215 A  
HETATM   22  H   UNL     1     -10.213  19.758  69.202  1.00  0.00     0.000 HD 
HETATM   23  C   UNL     1      -8.185  16.757  67.632  1.00  0.00    -0.191 A  
HETATM   24  C   UNL     1     -10.034  17.740  68.862  1.00  0.00    -0.332 A  
HETATM   25  C   UNL     1     -10.616  16.483  69.028  1.00  0.00    -0.324 A  
BRANCH  25  26
HETATM   26  O   UNL     1     -11.758  16.111  69.682  1.00  0.00    -0.294 OA 
HETATM   27  C   UNL     1     -11.722  15.670  71.021  1.00  0.00    -0.403 C  
ENDBRANCH  25  26
BRANCH  20  28
HETATM   28  O   UNL     1      -8.280  19.146  68.097  1.00  0.00    -0.295 OA 
HETATM   29  C   UNL     1      -6.865  19.262  68.202  1.00  0.00    -0.257 C  
ENDBRANCH  20  28
ENDBRANCH   7  18
BRANCH   8  30
HETATM   30  O   UNL     1      -8.334  10.307  66.777  1.00  0.00    -0.122 OA 
BRANCH  30  31
HETATM   31  C   UNL     1      -8.279   8.977  67.302  1.00  0.00    -0.103 C  
HETATM   32  O   UNL     1      -6.952   8.577  67.666  1.00  0.00    -0.075 OA 
HETATM   33  C   UNL     1      -6.846   7.160  67.880  1.00  0.00    -0.074 C  
HETATM   34  C   UNL     1      -5.488   6.721  68.431  1.00  0.00    -0.016 C  
HETATM   35  O   UNL     1      -5.417   5.295  68.497  1.00  0.00    -0.009 OA 
HETATM   36  C   UNL     1      -5.595   4.702  67.214  1.00  0.00    -0.013 C  
HETATM   37  C   UNL     1      -5.563   3.185  67.344  1.00  0.00    -0.021 C  
HETATM   38  O   UNL     1      -6.872   5.026  66.674  1.00  0.00    -0.059 OA 
HETATM   39  C   UNL     1      -7.059   6.437  66.555  1.00  0.00    -0.068 C  
HETATM   40  C   UNL     1      -8.502   6.647  66.138  1.00  0.00    -0.135 C  
HETATM   41  O   UNL     1      -8.697   6.105  64.821  1.00  0.00    -0.347 OA 
HETATM   42  C   UNL     1      -8.911   8.121  66.162  1.00  0.00    -0.178 C  
HETATM   43  H   UNL     1      -9.600   6.236  64.559  1.00  0.00     0.000 HD 
HETATM   44  O   UNL     1     -10.353   8.230  66.250  1.00  0.00    -0.439 OA 
HETATM   45  H   UNL     1     -10.739   7.708  65.555  1.00  0.00     0.000 HD 
ENDBRANCH  30  31
ENDBRANCH   8  30
TORSDOF 5
ENDMDL
MODEL       94
REMARK 921   NORMALIZED FREE ENERGY PREDICTED BY IDOCK:   -5.70 KCAL/MOL
REMARK 922        TOTAL FREE ENERGY PREDICTED BY IDOCK:   -8.60 KCAL/MOL
REMARK 923 INTER-LIGAND FREE ENERGY PREDICTED BY IDOCK:   -6.86 KCAL/MOL
REMARK 924 INTRA-LIGAND FREE ENERGY PREDICTED BY IDOCK:   -1.74 KCAL/MOL
REMARK 927      BINDING AFFINITY PREDICTED BY RF-SCORE:    0.00 PKD
ROOT
HETATM    1  C   UNL     1      -7.040  11.363  69.537  1.00  0.00    -0.020 C  
HETATM    2  C   UNL     1      -6.026  12.262  70.181  1.00  0.00    -0.148 C  
HETATM    3  O   UNL     1      -6.038  13.424  69.335  1.00  0.00    -0.092 OA 
HETATM    4  C   UNL     1      -6.487  13.082  68.083  1.00  0.00    -0.100 C  
HETATM    5  C   UNL     1      -6.852  11.626  68.058  1.00  0.00    -0.072 C  
HETATM    6  O   UNL     1      -6.453  13.834  67.124  1.00  0.00    -0.193 OA 
HETATM    7  C   UNL     1      -8.042  11.099  67.236  1.00  0.00    -0.137 C  
HETATM    8  C   UNL     1      -7.037   9.879  69.850  1.00  0.00    -0.118 C  
HETATM    9  C   UNL     1      -8.515   9.727  67.741  1.00  0.00    -0.121 A  
HETATM   10  C   UNL     1      -9.476   9.017  66.990  1.00  0.00    -0.212 A  
HETATM   11  O   UNL     1     -10.952   7.077  66.936  1.00  0.00    -0.371 OA 
HETATM   12  C   UNL     1      -9.982   7.842  67.505  1.00  0.00    -0.192 A  
HETATM   13  C   UNL     1      -8.051   9.167  68.974  1.00  0.00    -0.102 A  
HETATM   14  C   UNL     1      -9.561   7.335  68.710  1.00  0.00    -0.142 A  
HETATM   15  C   UNL     1     -11.159   6.090  67.968  1.00  0.00    -0.128 C  
HETATM   16  O   UNL     1     -10.224   6.201  69.061  1.00  0.00    -0.163 OA 
HETATM   17  C   UNL     1      -8.588   7.956  69.454  1.00  0.00    -0.137 A  
ENDROOT
BRANCH   7  18
HETATM   18  C   UNL     1      -9.156  12.138  67.116  1.00  0.00    -0.189 A  
HETATM   19  O   UNL     1     -12.749  14.234  66.738  1.00  0.00    -0.510 OA 
HETATM   20  C   UNL     1     -10.761  13.378  65.792  1.00  0.00    -0.274 A  
HETATM   21  C   UNL     1      -9.898  12.468  68.260  1.00  0.00    -0.227 A  
HETATM   22  H   UNL     1     -13.055  14.514  65.883  1.00  0.00     0.000 HD 
HETATM   23  C   UNL     1      -9.569  12.662  65.885  1.00  0.00    -0.158 A  
HETATM   24  C   UNL     1     -11.546  13.602  66.936  1.00  0.00    -0.367 A  
HETATM   25  C   UNL     1     -11.096  13.192  68.192  1.00  0.00    -0.255 A  
BRANCH  25  26
HETATM   26  O   UNL     1     -11.646  13.360  69.433  1.00  0.00    -0.279 OA 
HETATM   27  C   UNL     1     -11.964  12.252  70.246  1.00  0.00    -0.290 C  
ENDBRANCH  25  26
BRANCH  20  28
HETATM   28  O   UNL     1     -11.269  13.829  64.590  1.00  0.00    -0.349 OA 
HETATM   29  C   UNL     1     -11.666  12.828  63.658  1.00  0.00    -0.519 C  
ENDBRANCH  20  28
ENDBRANCH   7  18
BRANCH   8  30
HETATM   30  O   UNL     1      -5.804   9.202  69.980  1.00  0.00    -0.030 OA 
BRANCH  30  31
HETATM   31  C   UNL     1      -5.481   8.248  70.996  1.00  0.00    -0.029 C  
HETATM   32  O   UNL     1      -5.740   6.897  70.595  1.00  0.00    -0.023 OA 
HETATM   33  C   UNL     1      -5.727   5.984  71.703  1.00  0.00    -0.026 C  
HETATM   34  C   UNL     1      -5.834   4.514  71.291  1.00  0.00    -0.016 C  
HETATM   35  O   UNL     1      -5.940   3.681  72.447  1.00  0.00    -0.008 OA 
HETATM   36  C   UNL     1      -7.085   4.013  73.228  1.00  0.00    -0.067 C  
HETATM   37  C   UNL     1      -7.127   3.135  74.471  1.00  0.00    -0.046 C  
HETATM   38  O   UNL     1      -7.013   5.356  73.694  1.00  0.00    -0.081 OA 
HETATM   39  C   UNL     1      -6.906   6.289  72.618  1.00  0.00    -0.074 C  
HETATM   40  C   UNL     1      -6.666   7.649  73.248  1.00  0.00    -0.071 C  
HETATM   41  O   UNL     1      -7.828   8.034  74.000  1.00  0.00    -0.170 OA 
HETATM   42  C   UNL     1      -6.332   8.724  72.213  1.00  0.00    -0.045 C  
HETATM   43  H   UNL     1      -7.678   8.884  74.394  1.00  0.00     0.000 HD 
HETATM   44  O   UNL     1      -5.644   9.827  72.853  1.00  0.00    -0.303 OA 
HETATM   45  H   UNL     1      -6.163  10.118  73.595  1.00  0.00     0.000 HD 
ENDBRANCH  30  31
ENDBRANCH   8  30
TORSDOF 5
ENDMDL
MODEL       95
REMARK 921   NORMALIZED FREE ENERGY PREDICTED BY IDOCK:   -5.60 KCAL/MOL
REMARK 922        TOTAL FREE ENERGY PREDICTED BY IDOCK:   -8.47 KCAL/MOL
REMARK 923 INTER-LIGAND FREE ENERGY PREDICTED BY IDOCK:   -7.17 KCAL/MOL
REMARK 924 INTRA-LIGAND FREE ENERGY PREDICTED BY IDOCK:   -1.29 KCAL/MOL
REMARK 927      BINDING AFFINITY PREDICTED BY RF-SCORE:    0.00 PKD
ROOT
HETATM    1  C   UNL     1      -7.542   9.462  67.048  1.00  0.00    -0.091 C  
HETATM    2  C   UNL     1      -6.469   9.464  65.998  1.00  0.00    -0.069 C  
HETATM    3  O   UNL     1      -7.012  10.322  64.981  1.00  0.00    -0.135 OA 
HETATM    4  C   UNL     1      -8.382  10.346  65.077  1.00  0.00    -0.166 C  
HETATM    5  C   UNL     1      -8.821   9.506  66.241  1.00  0.00    -0.172 C  
HETATM    6  O   UNL     1      -9.109  10.866  64.247  1.00  0.00    -0.194 OA 
HETATM    7  C   UNL     1     -10.027   9.894  67.116  1.00  0.00    -0.252 C  
HETATM    8  C   UNL     1      -7.571   8.360  68.091  1.00  0.00    -0.098 C  
HETATM    9  C   UNL     1      -9.979   9.198  68.485  1.00  0.00    -0.192 A  
HETATM   10  C   UNL     1     -11.096   9.299  69.341  1.00  0.00    -0.063 A  
HETATM   11  O   UNL     1     -11.966   8.840  71.573  1.00  0.00    -0.290 OA 
HETATM   12  C   UNL     1     -11.005   8.772  70.612  1.00  0.00    -0.238 A  
HETATM   13  C   UNL     1      -8.820   8.493  68.942  1.00  0.00    -0.139 A  
HETATM   14  C   UNL     1      -9.873   8.134  71.057  1.00  0.00    -0.179 A  
HETATM   15  C   UNL     1     -11.269   8.262  72.695  1.00  0.00    -0.340 C  
HETATM   16  O   UNL     1      -9.969   7.739  72.354  1.00  0.00    -0.184 OA 
HETATM   17  C   UNL     1      -8.779   7.960  70.245  1.00  0.00    -0.138 A  
ENDROOT
BRANCH   7  18
HETATM   18  C   UNL     1     -10.210  11.409  67.192  1.00  0.00    -0.234 A  
HETATM   19  O   UNL     1     -10.274  15.541  66.580  1.00  0.00    -0.261 OA 
HETATM   20  C   UNL     1      -9.333  13.630  67.600  1.00  0.00    -0.215 A  
HETATM   21  C   UNL     1     -11.273  11.997  66.491  1.00  0.00    -0.387 A  
HETATM   22  H   UNL     1      -9.586  16.091  66.936  1.00  0.00     0.000 HD 
HETATM   23  C   UNL     1      -9.274  12.252  67.803  1.00  0.00    -0.191 A  
HETATM   24  C   UNL     1     -10.347  14.187  66.802  1.00  0.00    -0.274 A  
HETATM   25  C   UNL     1     -11.358  13.379  66.280  1.00  0.00    -0.306 A  
BRANCH  25  26
HETATM   26  O   UNL     1     -12.466  13.703  65.547  1.00  0.00    -0.450 OA 
HETATM   27  C   UNL     1     -12.351  14.208  64.234  1.00  0.00    -0.365 C  
ENDBRANCH  25  26
BRANCH  20  28
HETATM   28  O   UNL     1      -8.379  14.499  68.093  1.00  0.00    -0.134 OA 
HETATM   29  C   UNL     1      -7.259  13.904  68.741  1.00  0.00    -0.106 C  
ENDBRANCH  20  28
ENDBRANCH   7  18
BRANCH   8  30
HETATM   30  O   UNL     1      -7.267   7.036  67.707  1.00  0.00    -0.086 OA 
BRANCH  30  31
HETATM   31  C   UNL     1      -7.569   6.446  66.439  1.00  0.00    -0.090 C  
HETATM   32  O   UNL     1      -8.879   5.864  66.393  1.00  0.00    -0.125 OA 
HETATM   33  C   UNL     1      -9.056   5.003  65.257  1.00  0.00    -0.139 C  
HETATM   34  C   UNL     1     -10.491   4.499  65.086  1.00  0.00    -0.109 C  
HETATM   35  O   UNL     1     -10.560   3.555  64.016  1.00  0.00    -0.248 OA 
HETATM   36  C   UNL     1      -9.715   2.432  64.253  1.00  0.00    -0.110 C  
HETATM   37  C   UNL     1      -9.784   1.482  63.065  1.00  0.00    -0.096 C  
HETATM   38  O   UNL     1      -8.353   2.833  64.360  1.00  0.00    -0.086 OA 
HETATM   39  C   UNL     1      -8.157   3.782  65.409  1.00  0.00    -0.097 C  
HETATM   40  C   UNL     1      -6.717   4.250  65.304  1.00  0.00    -0.049 C  
HETATM   41  O   UNL     1      -5.841   3.148  65.592  1.00  0.00    -0.018 OA 
HETATM   42  C   UNL     1      -6.411   5.421  66.241  1.00  0.00    -0.044 C  
HETATM   43  H   UNL     1      -4.940   3.441  65.526  1.00  0.00     0.000 HD 
HETATM   44  O   UNL     1      -5.240   6.133  65.771  1.00  0.00    -0.012 OA 
HETATM   45  H   UNL     1      -4.534   5.509  65.650  1.00  0.00     0.000 HD 
ENDBRANCH  30  31
ENDBRANCH   8  30
TORSDOF 5
ENDMDL
MODEL       96
REMARK 921   NORMALIZED FREE ENERGY PREDICTED BY IDOCK:   -5.59 KCAL/MOL
REMARK 922        TOTAL FREE ENERGY PREDICTED BY IDOCK:   -8.46 KCAL/MOL
REMARK 923 INTER-LIGAND FREE ENERGY PREDICTED BY IDOCK:   -7.62 KCAL/MOL
REMARK 924 INTRA-LIGAND FREE ENERGY PREDICTED BY IDOCK:   -0.84 KCAL/MOL
REMARK 927      BINDING AFFINITY PREDICTED BY RF-SCORE:    0.00 PKD
ROOT
HETATM    1  C   UNL     1      -7.185  10.297  69.506  1.00  0.00    -0.122 C  
HETATM    2  C   UNL     1      -5.716  10.442  69.229  1.00  0.00    -0.037 C  
HETATM    3  O   UNL     1      -5.689  10.986  67.900  1.00  0.00    -0.043 OA 
HETATM    4  C   UNL     1      -6.850  10.664  67.242  1.00  0.00    -0.079 C  
HETATM    5  C   UNL     1      -7.756   9.899  68.162  1.00  0.00    -0.082 C  
HETATM    6  O   UNL     1      -7.030  10.862  66.052  1.00  0.00    -0.127 OA 
HETATM    7  C   UNL     1      -9.286  10.071  68.127  1.00  0.00    -0.130 C  
HETATM    8  C   UNL     1      -7.654   9.373  70.614  1.00  0.00    -0.144 C  
HETATM    9  C   UNL     1      -9.938   9.597  69.435  1.00  0.00    -0.207 A  
HETATM   10  C   UNL     1     -11.345   9.514  69.505  1.00  0.00    -0.025 A  
HETATM   11  O   UNL     1     -13.267   9.142  70.960  1.00  0.00    -0.200 OA 
HETATM   12  C   UNL     1     -11.930   9.201  70.714  1.00  0.00    -0.191 A  
HETATM   13  C   UNL     1      -9.169   9.286  70.601  1.00  0.00    -0.321 A  
HETATM   14  C   UNL     1     -11.185   8.945  71.839  1.00  0.00    -0.377 A  
HETATM   15  C   UNL     1     -13.271   8.919  72.384  1.00  0.00    -0.430 C  
HETATM   16  O   UNL     1     -11.954   8.714  72.935  1.00  0.00    -0.184 OA 
HETATM   17  C   UNL     1      -9.812   8.958  71.811  1.00  0.00    -0.386 A  
ENDROOT
BRANCH   7  18
HETATM   18  C   UNL     1      -9.690  11.482  67.702  1.00  0.00    -0.182 A  
HETATM   19  O   UNL     1      -9.995  15.315  66.072  1.00  0.00    -0.275 OA 
HETATM   20  C   UNL     1      -9.482  13.888  67.883  1.00  0.00    -0.212 A  
HETATM   21  C   UNL     1     -10.289  11.664  66.447  1.00  0.00    -0.266 A  
HETATM   22  H   UNL     1      -9.684  16.071  66.557  1.00  0.00     0.000 HD 
HETATM   23  C   UNL     1      -9.349  12.619  68.444  1.00  0.00    -0.148 A  
HETATM   24  C   UNL     1      -9.984  14.039  66.579  1.00  0.00    -0.284 A  
HETATM   25  C   UNL     1     -10.441  12.929  65.866  1.00  0.00    -0.279 A  
BRANCH  25  26
HETATM   26  O   UNL     1     -11.023  12.843  64.631  1.00  0.00    -0.301 OA 
HETATM   27  C   UNL     1     -12.408  12.611  64.492  1.00  0.00    -0.464 C  
ENDBRANCH  25  26
BRANCH  20  28
HETATM   28  O   UNL     1      -9.067  15.037  68.528  1.00  0.00    -0.174 OA 
HETATM   29  C   UNL     1      -7.690  15.098  68.881  1.00  0.00    -0.159 C  
ENDBRANCH  20  28
ENDBRANCH   7  18
BRANCH   8  30
HETATM   30  O   UNL     1      -7.002   8.136  70.806  1.00  0.00    -0.040 OA 
BRANCH  30  31
HETATM   31  C   UNL     1      -7.191   6.962  70.008  1.00  0.00    -0.080 C  
HETATM   32  O   UNL     1      -7.173   7.236  68.601  1.00  0.00    -0.085 OA 
HETATM   33  C   UNL     1      -7.678   6.140  67.823  1.00  0.00    -0.098 C  
HETATM   34  C   UNL     1      -7.519   6.332  66.314  1.00  0.00    -0.086 C  
HETATM   35  O   UNL     1      -8.155   5.264  65.608  1.00  0.00    -0.110 OA 
HETATM   36  C   UNL     1      -9.546   5.194  65.907  1.00  0.00    -0.148 C  
HETATM   37  C   UNL     1     -10.167   4.013  65.174  1.00  0.00    -0.172 C  
HETATM   38  O   UNL     1      -9.758   4.953  67.295  1.00  0.00    -0.148 OA 
HETATM   39  C   UNL     1      -9.165   5.967  68.108  1.00  0.00    -0.116 C  
HETATM   40  C   UNL     1      -9.312   5.506  69.547  1.00  0.00    -0.130 C  
HETATM   41  O   UNL     1     -10.706   5.478  69.893  1.00  0.00    -0.319 OA 
HETATM   42  C   UNL     1      -8.547   6.396  70.528  1.00  0.00    -0.143 C  
HETATM   43  H   UNL     1     -10.799   5.189  70.793  1.00  0.00     0.000 HD 
HETATM   44  O   UNL     1      -8.302   5.671  71.759  1.00  0.00    -0.118 OA 
HETATM   45  H   UNL     1      -9.129   5.326  72.077  1.00  0.00     0.000 HD 
ENDBRANCH  30  31
ENDBRANCH   8  30
TORSDOF 5
ENDMDL
MODEL       97
REMARK 921   NORMALIZED FREE ENERGY PREDICTED BY IDOCK:   -5.55 KCAL/MOL
REMARK 922        TOTAL FREE ENERGY PREDICTED BY IDOCK:   -8.40 KCAL/MOL
REMARK 923 INTER-LIGAND FREE ENERGY PREDICTED BY IDOCK:   -7.72 KCAL/MOL
REMARK 924 INTRA-LIGAND FREE ENERGY PREDICTED BY IDOCK:   -0.68 KCAL/MOL
REMARK 927      BINDING AFFINITY PREDICTED BY RF-SCORE:    0.00 PKD
ROOT
HETATM    1  C   UNL     1      -8.552   8.558  67.538  1.00  0.00    -0.128 C  
HETATM    2  C   UNL     1      -7.643   8.831  66.375  1.00  0.00    -0.091 C  
HETATM    3  O   UNL     1      -6.929   7.594  66.225  1.00  0.00    -0.063 OA 
HETATM    4  C   UNL     1      -6.926   6.911  67.417  1.00  0.00    -0.079 C  
HETATM    5  C   UNL     1      -7.713   7.678  68.439  1.00  0.00    -0.119 C  
HETATM    6  O   UNL     1      -6.262   5.909  67.620  1.00  0.00    -0.030 OA 
HETATM    7  C   UNL     1      -8.576   6.972  69.500  1.00  0.00    -0.134 C  
HETATM    8  C   UNL     1      -9.169   9.717  68.298  1.00  0.00    -0.129 C  
HETATM    9  C   UNL     1      -9.639   7.915  70.084  1.00  0.00    -0.175 A  
HETATM   10  C   UNL     1     -10.396   7.486  71.194  1.00  0.00    -0.208 A  
HETATM   11  O   UNL     1     -12.283   7.989  72.656  1.00  0.00    -0.293 OA 
HETATM   12  C   UNL     1     -11.426   8.287  71.642  1.00  0.00    -0.278 A  
HETATM   13  C   UNL     1      -9.922   9.194  69.507  1.00  0.00    -0.193 A  
HETATM   14  C   UNL     1     -11.718   9.494  71.055  1.00  0.00    -0.343 A  
HETATM   15  C   UNL     1     -13.200   9.099  72.571  1.00  0.00    -0.397 C  
HETATM   16  O   UNL     1     -12.802  10.097  71.610  1.00  0.00    -0.382 OA 
HETATM   17  C   UNL     1     -10.977   9.984  70.008  1.00  0.00    -0.352 A  
ENDROOT
BRANCH   7  18
HETATM   18  C   UNL     1      -9.133   5.644  68.988  1.00  0.00    -0.124 A  
HETATM   19  O   UNL     1      -9.760   1.816  67.439  1.00  0.00    -0.397 OA 
HETATM   20  C   UNL     1      -9.738   4.162  67.169  1.00  0.00    -0.186 A  
HETATM   21  C   UNL     1      -9.120   4.532  69.843  1.00  0.00    -0.165 A  
HETATM   22  H   UNL     1      -9.938   1.694  66.514  1.00  0.00     0.000 HD 
HETATM   23  C   UNL     1      -9.512   5.449  67.654  1.00  0.00    -0.132 A  
HETATM   24  C   UNL     1      -9.611   3.051  68.021  1.00  0.00    -0.065 A  
HETATM   25  C   UNL     1      -9.350   3.230  69.380  1.00  0.00    -0.161 A  
BRANCH  25  26
HETATM   26  O   UNL     1      -9.255   2.318  70.395  1.00  0.00    -0.099 OA 
HETATM   27  C   UNL     1      -8.771   2.689  71.667  1.00  0.00    -0.073 C  
ENDBRANCH  25  26
BRANCH  20  28
HETATM   28  O   UNL     1     -10.014   3.902  65.842  1.00  0.00    -0.167 OA 
HETATM   29  C   UNL     1     -10.896   4.812  65.192  1.00  0.00     0.115 C  
ENDBRANCH  20  28
ENDBRANCH   7  18
BRANCH   8  30
HETATM   30  O   UNL     1      -8.394  10.870  68.550  1.00  0.00    -0.127 OA 
BRANCH  30  31
HETATM   31  C   UNL     1      -8.892  12.211  68.615  1.00  0.00    -0.002 C  
HETATM   32  O   UNL     1      -9.965  12.452  67.695  1.00  0.00    -0.194 OA 
HETATM   33  C   UNL     1     -10.239  13.852  67.529  1.00  0.00    -0.245 C  
HETATM   34  C   UNL     1     -11.483  14.138  66.685  1.00  0.00    -0.366 C  
HETATM   35  O   UNL     1     -11.618  15.543  66.461  1.00  0.00    -0.041 OA 
HETATM   36  C   UNL     1     -10.483  16.077  65.784  1.00  0.00    -0.374 C  
HETATM   37  C   UNL     1     -10.650  17.581  65.615  1.00  0.00    -0.144 C  
HETATM   38  O   UNL     1      -9.298  15.894  66.552  1.00  0.00    -0.234 OA 
HETATM   39  C   UNL     1      -9.055  14.516  66.838  1.00  0.00    -0.255 C  
HETATM   40  C   UNL     1      -7.877  14.476  67.793  1.00  0.00    -0.161 C  
HETATM   41  O   UNL     1      -6.704  14.958  67.118  1.00  0.00    -0.307 OA 
HETATM   42  C   UNL     1      -7.621  13.073  68.349  1.00  0.00    -0.133 C  
HETATM   43  H   UNL     1      -5.967  14.934  67.716  1.00  0.00     0.000 HD 
HETATM   44  O   UNL     1      -6.860  13.163  69.579  1.00  0.00    -0.294 OA 
HETATM   45  H   UNL     1      -6.084  13.689  69.417  1.00  0.00     0.000 HD 
ENDBRANCH  30  31
ENDBRANCH   8  30
TORSDOF 5
ENDMDL
MODEL       98
REMARK 921   NORMALIZED FREE ENERGY PREDICTED BY IDOCK:   -5.49 KCAL/MOL
REMARK 922        TOTAL FREE ENERGY PREDICTED BY IDOCK:   -8.32 KCAL/MOL
REMARK 923 INTER-LIGAND FREE ENERGY PREDICTED BY IDOCK:   -9.00 KCAL/MOL
REMARK 924 INTRA-LIGAND FREE ENERGY PREDICTED BY IDOCK:    0.68 KCAL/MOL
REMARK 927      BINDING AFFINITY PREDICTED BY RF-SCORE:    0.00 PKD
ROOT
HETATM    1  C   UNL     1      -8.987  11.575  68.307  1.00  0.00    -0.177 C  
HETATM    2  C   UNL     1      -7.780  11.834  67.455  1.00  0.00    -0.151 C  
HETATM    3  O   UNL     1      -8.111  13.063  66.788  1.00  0.00    -0.005 OA 
HETATM    4  C   UNL     1      -9.475  13.213  66.742  1.00  0.00    -0.252 C  
HETATM    5  C   UNL     1     -10.134  12.064  67.449  1.00  0.00    -0.206 C  
HETATM    6  O   UNL     1     -10.038  14.084  66.100  1.00  0.00    -0.290 OA 
HETATM    7  C   UNL     1     -11.420  12.246  68.275  1.00  0.00    -0.367 C  
HETATM    8  C   UNL     1      -9.243  10.180  68.847  1.00  0.00    -0.172 C  
HETATM    9  C   UNL     1     -11.616  11.096  69.275  1.00  0.00    -0.388 A  
HETATM   10  C   UNL     1     -12.833  11.009  69.984  1.00  0.00    -0.050 A  
HETATM   11  O   UNL     1     -14.040   9.872  71.772  1.00  0.00    -0.022 OA 
HETATM   12  C   UNL     1     -12.961  10.046  70.963  1.00  0.00    -0.360 A  
HETATM   13  C   UNL     1     -10.587  10.140  69.549  1.00  0.00    -0.269 A  
HETATM   14  C   UNL     1     -11.951   9.159  71.249  1.00  0.00    -0.325 A  
HETATM   15  C   UNL     1     -13.552   8.844  72.659  1.00  0.00    -0.337 C  
HETATM   16  O   UNL     1     -12.258   8.332  72.282  1.00  0.00    -0.344 OA 
HETATM   17  C   UNL     1     -10.769   9.165  70.550  1.00  0.00    -0.289 A  
ENDROOT
BRANCH   7  18
HETATM   18  C   UNL     1     -11.503  13.638  68.899  1.00  0.00    -0.344 A  
HETATM   19  O   UNL     1     -11.387  17.017  71.353  1.00  0.00    -0.305 OA 
HETATM   20  C   UNL     1     -12.587  15.246  70.351  1.00  0.00    -0.375 A  
HETATM   21  C   UNL     1     -10.343  14.425  68.954  1.00  0.00    -0.233 A  
HETATM   22  H   UNL     1     -12.151  17.273  71.855  1.00  0.00     0.000 HD 
HETATM   23  C   UNL     1     -12.649  14.103  69.556  1.00  0.00    -0.011 A  
HETATM   24  C   UNL     1     -11.382  15.957  70.478  1.00  0.00    -0.390 A  
HETATM   25  C   UNL     1     -10.259  15.581  69.739  1.00  0.00    -0.294 A  
BRANCH  25  26
HETATM   26  O   UNL     1      -9.020  16.155  69.649  1.00  0.00    -0.105 OA 
HETATM   27  C   UNL     1      -7.889  15.394  69.288  1.00  0.00    -0.225 C  
ENDBRANCH  25  26
BRANCH  20  28
HETATM   28  O   UNL     1     -13.657  15.692  71.102  1.00  0.00    -0.582 OA 
HETATM   29  C   UNL     1     -13.644  15.345  72.483  1.00  0.00    -0.533 C  
ENDBRANCH  20  28
ENDBRANCH   7  18
BRANCH   8  30
HETATM   30  O   UNL     1      -8.983   9.062  68.024  1.00  0.00    -0.132 OA 
BRANCH  30  31
HETATM   31  C   UNL     1      -8.477   7.800  68.469  1.00  0.00    -0.129 C  
HETATM   32  O   UNL     1      -9.515   6.861  68.779  1.00  0.00    -0.137 OA 
HETATM   33  C   UNL     1      -9.028   5.732  69.522  1.00  0.00    -0.124 C  
HETATM   34  C   UNL     1     -10.073   4.633  69.724  1.00  0.00    -0.173 C  
HETATM   35  O   UNL     1      -9.555   3.607  70.574  1.00  0.00    -0.174 OA 
HETATM   36  C   UNL     1      -9.189   4.120  71.852  1.00  0.00    -0.126 C  
HETATM   37  C   UNL     1      -8.597   3.003  72.700  1.00  0.00    -0.088 C  
HETATM   38  O   UNL     1      -8.171   5.108  71.733  1.00  0.00    -0.113 OA 
HETATM   39  C   UNL     1      -8.578   6.196  70.902  1.00  0.00    -0.132 C  
HETATM   40  C   UNL     1      -7.358   7.080  70.720  1.00  0.00    -0.073 C  
HETATM   41  O   UNL     1      -6.999   7.656  71.987  1.00  0.00    -0.060 OA 
HETATM   42  C   UNL     1      -7.585   8.187  69.688  1.00  0.00    -0.099 C  
HETATM   43  H   UNL     1      -6.235   8.208  71.873  1.00  0.00     0.000 HD 
HETATM   44  O   UNL     1      -6.310   8.665  69.193  1.00  0.00    -0.042 OA 
HETATM   45  H   UNL     1      -5.766   8.901  69.936  1.00  0.00     0.000 HD 
ENDBRANCH  30  31
ENDBRANCH   8  30
TORSDOF 5
ENDMDL
MODEL       99
REMARK 921   NORMALIZED FREE ENERGY PREDICTED BY IDOCK:   -5.45 KCAL/MOL
REMARK 922        TOTAL FREE ENERGY PREDICTED BY IDOCK:   -8.27 KCAL/MOL
REMARK 923 INTER-LIGAND FREE ENERGY PREDICTED BY IDOCK:   -7.38 KCAL/MOL
REMARK 924 INTRA-LIGAND FREE ENERGY PREDICTED BY IDOCK:   -0.89 KCAL/MOL
REMARK 927      BINDING AFFINITY PREDICTED BY RF-SCORE:    0.00 PKD
ROOT
HETATM    1  C   UNL     1     -10.112  10.484  65.412  1.00  0.00    -0.358 C  
HETATM    2  C   UNL     1      -9.980  10.800  63.951  1.00  0.00    -0.343 C  
HETATM    3  O   UNL     1      -8.665  10.317  63.632  1.00  0.00    -0.176 OA 
HETATM    4  C   UNL     1      -7.894  10.283  64.769  1.00  0.00    -0.130 C  
HETATM    5  C   UNL     1      -8.716  10.716  65.948  1.00  0.00    -0.186 C  
HETATM    6  O   UNL     1      -6.695  10.064  64.766  1.00  0.00    -0.117 OA 
HETATM    7  C   UNL     1      -8.535  10.087  67.341  1.00  0.00    -0.121 C  
HETATM    8  C   UNL     1     -11.161  11.197  66.244  1.00  0.00    -0.015 C  
HETATM    9  C   UNL     1      -9.769  10.312  68.228  1.00  0.00    -0.154 A  
HETATM   10  C   UNL     1      -9.703   9.960  69.593  1.00  0.00    -0.252 A  
HETATM   11  O   UNL     1     -10.962   9.698  71.665  1.00  0.00    -0.322 OA 
HETATM   12  C   UNL     1     -10.847  10.054  70.357  1.00  0.00    -0.318 A  
HETATM   13  C   UNL     1     -11.001  10.819  67.705  1.00  0.00    -0.354 A  
HETATM   14  C   UNL     1     -12.036  10.502  69.836  1.00  0.00    -0.245 A  
HETATM   15  C   UNL     1     -12.378   9.880  71.872  1.00  0.00    -0.305 C  
HETATM   16  O   UNL     1     -13.051  10.466  70.739  1.00  0.00    -0.385 OA 
HETATM   17  C   UNL     1     -12.141  10.910  68.528  1.00  0.00     0.004 A  
ENDROOT
BRANCH   7  18
HETATM   18  C   UNL     1      -8.086   8.629  67.253  1.00  0.00    -0.101 A  
HETATM   19  O   UNL     1      -7.357   4.551  67.788  1.00  0.00    -0.068 OA 
HETATM   20  C   UNL     1      -6.669   6.802  67.977  1.00  0.00    -0.068 A  
HETATM   21  C   UNL     1      -8.967   7.682  66.709  1.00  0.00    -0.166 A  
HETATM   22  H   UNL     1      -6.583   4.258  68.254  1.00  0.00     0.000 HD 
HETATM   23  C   UNL     1      -6.896   8.170  67.831  1.00  0.00    -0.073 A  
HETATM   24  C   UNL     1      -7.619   5.873  67.521  1.00  0.00    -0.093 A  
HETATM   25  C   UNL     1      -8.757   6.303  66.837  1.00  0.00    -0.113 A  
BRANCH  25  26
HETATM   26  O   UNL     1      -9.766   5.590  66.251  1.00  0.00    -0.156 OA 
HETATM   27  C   UNL     1      -9.524   4.768  65.130  1.00  0.00    -0.105 C  
ENDBRANCH  25  26
BRANCH  20  28
HETATM   28  O   UNL     1      -5.563   6.295  68.630  1.00  0.00    -0.010 OA 
HETATM   29  C   UNL     1      -5.510   6.508  70.036  1.00  0.00    -0.014 C  
ENDBRANCH  20  28
ENDBRANCH   7  18
BRANCH   8  30
HETATM   30  O   UNL     1     -11.403  12.571  66.023  1.00  0.00    -0.309 OA 
BRANCH  30  31
HETATM   31  C   UNL     1     -10.645  13.650  66.578  1.00  0.00    -0.282 C  
HETATM   32  O   UNL     1      -9.235  13.390  66.594  1.00  0.00    -0.251 OA 
HETATM   33  C   UNL     1      -8.518  14.311  67.431  1.00  0.00    -0.203 C  
HETATM   34  C   UNL     1      -6.998  14.167  67.341  1.00  0.00    -0.045 C  
HETATM   35  O   UNL     1      -6.361  15.025  68.291  1.00  0.00    -0.100 OA 
HETATM   36  C   UNL     1      -6.763  14.721  69.624  1.00  0.00    -0.166 C  
HETATM   37  C   UNL     1      -6.100  15.693  70.591  1.00  0.00     0.163 C  
HETATM   38  O   UNL     1      -8.167  14.897  69.786  1.00  0.00    -0.063 OA 
HETATM   39  C   UNL     1      -8.915  14.080  68.885  1.00  0.00     0.060 C  
HETATM   40  C   UNL     1     -10.369  14.486  69.040  1.00  0.00    -0.223 C  
HETATM   41  O   UNL     1     -10.817  14.141  70.360  1.00  0.00    -0.366 OA 
HETATM   42  C   UNL     1     -11.274  13.834  67.992  1.00  0.00    -0.267 C  
HETATM   43  H   UNL     1     -11.727  14.395  70.458  1.00  0.00     0.000 HD 
HETATM   44  O   UNL     1     -12.498  14.598  67.857  1.00  0.00    -0.586 OA 
HETATM   45  H   UNL     1     -12.881  14.711  68.719  1.00  0.00     0.000 HD 
ENDBRANCH  30  31
ENDBRANCH   8  30
TORSDOF 5
ENDMDL
MODEL      100
REMARK 921   NORMALIZED FREE ENERGY PREDICTED BY IDOCK:   -5.44 KCAL/MOL
REMARK 922        TOTAL FREE ENERGY PREDICTED BY IDOCK:   -8.27 KCAL/MOL
REMARK 923 INTER-LIGAND FREE ENERGY PREDICTED BY IDOCK:   -6.56 KCAL/MOL
REMARK 924 INTRA-LIGAND FREE ENERGY PREDICTED BY IDOCK:   -1.71 KCAL/MOL
REMARK 927      BINDING AFFINITY PREDICTED BY RF-SCORE:    0.00 PKD
ROOT
HETATM    1  C   UNL     1      -9.620  11.326  66.683  1.00  0.00    -0.218 C  
HETATM    2  C   UNL     1     -10.640  11.154  65.596  1.00  0.00    -0.223 C  
HETATM    3  O   UNL     1     -10.478   9.778  65.214  1.00  0.00     0.033 OA 
HETATM    4  C   UNL     1      -9.213   9.352  65.538  1.00  0.00    -0.232 C  
HETATM    5  C   UNL     1      -8.467  10.461  66.222  1.00  0.00    -0.145 C  
HETATM    6  O   UNL     1      -8.750   8.279  65.189  1.00  0.00    -0.149 OA 
HETATM    7  C   UNL     1      -7.472  10.189  67.365  1.00  0.00    -0.094 C  
HETATM    8  C   UNL     1      -9.160  12.719  67.070  1.00  0.00    -0.220 C  
HETATM    9  C   UNL     1      -7.227  11.447  68.212  1.00  0.00    -0.082 A  
HETATM   10  C   UNL     1      -6.208  11.425  69.188  1.00  0.00    -0.064 A  
HETATM   11  O   UNL     1      -5.180  12.622  71.048  1.00  0.00    -0.140 OA 
HETATM   12  C   UNL     1      -6.068  12.514  70.023  1.00  0.00    -0.117 A  
HETATM   13  C   UNL     1      -8.030  12.624  68.079  1.00  0.00    -0.155 A  
HETATM   14  C   UNL     1      -6.872  13.623  69.915  1.00  0.00     0.206 A  
HETATM   15  C   UNL     1      -5.586  13.878  71.628  1.00  0.00    -0.226 C  
HETATM   16  O   UNL     1      -6.606  14.556  70.867  1.00  0.00    -0.002 OA 
HETATM   17  C   UNL     1      -7.841  13.718  68.947  1.00  0.00     0.005 A  
ENDROOT
BRANCH   7  18
HETATM   18  C   UNL     1      -7.864   8.956  68.178  1.00  0.00    -0.101 A  
HETATM   19  O   UNL     1      -8.577   6.065  71.108  1.00  0.00    -0.127 OA 
HETATM   20  C   UNL     1      -7.280   6.900  69.319  1.00  0.00    -0.090 A  
HETATM   21  C   UNL     1      -9.061   8.980  68.909  1.00  0.00    -0.140 A  
HETATM   22  H   UNL     1      -7.945   5.374  71.266  1.00  0.00     0.000 HD 
HETATM   23  C   UNL     1      -7.006   7.862  68.349  1.00  0.00    -0.075 A  
HETATM   24  C   UNL     1      -8.433   7.005  70.116  1.00  0.00    -0.139 A  
HETATM   25  C   UNL     1      -9.362   8.020  69.884  1.00  0.00    -0.156 A  
BRANCH  25  26
HETATM   26  O   UNL     1     -10.568   8.275  70.476  1.00  0.00    -0.211 OA 
HETATM   27  C   UNL     1     -10.646   8.945  71.714  1.00  0.00    -0.362 C  
ENDBRANCH  25  26
BRANCH  20  28
HETATM   28  O   UNL     1      -6.420   5.857  69.601  1.00  0.00    -0.038 OA 
HETATM   29  C   UNL     1      -5.331   5.678  68.701  1.00  0.00    -0.003 C  
ENDBRANCH  20  28
ENDBRANCH   7  18
BRANCH   8  30
HETATM   30  O   UNL     1      -8.958  13.686  66.060  1.00  0.00     0.116 OA 
BRANCH  30  31
HETATM   31  C   UNL     1      -9.512  15.005  66.048  1.00  0.00    -0.302 C  
HETATM   32  O   UNL     1      -8.566  16.010  66.438  1.00  0.00    -0.282 OA 
HETATM   33  C   UNL     1      -9.194  17.266  66.737  1.00  0.00    -0.255 C  
HETATM   34  C   UNL     1      -8.202  18.403  66.993  1.00  0.00    -0.247 C  
HETATM   35  O   UNL     1      -8.896  19.583  67.405  1.00  0.00    -0.293 OA 
HETATM   36  C   UNL     1      -9.644  19.361  68.598  1.00  0.00    -0.426 C  
HETATM   37  C   UNL     1     -10.404  20.628  68.967  1.00  0.00     0.313 C  
HETATM   38  O   UNL     1     -10.628  18.351  68.403  1.00  0.00    -0.300 OA 
HETATM   39  C   UNL     1     -10.049  17.113  67.989  1.00  0.00    -0.311 C  
HETATM   40  C   UNL     1     -11.203  16.188  67.653  1.00  0.00    -0.147 C  
HETATM   41  O   UNL     1     -11.944  15.903  68.851  1.00  0.00    -0.476 OA 
HETATM   42  C   UNL     1     -10.738  14.883  67.003  1.00  0.00    -0.307 C  
HETATM   43  H   UNL     1     -12.667  15.324  68.641  1.00  0.00     0.000 HD 
HETATM   44  O   UNL     1     -11.834  14.281  66.270  1.00  0.00    -0.380 OA 
HETATM   45  H   UNL     1     -12.582  14.207  66.852  1.00  0.00     0.000 HD 
ENDBRANCH  30  31
ENDBRANCH   8  30
TORSDOF 5
ENDMDL
MODEL      101
REMARK 921   NORMALIZED FREE ENERGY PREDICTED BY IDOCK:   -5.44 KCAL/MOL
REMARK 922        TOTAL FREE ENERGY PREDICTED BY IDOCK:   -8.27 KCAL/MOL
REMARK 923 INTER-LIGAND FREE ENERGY PREDICTED BY IDOCK:   -8.34 KCAL/MOL
REMARK 924 INTRA-LIGAND FREE ENERGY PREDICTED BY IDOCK:    0.07 KCAL/MOL
REMARK 927      BINDING AFFINITY PREDICTED BY RF-SCORE:    0.00 PKD
ROOT
HETATM    1  C   UNL     1     -11.582  11.514  65.875  1.00  0.00     0.032 C  
HETATM    2  C   UNL     1     -12.412  12.163  64.806  1.00  0.00    -0.178 C  
HETATM    3  O   UNL     1     -11.520  12.198  63.680  1.00  0.00    -0.412 OA 
HETATM    4  C   UNL     1     -10.218  12.163  64.117  1.00  0.00    -0.343 C  
HETATM    5  C   UNL     1     -10.192  12.050  65.614  1.00  0.00    -0.284 C  
HETATM    6  O   UNL     1      -9.256  12.337  63.389  1.00  0.00     0.028 OA 
HETATM    7  C   UNL     1      -9.121  11.224  66.349  1.00  0.00    -0.201 C  
HETATM    8  C   UNL     1     -11.980  11.665  67.331  1.00  0.00     0.085 C  
HETATM    9  C   UNL     1      -9.570  10.853  67.770  1.00  0.00    -0.176 A  
HETATM   10  C   UNL     1      -8.640  10.254  68.646  1.00  0.00    -0.128 A  
HETATM   11  O   UNL     1      -8.324   9.169  70.807  1.00  0.00    -0.180 OA 
HETATM   12  C   UNL     1      -9.078   9.817  69.879  1.00  0.00    -0.229 A  
HETATM   13  C   UNL     1     -10.915  11.049  68.220  1.00  0.00    -0.287 A  
HETATM   14  C   UNL     1     -10.381   9.971  70.285  1.00  0.00    -0.242 A  
HETATM   15  C   UNL     1      -9.326   8.849  71.794  1.00  0.00    -0.234 C  
HETATM   16  O   UNL     1     -10.617   9.424  71.507  1.00  0.00    -0.341 OA 
HETATM   17  C   UNL     1     -11.313  10.598  69.494  1.00  0.00    -0.342 A  
ENDROOT
BRANCH   7  18
HETATM   18  C   UNL     1      -8.647  10.036  65.513  1.00  0.00    -0.162 A  
HETATM   19  O   UNL     1      -6.695   6.722  63.883  1.00  0.00    -0.046 OA 
HETATM   20  C   UNL     1      -7.115   9.046  63.919  1.00  0.00    -0.092 A  
HETATM   21  C   UNL     1      -9.014   8.741  65.910  1.00  0.00    -0.240 A  
HETATM   22  H   UNL     1      -6.020   6.837  63.225  1.00  0.00     0.000 HD 
HETATM   23  C   UNL     1      -7.735  10.171  64.459  1.00  0.00    -0.138 A  
HETATM   24  C   UNL     1      -7.419   7.764  64.409  1.00  0.00    -0.099 A  
HETATM   25  C   UNL     1      -8.411   7.595  65.376  1.00  0.00    -0.128 A  
BRANCH  25  26
HETATM   26  O   UNL     1      -8.917   6.458  65.942  1.00  0.00    -0.154 OA 
HETATM   27  C   UNL     1      -9.598   6.498  67.177  1.00  0.00    -0.136 C  
ENDBRANCH  25  26
BRANCH  20  28
HETATM   28  O   UNL     1      -6.134   9.127  62.950  1.00  0.00    -0.090 OA 
HETATM   29  C   UNL     1      -5.951  10.402  62.343  1.00  0.00    -0.127 C  
ENDBRANCH  20  28
ENDBRANCH   7  18
BRANCH   8  30
HETATM   30  O   UNL     1     -12.472  12.906  67.789  1.00  0.00    -0.061 OA 
BRANCH  30  31
HETATM   31  C   UNL     1     -11.722  14.123  67.865  1.00  0.00    -0.367 C  
HETATM   32  O   UNL     1     -10.409  14.004  67.301  1.00  0.00    -0.260 OA 
HETATM   33  C   UNL     1      -9.556  15.102  67.663  1.00  0.00    -0.206 C  
HETATM   34  C   UNL     1      -8.206  15.093  66.945  1.00  0.00    -0.199 C  
HETATM   35  O   UNL     1      -7.370  16.137  67.448  1.00  0.00    -0.143 OA 
HETATM   36  C   UNL     1      -7.136  15.994  68.846  1.00  0.00    -0.156 C  
HETATM   37  C   UNL     1      -6.286  17.155  69.343  1.00  0.00    -0.238 C  
HETATM   38  O   UNL     1      -8.357  16.056  69.576  1.00  0.00    -0.199 OA 
HETATM   39  C   UNL     1      -9.280  15.048  69.160  1.00  0.00    -0.183 C  
HETATM   40  C   UNL     1     -10.583  15.331  69.884  1.00  0.00    -0.276 C  
HETATM   41  O   UNL     1     -10.391  15.141  71.295  1.00  0.00    -0.300 OA 
HETATM   42  C   UNL     1     -11.732  14.450  69.389  1.00  0.00    -0.317 C  
HETATM   43  H   UNL     1     -11.206  15.318  71.749  1.00  0.00     0.000 HD 
HETATM   44  O   UNL     1     -13.001  15.066  69.721  1.00  0.00    -0.589 OA 
HETATM   45  H   UNL     1     -13.007  15.265  70.650  1.00  0.00     0.000 HD 
ENDBRANCH  30  31
ENDBRANCH   8  30
TORSDOF 5
ENDMDL
MODEL      102
REMARK 921   NORMALIZED FREE ENERGY PREDICTED BY IDOCK:   -5.43 KCAL/MOL
REMARK 922        TOTAL FREE ENERGY PREDICTED BY IDOCK:   -8.25 KCAL/MOL
REMARK 923 INTER-LIGAND FREE ENERGY PREDICTED BY IDOCK:   -8.12 KCAL/MOL
REMARK 924 INTRA-LIGAND FREE ENERGY PREDICTED BY IDOCK:   -0.13 KCAL/MOL
REMARK 927      BINDING AFFINITY PREDICTED BY RF-SCORE:    0.00 PKD
ROOT
HETATM    1  C   UNL     1     -10.995  10.789  68.215  1.00  0.00    -0.307 C  
HETATM    2  C   UNL     1     -11.750  12.078  68.361  1.00  0.00    -0.332 C  
HETATM    3  O   UNL     1     -10.854  13.045  67.792  1.00  0.00    -0.232 OA 
HETATM    4  C   UNL     1      -9.564  12.575  67.852  1.00  0.00    -0.206 C  
HETATM    5  C   UNL     1      -9.557  11.197  68.447  1.00  0.00    -0.192 C  
HETATM    6  O   UNL     1      -8.585  13.252  67.585  1.00  0.00    -0.171 OA 
HETATM    7  C   UNL     1      -8.578  10.110  67.969  1.00  0.00    -0.118 C  
HETATM    8  C   UNL     1     -11.384   9.589  69.058  1.00  0.00     0.161 C  
HETATM    9  C   UNL     1      -9.070   8.703  68.341  1.00  0.00    -0.138 A  
HETATM   10  C   UNL     1      -8.209   7.603  68.141  1.00  0.00    -0.124 A  
HETATM   11  O   UNL     1      -8.014   5.172  68.162  1.00  0.00    -0.087 OA 
HETATM   12  C   UNL     1      -8.694   6.332  68.366  1.00  0.00    -0.116 A  
HETATM   13  C   UNL     1     -10.391   8.464  68.838  1.00  0.00    -0.231 A  
HETATM   14  C   UNL     1      -9.978   6.110  68.803  1.00  0.00    -0.145 A  
HETATM   15  C   UNL     1      -9.048   4.202  68.424  1.00  0.00    -0.132 C  
HETATM   16  O   UNL     1     -10.274   4.788  68.908  1.00  0.00    -0.131 OA 
HETATM   17  C   UNL     1     -10.839   7.147  69.067  1.00  0.00    -0.172 A  
ENDROOT
BRANCH   7  18
HETATM   18  C   UNL     1      -8.219  10.276  66.493  1.00  0.00    -0.127 A  
HETATM   19  O   UNL     1      -7.519   9.849  62.397  1.00  0.00    -0.110 OA 
HETATM   20  C   UNL     1      -6.727   9.902  64.622  1.00  0.00    -0.123 A  
HETATM   21  C   UNL     1      -9.244  10.548  65.575  1.00  0.00    -0.223 A  
HETATM   22  H   UNL     1      -6.661   9.593  62.080  1.00  0.00     0.000 HD 
HETATM   23  C   UNL     1      -6.936  10.017  65.995  1.00  0.00    -0.110 A  
HETATM   24  C   UNL     1      -7.795  10.071  63.724  1.00  0.00    -0.152 A  
HETATM   25  C   UNL     1      -9.056  10.446  64.191  1.00  0.00    -0.242 A  
BRANCH  25  26
HETATM   26  O   UNL     1     -10.208  10.731  63.510  1.00  0.00    -0.338 OA 
HETATM   27  C   UNL     1     -10.756  12.031  63.514  1.00  0.00    -0.455 C  
ENDBRANCH  25  26
BRANCH  20  28
HETATM   28  O   UNL     1      -5.507   9.547  64.079  1.00  0.00    -0.060 OA 
HETATM   29  C   UNL     1      -5.142   8.176  64.195  1.00  0.00    -0.040 C  
ENDBRANCH  20  28
ENDBRANCH   7  18
BRANCH   8  30
HETATM   30  O   UNL     1     -11.753   9.783  70.407  1.00  0.00    -0.261 OA 
BRANCH  30  31
HETATM   31  C   UNL     1     -10.945   9.466  71.545  1.00  0.00    -0.359 C  
HETATM   32  O   UNL     1      -9.577   9.209  71.203  1.00  0.00    -0.267 OA 
HETATM   33  C   UNL     1      -8.853   8.584  72.274  1.00  0.00    -0.208 C  
HETATM   34  C   UNL     1      -7.353   8.448  72.005  1.00  0.00    -0.097 C  
HETATM   35  O   UNL     1      -6.726   7.709  73.055  1.00  0.00    -0.064 OA 
HETATM   36  C   UNL     1      -7.280   6.402  73.178  1.00  0.00    -0.086 C  
HETATM   37  C   UNL     1      -6.617   5.674  74.339  1.00  0.00    -0.072 C  
HETATM   38  O   UNL     1      -8.667   6.464  73.491  1.00  0.00    -0.124 OA 
HETATM   39  C   UNL     1      -9.406   7.183  72.502  1.00  0.00    -0.138 C  
HETATM   40  C   UNL     1     -10.819   7.322  73.036  1.00  0.00    -0.355 C  
HETATM   41  O   UNL     1     -11.423   6.021  73.120  1.00  0.00    -0.473 OA 
HETATM   42  C   UNL     1     -11.683   8.245  72.174  1.00  0.00    -0.365 C  
HETATM   43  H   UNL     1     -12.308   6.108  73.454  1.00  0.00     0.000 HD 
HETATM   44  O   UNL     1     -12.805   8.734  72.950  1.00  0.00    -0.599 OA 
HETATM   45  H   UNL     1     -13.255   7.990  73.333  1.00  0.00     0.000 HD 
ENDBRANCH  30  31
ENDBRANCH   8  30
TORSDOF 5
ENDMDL
MODEL      103
REMARK 921   NORMALIZED FREE ENERGY PREDICTED BY IDOCK:   -5.34 KCAL/MOL
REMARK 922        TOTAL FREE ENERGY PREDICTED BY IDOCK:   -8.14 KCAL/MOL
REMARK 923 INTER-LIGAND FREE ENERGY PREDICTED BY IDOCK:   -6.72 KCAL/MOL
REMARK 924 INTRA-LIGAND FREE ENERGY PREDICTED BY IDOCK:   -1.41 KCAL/MOL
REMARK 927      BINDING AFFINITY PREDICTED BY RF-SCORE:    0.00 PKD
ROOT
HETATM    1  C   UNL     1      -8.531  12.969  68.157  1.00  0.00    -0.176 C  
HETATM    2  C   UNL     1      -7.530  12.632  69.222  1.00  0.00     0.306 C  
HETATM    3  O   UNL     1      -6.903  13.896  69.491  1.00  0.00    -0.100 OA 
HETATM    4  C   UNL     1      -7.031  14.719  68.398  1.00  0.00    -0.114 C  
HETATM    5  C   UNL     1      -7.823  14.022  67.331  1.00  0.00    -0.188 C  
HETATM    6  O   UNL     1      -6.460  15.791  68.289  1.00  0.00    -0.108 OA 
HETATM    7  C   UNL     1      -8.806  14.780  66.420  1.00  0.00    -0.152 C  
HETATM    8  C   UNL     1      -9.108  11.866  67.289  1.00  0.00    -0.178 C  
HETATM    9  C   UNL     1      -9.830  13.830  65.780  1.00  0.00    -0.242 A  
HETATM   10  C   UNL     1     -10.689  14.329  64.778  1.00  0.00    -0.435 A  
HETATM   11  O   UNL     1     -12.624  13.855  63.371  1.00  0.00    -0.853 OA 
HETATM   12  C   UNL     1     -11.683  13.507  64.289  1.00  0.00    -0.416 A  
HETATM   13  C   UNL     1      -9.976  12.471  66.201  1.00  0.00    -0.267 A  
HETATM   14  C   UNL     1     -11.842  12.216  64.731  1.00  0.00    -0.318 A  
HETATM   15  C   UNL     1     -13.447  12.671  63.364  1.00  0.00     1.626 C  
HETATM   16  O   UNL     1     -12.912  11.597  64.164  1.00  0.00    -0.251 OA 
HETATM   17  C   UNL     1     -10.999  11.664  65.663  1.00  0.00    -0.322 A  
ENDROOT
BRANCH   7  18
HETATM   18  C   UNL     1      -9.426  15.982  67.130  1.00  0.00    -0.225 A  
HETATM   19  O   UNL     1     -10.340  19.251  69.565  1.00  0.00    -0.496 OA 
HETATM   20  C   UNL     1     -10.571  16.963  69.026  1.00  0.00    -0.338 A  
HETATM   21  C   UNL     1      -9.024  17.272  66.751  1.00  0.00    -0.269 A  
HETATM   22  H   UNL     1     -10.842  19.132  70.362  1.00  0.00     0.000 HD 
HETATM   23  C   UNL     1     -10.264  15.851  68.244  1.00  0.00    -0.227 A  
HETATM   24  C   UNL     1     -10.064  18.230  68.689  1.00  0.00    -0.385 A  
HETATM   25  C   UNL     1      -9.326  18.405  67.517  1.00  0.00    -0.265 A  
BRANCH  25  26
HETATM   26  O   UNL     1      -8.800  19.537  66.958  1.00  0.00    -0.286 OA 
HETATM   27  C   UNL     1      -8.043  20.446  67.726  1.00  0.00    -0.186 C  
ENDBRANCH  25  26
BRANCH  20  28
HETATM   28  O   UNL     1     -11.306  16.876  70.192  1.00  0.00     0.086 OA 
HETATM   29  C   UNL     1     -11.847  15.596  70.502  1.00  0.00    -0.373 C  
ENDBRANCH  20  28
ENDBRANCH   7  18
BRANCH   8  30
HETATM   30  O   UNL     1      -8.266  10.822  66.847  1.00  0.00    -0.123 OA 
BRANCH  30  31
HETATM   31  C   UNL     1      -8.387   9.444  67.212  1.00  0.00    -0.125 C  
HETATM   32  O   UNL     1      -9.268   9.237  68.323  1.00  0.00    -0.132 OA 
HETATM   33  C   UNL     1      -9.139   7.922  68.887  1.00  0.00    -0.141 C  
HETATM   34  C   UNL     1     -10.179   7.611  69.965  1.00  0.00    -0.213 C  
HETATM   35  O   UNL     1      -9.909   6.341  70.563  1.00  0.00    -0.174 OA 
HETATM   36  C   UNL     1      -8.617   6.309  71.163  1.00  0.00    -0.125 C  
HETATM   37  C   UNL     1      -8.357   4.924  71.739  1.00  0.00    -0.118 C  
HETATM   38  O   UNL     1      -7.599   6.532  70.193  1.00  0.00    -0.092 OA 
HETATM   39  C   UNL     1      -7.762   7.784  69.526  1.00  0.00    -0.105 C  
HETATM   40  C   UNL     1      -6.729   7.819  68.415  1.00  0.00    -0.062 C  
HETATM   41  O   UNL     1      -5.414   7.842  68.994  1.00  0.00    -0.028 OA 
HETATM   42  C   UNL     1      -6.911   9.019  67.483  1.00  0.00    -0.078 C  
HETATM   43  H   UNL     1      -4.767   7.864  68.300  1.00  0.00     0.000 HD 
HETATM   44  O   UNL     1      -6.267   8.755  66.212  1.00  0.00    -0.058 OA 
HETATM   45  H   UNL     1      -5.367   8.496  66.377  1.00  0.00     0.000 HD 
ENDBRANCH  30  31
ENDBRANCH   8  30
TORSDOF 5
ENDMDL
MODEL      104
REMARK 921   NORMALIZED FREE ENERGY PREDICTED BY IDOCK:   -5.33 KCAL/MOL
REMARK 922        TOTAL FREE ENERGY PREDICTED BY IDOCK:   -8.12 KCAL/MOL
REMARK 923 INTER-LIGAND FREE ENERGY PREDICTED BY IDOCK:   -6.54 KCAL/MOL
REMARK 924 INTRA-LIGAND FREE ENERGY PREDICTED BY IDOCK:   -1.58 KCAL/MOL
REMARK 927      BINDING AFFINITY PREDICTED BY RF-SCORE:    0.00 PKD
ROOT
HETATM    1  C   UNL     1      -9.963   7.835  68.085  1.00  0.00    -0.207 C  
HETATM    2  C   UNL     1     -11.028   7.891  67.029  1.00  0.00     0.134 C  
HETATM    3  O   UNL     1     -11.328   6.506  66.797  1.00  0.00    -0.272 OA 
HETATM    4  C   UNL     1     -10.253   5.731  67.159  1.00  0.00    -0.207 C  
HETATM    5  C   UNL     1      -9.165   6.604  67.714  1.00  0.00    -0.111 C  
HETATM    6  O   UNL     1     -10.171   4.537  66.925  1.00  0.00    -0.201 OA 
HETATM    7  C   UNL     1      -8.265   6.143  68.874  1.00  0.00    -0.112 C  
HETATM    8  C   UNL     1      -9.067   9.038  68.316  1.00  0.00    -0.133 C  
HETATM    9  C   UNL     1      -7.597   7.334  69.578  1.00  0.00    -0.100 A  
HETATM   10  C   UNL     1      -6.600   7.085  70.545  1.00  0.00    -0.052 A  
HETATM   11  O   UNL     1      -5.170   8.068  72.259  1.00  0.00    -0.035 OA 
HETATM   12  C   UNL     1      -6.087   8.149  71.257  1.00  0.00    -0.035 A  
HETATM   13  C   UNL     1      -7.987   8.687  69.323  1.00  0.00    -0.103 A  
HETATM   14  C   UNL     1      -6.499   9.440  71.034  1.00  0.00    -0.086 A  
HETATM   15  C   UNL     1      -5.132   9.440  72.702  1.00  0.00    -0.078 C  
HETATM   16  O   UNL     1      -5.912  10.330  71.878  1.00  0.00    -0.283 OA 
HETATM   17  C   UNL     1      -7.425   9.744  70.067  1.00  0.00    -0.158 A  
ENDROOT
BRANCH   7  18
HETATM   18  C   UNL     1      -8.996   5.190  69.818  1.00  0.00    -0.141 A  
HETATM   19  O   UNL     1     -10.404   2.918  73.028  1.00  0.00    -0.137 OA 
HETATM   20  C   UNL     1      -9.105   3.116  71.065  1.00  0.00    -0.114 A  
HETATM   21  C   UNL     1     -10.001   5.702  70.651  1.00  0.00    -0.260 A  
HETATM   22  H   UNL     1     -10.066   2.044  73.184  1.00  0.00     0.000 HD 
HETATM   23  C   UNL     1      -8.602   3.858  69.998  1.00  0.00    -0.105 A  
HETATM   24  C   UNL     1     -10.032   3.689  71.954  1.00  0.00    -0.153 A  
HETATM   25  C   UNL     1     -10.527   4.973  71.725  1.00  0.00    -0.176 A  
BRANCH  25  26
HETATM   26  O   UNL     1     -11.470   5.696  72.403  1.00  0.00    -0.285 OA 
HETATM   27  C   UNL     1     -12.251   6.671  71.749  1.00  0.00    -0.353 C  
ENDBRANCH  25  26
BRANCH  20  28
HETATM   28  O   UNL     1      -8.677   1.835  71.352  1.00  0.00    -0.056 OA 
HETATM   29  C   UNL     1      -7.298   1.565  71.119  1.00  0.00    -0.032 C  
ENDBRANCH  20  28
ENDBRANCH   7  18
BRANCH   8  30
HETATM   30  O   UNL     1      -8.609   9.782  67.207  1.00  0.00    -0.127 OA 
BRANCH  30  31
HETATM   31  C   UNL     1      -8.868  11.169  66.969  1.00  0.00    -0.149 C  
HETATM   32  O   UNL     1      -7.744  12.005  67.269  1.00  0.00    -0.151 OA 
HETATM   33  C   UNL     1      -8.099  13.395  67.343  1.00  0.00    -0.172 C  
HETATM   34  C   UNL     1      -6.898  14.330  67.495  1.00  0.00    -0.135 C  
HETATM   35  O   UNL     1      -7.338  15.676  67.687  1.00  0.00    -0.136 OA 
HETATM   36  C   UNL     1      -8.153  15.799  68.849  1.00  0.00    -0.207 C  
HETATM   37  C   UNL     1      -8.638  17.237  68.982  1.00  0.00    -0.078 C  
HETATM   38  O   UNL     1      -9.323  14.996  68.739  1.00  0.00    -0.187 OA 
HETATM   39  C   UNL     1      -9.007  13.616  68.547  1.00  0.00    -0.102 C  
HETATM   40  C   UNL     1     -10.320  12.907  68.275  1.00  0.00    -0.244 C  
HETATM   41  O   UNL     1     -11.143  12.969  69.452  1.00  0.00    -0.419 OA 
HETATM   42  C   UNL     1     -10.123  11.450  67.851  1.00  0.00    -0.183 C  
HETATM   43  H   UNL     1     -11.965  12.525  69.282  1.00  0.00     0.000 HD 
HETATM   44  O   UNL     1     -11.298  10.980  67.145  1.00  0.00    -0.399 OA 
HETATM   45  H   UNL     1     -12.063  11.151  67.682  1.00  0.00     0.000 HD 
ENDBRANCH  30  31
ENDBRANCH   8  30
TORSDOF 5
ENDMDL
MODEL      105
REMARK 921   NORMALIZED FREE ENERGY PREDICTED BY IDOCK:   -5.31 KCAL/MOL
REMARK 922        TOTAL FREE ENERGY PREDICTED BY IDOCK:   -8.09 KCAL/MOL
REMARK 923 INTER-LIGAND FREE ENERGY PREDICTED BY IDOCK:   -6.93 KCAL/MOL
REMARK 924 INTRA-LIGAND FREE ENERGY PREDICTED BY IDOCK:   -1.17 KCAL/MOL
REMARK 927      BINDING AFFINITY PREDICTED BY RF-SCORE:    0.00 PKD
ROOT
HETATM    1  C   UNL     1      -7.494   9.093  68.391  1.00  0.00    -0.082 C  
HETATM    2  C   UNL     1      -6.341   9.247  67.443  1.00  0.00    -0.062 C  
HETATM    3  O   UNL     1      -5.533   8.093  67.724  1.00  0.00    -0.032 OA 
HETATM    4  C   UNL     1      -5.787   7.648  68.999  1.00  0.00    -0.030 C  
HETATM    5  C   UNL     1      -6.854   8.496  69.626  1.00  0.00    -0.043 C  
HETATM    6  O   UNL     1      -5.133   6.782  69.555  1.00  0.00    -0.013 OA 
HETATM    7  C   UNL     1      -7.910   7.905  70.578  1.00  0.00    -0.095 C  
HETATM    8  C   UNL     1      -8.356  10.295  68.728  1.00  0.00    -0.125 C  
HETATM    9  C   UNL     1      -9.144   8.814  70.688  1.00  0.00    -0.221 A  
HETATM   10  C   UNL     1     -10.127   8.515  71.655  1.00  0.00    -0.338 A  
HETATM   11  O   UNL     1     -12.349   9.063  72.498  1.00  0.00    -0.320 OA 
HETATM   12  C   UNL     1     -11.286   9.262  71.673  1.00  0.00    -0.397 A  
HETATM   13  C   UNL     1      -9.354   9.923  69.809  1.00  0.00    -0.248 A  
HETATM   14  C   UNL     1     -11.498  10.299  70.797  1.00  0.00    -0.351 A  
HETATM   15  C   UNL     1     -13.285  10.025  71.972  1.00  0.00    -0.443 C  
HETATM   16  O   UNL     1     -12.723  10.867  70.945  1.00  0.00    -0.348 OA 
HETATM   17  C   UNL     1     -10.550  10.667  69.874  1.00  0.00    -0.203 A  
ENDROOT
BRANCH   7  18
HETATM   18  C   UNL     1      -8.232   6.451  70.238  1.00  0.00    -0.125 A  
HETATM   19  O   UNL     1      -9.903   2.653  69.760  1.00  0.00     0.039 OA 
HETATM   20  C   UNL     1      -8.423   4.121  70.871  1.00  0.00    -0.079 A  
HETATM   21  C   UNL     1      -9.057   6.182  69.135  1.00  0.00    -0.128 A  
HETATM   22  H   UNL     1      -9.708   1.960  70.379  1.00  0.00     0.000 HD 
HETATM   23  C   UNL     1      -7.867   5.383  71.067  1.00  0.00    -0.103 A  
HETATM   24  C   UNL     1      -9.335   3.902  69.823  1.00  0.00    -0.172 A  
HETATM   25  C   UNL     1      -9.622   4.920  68.913  1.00  0.00    -0.158 A  
BRANCH  25  26
HETATM   26  O   UNL     1     -10.409   4.917  67.794  1.00  0.00    -0.106 OA 
HETATM   27  C   UNL     1     -10.810   6.123  67.182  1.00  0.00    -0.360 C  
ENDBRANCH  25  26
BRANCH  20  28
HETATM   28  O   UNL     1      -8.180   3.058  71.718  1.00  0.00    -0.057 OA 
HETATM   29  C   UNL     1      -7.427   3.347  72.891  1.00  0.00    -0.059 C  
ENDBRANCH  20  28
ENDBRANCH   7  18
BRANCH   8  30
HETATM   30  O   UNL     1      -7.746  11.555  68.910  1.00  0.00    -0.132 OA 
BRANCH  30  31
HETATM   31  C   UNL     1      -8.402  12.822  68.799  1.00  0.00     0.140 C  
HETATM   32  O   UNL     1      -9.475  12.813  67.848  1.00  0.00    -0.194 OA 
HETATM   33  C   UNL     1      -9.912  14.137  67.502  1.00  0.00    -0.236 C  
HETATM   34  C   UNL     1     -11.162  14.160  66.621  1.00  0.00    -0.325 C  
HETATM   35  O   UNL     1     -11.459  15.499  66.217  1.00  0.00    -0.103 OA 
HETATM   36  C   UNL     1     -10.382  16.076  65.485  1.00  0.00    -0.390 C  
HETATM   37  C   UNL     1     -10.725  17.515  65.123  1.00  0.00     0.215 C  
HETATM   38  O   UNL     1      -9.201  16.138  66.278  1.00  0.00    -0.275 OA 
HETATM   39  C   UNL     1      -8.801  14.848  66.739  1.00  0.00    -0.261 C  
HETATM   40  C   UNL     1      -7.648  15.072  67.700  1.00  0.00    -0.178 C  
HETATM   41  O   UNL     1      -6.526  15.605  66.977  1.00  0.00    -0.295 OA 
HETATM   42  C   UNL     1      -7.238  13.793  68.433  1.00  0.00    -0.108 C  
HETATM   43  H   UNL     1      -5.805  15.746  67.578  1.00  0.00     0.000 HD 
HETATM   44  O   UNL     1      -6.520  14.130  69.646  1.00  0.00    -0.125 OA 
HETATM   45  H   UNL     1      -5.810  14.721  69.424  1.00  0.00     0.000 HD 
ENDBRANCH  30  31
ENDBRANCH   8  30
TORSDOF 5
ENDMDL
MODEL      106
REMARK 921   NORMALIZED FREE ENERGY PREDICTED BY IDOCK:   -5.29 KCAL/MOL
REMARK 922        TOTAL FREE ENERGY PREDICTED BY IDOCK:   -8.07 KCAL/MOL
REMARK 923 INTER-LIGAND FREE ENERGY PREDICTED BY IDOCK:   -9.25 KCAL/MOL
REMARK 924 INTRA-LIGAND FREE ENERGY PREDICTED BY IDOCK:    1.18 KCAL/MOL
REMARK 927      BINDING AFFINITY PREDICTED BY RF-SCORE:    0.00 PKD
ROOT
HETATM    1  C   UNL     1     -11.675  12.456  69.553  1.00  0.00    -0.388 C  
HETATM    2  C   UNL     1     -12.416  12.993  70.743  1.00  0.00    -0.302 C  
HETATM    3  O   UNL     1     -12.128  14.400  70.697  1.00  0.00    -0.293 OA 
HETATM    4  C   UNL     1     -10.957  14.612  70.011  1.00  0.00    -0.112 C  
HETATM    5  C   UNL     1     -10.421  13.302  69.511  1.00  0.00     0.428 C  
HETATM    6  O   UNL     1     -10.394  15.692  69.953  1.00  0.00    -0.289 OA 
HETATM    7  C   UNL     1      -9.704  13.181  68.154  1.00  0.00    -0.228 C  
HETATM    8  C   UNL     1     -11.359  10.975  69.468  1.00  0.00    -0.287 C  
HETATM    9  C   UNL     1      -9.696  11.731  67.646  1.00  0.00    -0.186 A  
HETATM   10  C   UNL     1      -8.926  11.410  66.508  1.00  0.00    -0.192 A  
HETATM   11  O   UNL     1      -8.384   9.690  64.867  1.00  0.00    -0.131 OA 
HETATM   12  C   UNL     1      -9.013  10.136  65.988  1.00  0.00    -0.151 A  
HETATM   13  C   UNL     1     -10.485  10.705  68.257  1.00  0.00    -0.214 A  
HETATM   14  C   UNL     1      -9.806   9.170  66.557  1.00  0.00    -0.264 A  
HETATM   15  C   UNL     1      -8.951   8.369  64.746  1.00  0.00     0.254 C  
HETATM   16  O   UNL     1      -9.793   8.004  65.859  1.00  0.00     0.027 OA 
HETATM   17  C   UNL     1     -10.532   9.413  67.697  1.00  0.00    -0.328 A  
ENDROOT
BRANCH   7  18
HETATM   18  C   UNL     1     -10.230  14.196  67.140  1.00  0.00    -0.258 A  
HETATM   19  O   UNL     1     -11.041  16.580  63.808  1.00  0.00    -1.125 OA 
HETATM   20  C   UNL     1     -10.003  16.268  65.906  1.00  0.00    -0.339 A  
HETATM   21  C   UNL     1     -11.175  13.776  66.192  1.00  0.00    -0.301 A  
HETATM   22  H   UNL     1     -10.610  17.419  63.699  1.00  0.00     0.000 HD 
HETATM   23  C   UNL     1      -9.697  15.485  67.018  1.00  0.00    -0.230 A  
HETATM   24  C   UNL     1     -10.869  15.781  64.911  1.00  0.00    -0.413 A  
HETATM   25  C   UNL     1     -11.504  14.548  65.070  1.00  0.00    -0.382 A  
BRANCH  25  26
HETATM   26  O   UNL     1     -12.423  13.913  64.282  1.00  0.00    -0.638 OA 
HETATM   27  C   UNL     1     -12.959  12.661  64.649  1.00  0.00    -0.136 C  
ENDBRANCH  25  26
BRANCH  20  28
HETATM   28  O   UNL     1      -9.428  17.504  65.682  1.00  0.00    -0.498 OA 
HETATM   29  C   UNL     1      -9.096  18.263  66.839  1.00  0.00    -0.282 C  
ENDBRANCH  20  28
ENDBRANCH   7  18
BRANCH   8  30
HETATM   30  O   UNL     1     -10.964  10.284  70.635  1.00  0.00    -0.308 OA 
BRANCH  30  31
HETATM   31  C   UNL     1      -9.735   9.572  70.806  1.00  0.00    -0.219 C  
HETATM   32  O   UNL     1      -8.904   9.607  69.638  1.00  0.00    -0.168 OA 
HETATM   33  C   UNL     1      -7.842   8.641  69.692  1.00  0.00    -0.094 C  
HETATM   34  C   UNL     1      -6.840   8.764  68.542  1.00  0.00    -0.064 C  
HETATM   35  O   UNL     1      -5.892   7.696  68.595  1.00  0.00    -0.026 OA 
HETATM   36  C   UNL     1      -6.529   6.425  68.502  1.00  0.00    -0.049 C  
HETATM   37  C   UNL     1      -5.485   5.322  68.614  1.00  0.00    -0.007 C  
HETATM   38  O   UNL     1      -7.432   6.226  69.584  1.00  0.00    -0.081 OA 
HETATM   39  C   UNL     1      -8.437   7.239  69.633  1.00  0.00    -0.133 C  
HETATM   40  C   UNL     1      -9.218   7.012  70.914  1.00  0.00    -0.156 C  
HETATM   41  O   UNL     1      -9.915   5.759  70.826  1.00  0.00    -0.179 OA 
HETATM   42  C   UNL     1     -10.207   8.142  71.207  1.00  0.00    -0.195 C  
HETATM   43  H   UNL     1     -10.403   5.616  71.628  1.00  0.00     0.000 HD 
HETATM   44  O   UNL     1     -10.545   8.146  72.616  1.00  0.00    -0.316 OA 
HETATM   45  H   UNL     1     -10.833   7.274  72.861  1.00  0.00     0.000 HD 
ENDBRANCH  30  31
ENDBRANCH   8  30
TORSDOF 5
ENDMDL
MODEL      107
REMARK 921   NORMALIZED FREE ENERGY PREDICTED BY IDOCK:   -5.29 KCAL/MOL
REMARK 922        TOTAL FREE ENERGY PREDICTED BY IDOCK:   -8.07 KCAL/MOL
REMARK 923 INTER-LIGAND FREE ENERGY PREDICTED BY IDOCK:   -6.50 KCAL/MOL
REMARK 924 INTRA-LIGAND FREE ENERGY PREDICTED BY IDOCK:   -1.57 KCAL/MOL
REMARK 927      BINDING AFFINITY PREDICTED BY RF-SCORE:    0.00 PKD
ROOT
HETATM    1  C   UNL     1      -9.315   9.880  69.030  1.00  0.00    -0.175 C  
HETATM    2  C   UNL     1      -8.572  10.913  68.235  1.00  0.00    -0.139 C  
HETATM    3  O   UNL     1      -7.200  10.511  68.382  1.00  0.00    -0.076 OA 
HETATM    4  C   UNL     1      -7.055   9.769  69.529  1.00  0.00    -0.075 C  
HETATM    5  C   UNL     1      -8.389   9.601  70.194  1.00  0.00    -0.221 C  
HETATM    6  O   UNL     1      -5.974   9.431  69.982  1.00  0.00    -0.034 OA 
HETATM    7  C   UNL     1      -8.777   8.302  70.925  1.00  0.00    -0.163 C  
HETATM    8  C   UNL     1     -10.732  10.162  69.492  1.00  0.00    -0.249 C  
HETATM    9  C   UNL     1     -10.300   8.173  71.078  1.00  0.00    -0.229 A  
HETATM   10  C   UNL     1     -10.820   7.136  71.881  1.00  0.00    -0.255 A  
HETATM   11  O   UNL     1     -12.837   5.966  72.596  1.00  0.00     0.119 OA 
HETATM   12  C   UNL     1     -12.186   6.952  71.922  1.00  0.00    -0.332 A  
HETATM   13  C   UNL     1     -11.211   9.038  70.393  1.00  0.00    -0.275 A  
HETATM   14  C   UNL     1     -13.051   7.762  71.227  1.00  0.00    -0.206 A  
HETATM   15  C   UNL     1     -14.194   6.191  72.163  1.00  0.00     0.666 C  
HETATM   16  O   UNL     1     -14.348   7.377  71.358  1.00  0.00    -0.445 OA 
HETATM   17  C   UNL     1     -12.601   8.820  70.476  1.00  0.00     0.429 A  
ENDROOT
BRANCH   7  18
HETATM   18  C   UNL     1      -8.105   7.078  70.304  1.00  0.00    -0.119 A  
HETATM   19  O   UNL     1      -6.952   3.271  69.031  1.00  0.00    -0.044 OA 
HETATM   20  C   UNL     1      -6.701   5.113  70.488  1.00  0.00    -0.040 A  
HETATM   21  C   UNL     1      -8.634   6.546  69.118  1.00  0.00    -0.129 A  
HETATM   22  H   UNL     1      -6.314   2.771  69.525  1.00  0.00     0.000 HD 
HETATM   23  C   UNL     1      -7.081   6.372  70.947  1.00  0.00    -0.070 A  
HETATM   24  C   UNL     1      -7.323   4.552  69.359  1.00  0.00    -0.052 A  
HETATM   25  C   UNL     1      -8.262   5.286  68.632  1.00  0.00    -0.093 A  
BRANCH  25  26
HETATM   26  O   UNL     1      -8.934   4.979  67.482  1.00  0.00    -0.109 OA 
HETATM   27  C   UNL     1     -10.237   5.466  67.245  1.00  0.00    -0.214 C  
ENDBRANCH  25  26
BRANCH  20  28
HETATM   28  O   UNL     1      -5.771   4.329  71.141  1.00  0.00    -0.011 OA 
HETATM   29  C   UNL     1      -6.271   3.493  72.180  1.00  0.00    -0.014 C  
ENDBRANCH  20  28
ENDBRANCH   7  18
BRANCH   8  30
HETATM   30  O   UNL     1     -11.066  11.456  69.949  1.00  0.00    -0.193 OA 
BRANCH  30  31
HETATM   31  C   UNL     1     -11.695  12.478  69.170  1.00  0.00    -0.321 C  
HETATM   32  O   UNL     1     -11.806  12.133  67.783  1.00  0.00    -0.452 OA 
HETATM   33  C   UNL     1     -12.131  13.265  66.962  1.00  0.00    -0.320 C  
HETATM   34  C   UNL     1     -12.420  12.903  65.504  1.00  0.00    -0.402 C  
HETATM   35  O   UNL     1     -12.610  14.088  64.727  1.00  0.00    -0.605 OA 
HETATM   36  C   UNL     1     -11.459  14.927  64.762  1.00  0.00    -0.410 C  
HETATM   37  C   UNL     1     -11.728  16.196  63.965  1.00  0.00     0.335 C  
HETATM   38  O   UNL     1     -11.174  15.348  66.092  1.00  0.00    -0.281 OA 
HETATM   39  C   UNL     1     -10.960  14.241  66.968  1.00  0.00    -0.303 C  
HETATM   40  C   UNL     1     -10.841  14.815  68.367  1.00  0.00    -0.245 C  
HETATM   41  O   UNL     1      -9.656  15.624  68.447  1.00  0.00    -0.195 OA 
HETATM   42  C   UNL     1     -10.807  13.729  69.445  1.00  0.00    -0.039 C  
HETATM   43  H   UNL     1      -9.582  15.983  69.323  1.00  0.00     0.000 HD 
HETATM   44  O   UNL     1     -11.189  14.294  70.724  1.00  0.00    -0.511 OA 
HETATM   45  H   UNL     1     -10.647  15.057  70.892  1.00  0.00     0.000 HD 
ENDBRANCH  30  31
ENDBRANCH   8  30
TORSDOF 5
ENDMDL
MODEL      108
REMARK 921   NORMALIZED FREE ENERGY PREDICTED BY IDOCK:   -5.28 KCAL/MOL
REMARK 922        TOTAL FREE ENERGY PREDICTED BY IDOCK:   -8.05 KCAL/MOL
REMARK 923 INTER-LIGAND FREE ENERGY PREDICTED BY IDOCK:   -6.57 KCAL/MOL
REMARK 924 INTRA-LIGAND FREE ENERGY PREDICTED BY IDOCK:   -1.49 KCAL/MOL
REMARK 927      BINDING AFFINITY PREDICTED BY RF-SCORE:    0.00 PKD
ROOT
HETATM    1  C   UNL     1      -7.900  14.454  68.824  1.00  0.00    -0.138 C  
HETATM    2  C   UNL     1      -6.924  14.226  69.940  1.00  0.00     0.041 C  
HETATM    3  O   UNL     1      -5.948  15.260  69.734  1.00  0.00    -0.120 OA 
HETATM    4  C   UNL     1      -5.959  15.653  68.418  1.00  0.00    -0.105 C  
HETATM    5  C   UNL     1      -7.021  14.897  67.674  1.00  0.00    -0.207 C  
HETATM    6  O   UNL     1      -5.129  16.402  67.930  1.00  0.00    -0.103 OA 
HETATM    7  C   UNL     1      -7.847  15.547  66.550  1.00  0.00     0.083 C  
HETATM    8  C   UNL     1      -8.847  13.342  68.413  1.00  0.00    -0.124 C  
HETATM    9  C   UNL     1      -9.155  14.783  66.295  1.00  0.00    -0.231 A  
HETATM   10  C   UNL     1      -9.944  15.134  65.180  1.00  0.00    -0.267 A  
HETATM   11  O   UNL     1     -12.073  14.797  64.037  1.00  0.00    -0.494 OA 
HETATM   12  C   UNL     1     -11.172  14.526  65.020  1.00  0.00    -0.382 A  
HETATM   13  C   UNL     1      -9.625  13.760  67.179  1.00  0.00    -0.244 A  
HETATM   14  C   UNL     1     -11.634  13.576  65.898  1.00  0.00    -0.335 A  
HETATM   15  C   UNL     1     -13.186  13.982  64.457  1.00  0.00     0.901 C  
HETATM   16  O   UNL     1     -12.886  13.145  65.592  1.00  0.00    -0.444 OA 
HETATM   17  C   UNL     1     -10.881  13.157  66.968  1.00  0.00    -0.278 A  
ENDROOT
BRANCH   7  18
HETATM   18  C   UNL     1      -8.033  17.047  66.776  1.00  0.00    -0.274 A  
HETATM   19  O   UNL     1      -9.216  21.053  66.761  1.00  0.00    -0.580 OA 
HETATM   20  C   UNL     1      -7.733  19.346  66.076  1.00  0.00    -0.296 A  
HETATM   21  C   UNL     1      -9.054  17.479  67.635  1.00  0.00    -0.243 A  
HETATM   22  H   UNL     1      -8.780  21.681  66.198  1.00  0.00     0.000 HD 
HETATM   23  C   UNL     1      -7.331  18.013  66.044  1.00  0.00    -0.298 A  
HETATM   24  C   UNL     1      -8.831  19.738  66.861  1.00  0.00    -0.335 A  
HETATM   25  C   UNL     1      -9.472  18.815  67.689  1.00  0.00    -0.300 A  
BRANCH  25  26
HETATM   26  O   UNL     1     -10.498  18.980  68.578  1.00  0.00    -0.316 OA 
HETATM   27  C   UNL     1     -10.271  19.513  69.864  1.00  0.00     0.517 C  
ENDBRANCH  25  26
BRANCH  20  28
HETATM   28  O   UNL     1      -7.144  20.323  65.297  1.00  0.00    -0.305 OA 
HETATM   29  C   UNL     1      -5.805  20.673  65.633  1.00  0.00    -0.217 C  
ENDBRANCH  20  28
ENDBRANCH   7  18
BRANCH   8  30
HETATM   30  O   UNL     1      -8.377  12.010  68.379  1.00  0.00    -0.160 OA 
BRANCH  30  31
HETATM   31  C   UNL     1      -8.470  11.067  69.451  1.00  0.00     0.178 C  
HETATM   32  O   UNL     1      -7.234  10.383  69.700  1.00  0.00    -0.115 OA 
HETATM   33  C   UNL     1      -7.407   9.229  70.537  1.00  0.00    -0.116 C  
HETATM   34  C   UNL     1      -6.090   8.573  70.959  1.00  0.00    -0.037 C  
HETATM   35  O   UNL     1      -6.346   7.366  71.679  1.00  0.00    -0.040 OA 
HETATM   36  C   UNL     1      -7.080   6.432  70.893  1.00  0.00    -0.070 C  
HETATM   37  C   UNL     1      -7.371   5.187  71.719  1.00  0.00    -0.085 C  
HETATM   38  O   UNL     1      -8.347   6.964  70.520  1.00  0.00    -0.125 OA 
HETATM   39  C   UNL     1      -8.219   8.181  69.784  1.00  0.00    -0.122 C  
HETATM   40  C   UNL     1      -9.623   8.726  69.601  1.00  0.00    -0.171 C  
HETATM   41  O   UNL     1     -10.372   7.829  68.765  1.00  0.00    -0.202 OA 
HETATM   42  C   UNL     1      -9.634  10.133  69.000  1.00  0.00    -0.196 C  
HETATM   43  H   UNL     1     -11.252   8.169  68.651  1.00  0.00     0.000 HD 
HETATM   44  O   UNL     1     -10.892  10.786  69.300  1.00  0.00    -0.212 OA 
HETATM   45  H   UNL     1     -11.601  10.217  69.025  1.00  0.00     0.000 HD 
ENDBRANCH  30  31
ENDBRANCH   8  30
TORSDOF 5
ENDMDL
MODEL      109
REMARK 921   NORMALIZED FREE ENERGY PREDICTED BY IDOCK:   -5.26 KCAL/MOL
REMARK 922        TOTAL FREE ENERGY PREDICTED BY IDOCK:   -8.03 KCAL/MOL
REMARK 923 INTER-LIGAND FREE ENERGY PREDICTED BY IDOCK:   -8.14 KCAL/MOL
REMARK 924 INTRA-LIGAND FREE ENERGY PREDICTED BY IDOCK:    0.11 KCAL/MOL
REMARK 927      BINDING AFFINITY PREDICTED BY RF-SCORE:    0.00 PKD
ROOT
HETATM    1  C   UNL     1     -11.239  10.620  68.303  1.00  0.00    -0.362 C  
HETATM    2  C   UNL     1     -11.956  11.931  68.446  1.00  0.00    -0.182 C  
HETATM    3  O   UNL     1     -11.109  12.844  67.729  1.00  0.00    -0.240 OA 
HETATM    4  C   UNL     1      -9.827  12.352  67.685  1.00  0.00    -0.198 C  
HETATM    5  C   UNL     1      -9.778  11.012  68.360  1.00  0.00    -0.181 C  
HETATM    6  O   UNL     1      -8.872  12.990  67.276  1.00  0.00    -0.190 OA 
HETATM    7  C   UNL     1      -8.870   9.878  67.852  1.00  0.00    -0.129 C  
HETATM    8  C   UNL     1     -11.555   9.482  69.255  1.00  0.00     0.329 C  
HETATM    9  C   UNL     1      -9.340   8.506  68.360  1.00  0.00    -0.137 A  
HETATM   10  C   UNL     1      -8.521   7.379  68.140  1.00  0.00    -0.124 A  
HETATM   11  O   UNL     1      -8.360   4.950  68.292  1.00  0.00    -0.092 OA 
HETATM   12  C   UNL     1      -8.999   6.134  68.493  1.00  0.00    -0.115 A  
HETATM   13  C   UNL     1     -10.606   8.325  69.004  1.00  0.00    -0.167 A  
HETATM   14  C   UNL     1     -10.233   5.965  69.072  1.00  0.00    -0.203 A  
HETATM   15  C   UNL     1      -9.375   4.019  68.720  1.00  0.00    -0.163 C  
HETATM   16  O   UNL     1     -10.535   4.658  69.290  1.00  0.00    -0.000 OA 
HETATM   17  C   UNL     1     -11.046   7.034  69.359  1.00  0.00    -0.194 A  
ENDROOT
BRANCH   7  18
HETATM   18  C   UNL     1      -8.665   9.947  66.339  1.00  0.00    -0.144 A  
HETATM   19  O   UNL     1      -7.878  11.019  62.380  1.00  0.00    -0.354 OA 
HETATM   20  C   UNL     1      -9.409  10.607  64.130  1.00  0.00    -0.258 A  
HETATM   21  C   UNL     1      -7.364   9.831  65.827  1.00  0.00    -0.105 A  
HETATM   22  H   UNL     1      -8.579  11.317  61.813  1.00  0.00     0.000 HD 
HETATM   23  C   UNL     1      -9.698  10.276  65.453  1.00  0.00    -0.340 A  
HETATM   24  C   UNL     1      -8.081  10.590  63.668  1.00  0.00    -0.051 A  
HETATM   25  C   UNL     1      -7.050  10.151  64.500  1.00  0.00    -0.119 A  
BRANCH  25  26
HETATM   26  O   UNL     1      -5.716   9.985  64.251  1.00  0.00    -0.097 OA 
HETATM   27  C   UNL     1      -5.221   8.786  63.696  1.00  0.00    -0.061 C  
ENDBRANCH  25  26
BRANCH  20  28
HETATM   28  O   UNL     1     -10.373  11.038  63.240  1.00  0.00    -0.345 OA 
HETATM   29  C   UNL     1     -11.409  11.852  63.779  1.00  0.00    -0.448 C  
ENDBRANCH  20  28
ENDBRANCH   7  18
BRANCH   8  30
HETATM   30  O   UNL     1     -11.778   9.764  70.621  1.00  0.00    -0.272 OA 
BRANCH  30  31
HETATM   31  C   UNL     1     -10.947   9.340  71.706  1.00  0.00    -0.313 C  
HETATM   32  O   UNL     1      -9.601   9.057  71.299  1.00  0.00    -0.260 OA 
HETATM   33  C   UNL     1      -8.868   8.333  72.300  1.00  0.00    -0.209 C  
HETATM   34  C   UNL     1      -7.384   8.161  71.969  1.00  0.00    -0.091 C  
HETATM   35  O   UNL     1      -6.753   7.327  72.944  1.00  0.00    -0.063 OA 
HETATM   36  C   UNL     1      -7.354   6.036  72.998  1.00  0.00    -0.093 C  
HETATM   37  C   UNL     1      -6.682   5.206  74.083  1.00  0.00    -0.075 C  
HETATM   38  O   UNL     1      -8.727   6.128  73.362  1.00  0.00    -0.126 OA 
HETATM   39  C   UNL     1      -9.468   6.940  72.451  1.00  0.00    -0.139 C  
HETATM   40  C   UNL     1     -10.857   7.095  73.042  1.00  0.00    -0.328 C  
HETATM   41  O   UNL     1     -11.509   5.814  73.059  1.00  0.00    -0.452 OA 
HETATM   42  C   UNL     1     -11.711   8.107  72.276  1.00  0.00    -0.379 C  
HETATM   43  H   UNL     1     -12.378   5.911  73.429  1.00  0.00     0.000 HD 
HETATM   44  O   UNL     1     -12.787   8.582  73.122  1.00  0.00    -0.673 OA 
HETATM   45  H   UNL     1     -13.254   7.831  73.469  1.00  0.00     0.000 HD 
ENDBRANCH  30  31
ENDBRANCH   8  30
TORSDOF 5
ENDMDL
MODEL      110
REMARK 921   NORMALIZED FREE ENERGY PREDICTED BY IDOCK:   -5.25 KCAL/MOL
REMARK 922        TOTAL FREE ENERGY PREDICTED BY IDOCK:   -8.02 KCAL/MOL
REMARK 923 INTER-LIGAND FREE ENERGY PREDICTED BY IDOCK:   -7.29 KCAL/MOL
REMARK 924 INTRA-LIGAND FREE ENERGY PREDICTED BY IDOCK:   -0.73 KCAL/MOL
REMARK 927      BINDING AFFINITY PREDICTED BY RF-SCORE:    0.00 PKD
ROOT
HETATM    1  C   UNL     1      -9.644  11.139  65.221  1.00  0.00    -0.268 C  
HETATM    2  C   UNL     1      -9.943  11.413  63.776  1.00  0.00    -0.341 C  
HETATM    3  O   UNL     1     -11.059  12.316  63.842  1.00  0.00    -0.341 OA 
HETATM    4  C   UNL     1     -11.721  12.150  65.034  1.00  0.00    -0.314 C  
HETATM    5  C   UNL     1     -11.013  11.120  65.865  1.00  0.00    -0.171 C  
HETATM    6  O   UNL     1     -12.793  12.673  65.291  1.00  0.00    -0.656 OA 
HETATM    7  C   UNL     1     -10.918  11.235  67.397  1.00  0.00    -0.337 C  
HETATM    8  C   UNL     1      -8.825   9.920  65.601  1.00  0.00    -0.158 C  
HETATM    9  C   UNL     1      -9.769  10.382  67.957  1.00  0.00    -0.166 A  
HETATM   10  C   UNL     1      -9.652  10.228  69.355  1.00  0.00    -0.237 A  
HETATM   11  O   UNL     1      -8.268   9.381  71.175  1.00  0.00    -0.314 OA 
HETATM   12  C   UNL     1      -8.556   9.560  69.858  1.00  0.00    -0.204 A  
HETATM   13  C   UNL     1      -8.784   9.781  67.112  1.00  0.00    -0.137 A  
HETATM   14  C   UNL     1      -7.592   9.023  69.039  1.00  0.00    -0.078 A  
HETATM   15  C   UNL     1      -6.969   8.760  71.087  1.00  0.00    -0.082 C  
HETATM   16  O   UNL     1      -6.570   8.458  69.735  1.00  0.00    -0.038 OA 
HETATM   17  C   UNL     1      -7.686   9.096  67.671  1.00  0.00    -0.089 A  
ENDROOT
BRANCH   7  18
HETATM   18  C   UNL     1     -10.898  12.691  67.858  1.00  0.00    -0.244 A  
HETATM   19  O   UNL     1     -11.522  16.772  68.494  1.00  0.00    -0.198 OA 
HETATM   20  C   UNL     1     -10.287  15.011  67.518  1.00  0.00    -0.241 A  
HETATM   21  C   UNL     1     -11.849  13.116  68.797  1.00  0.00    -0.361 A  
HETATM   22  H   UNL     1     -11.005  17.417  68.026  1.00  0.00     0.000 HD 
HETATM   23  C   UNL     1     -10.071  13.657  67.270  1.00  0.00    -0.239 A  
HETATM   24  C   UNL     1     -11.320  15.418  68.379  1.00  0.00    -0.339 A  
HETATM   25  C   UNL     1     -12.080  14.471  69.068  1.00  0.00    -0.251 A  
BRANCH  25  26
HETATM   26  O   UNL     1     -13.073  14.630  69.995  1.00  0.00    -0.078 OA 
HETATM   27  C   UNL     1     -12.872  15.409  71.153  1.00  0.00    -0.455 C  
ENDBRANCH  25  26
BRANCH  20  28
HETATM   28  O   UNL     1      -9.571  16.009  66.888  1.00  0.00    -0.217 OA 
HETATM   29  C   UNL     1     -10.079  16.455  65.635  1.00  0.00    -0.286 C  
ENDBRANCH  20  28
ENDBRANCH   7  18
BRANCH   8  30
HETATM   30  O   UNL     1      -9.032   8.705  64.911  1.00  0.00    -0.105 OA 
BRANCH  30  31
HETATM   31  C   UNL     1      -8.209   7.539  65.013  1.00  0.00    -0.103 C  
HETATM   32  O   UNL     1      -7.343   7.368  63.883  1.00  0.00    -0.075 OA 
HETATM   33  C   UNL     1      -6.765   6.054  63.830  1.00  0.00    -0.037 C  
HETATM   34  C   UNL     1      -5.710   5.890  62.735  1.00  0.00    -0.018 C  
HETATM   35  O   UNL     1      -5.276   4.530  62.663  1.00  0.00    -0.009 OA 
HETATM   36  C   UNL     1      -6.359   3.649  62.378  1.00  0.00    -0.021 C  
HETATM   37  C   UNL     1      -5.858   2.212  62.362  1.00  0.00    -0.008 C  
HETATM   38  O   UNL     1      -7.350   3.712  63.398  1.00  0.00    -0.049 OA 
HETATM   39  C   UNL     1      -7.866   5.034  63.561  1.00  0.00    -0.081 C  
HETATM   40  C   UNL     1      -8.772   4.997  64.778  1.00  0.00    -0.149 C  
HETATM   41  O   UNL     1      -9.904   4.157  64.498  1.00  0.00    -0.170 OA 
HETATM   42  C   UNL     1      -9.245   6.389  65.199  1.00  0.00     0.533 C  
HETATM   43  H   UNL     1     -10.471   4.133  65.259  1.00  0.00     0.000 HD 
HETATM   44  O   UNL     1      -9.665   6.367  66.586  1.00  0.00    -0.156 OA 
HETATM   45  H   UNL     1     -10.297   5.666  66.699  1.00  0.00     0.000 HD 
ENDBRANCH  30  31
ENDBRANCH   8  30
TORSDOF 5
ENDMDL
MODEL      111
REMARK 921   NORMALIZED FREE ENERGY PREDICTED BY IDOCK:   -5.22 KCAL/MOL
REMARK 922        TOTAL FREE ENERGY PREDICTED BY IDOCK:   -7.98 KCAL/MOL
REMARK 923 INTER-LIGAND FREE ENERGY PREDICTED BY IDOCK:   -7.37 KCAL/MOL
REMARK 924 INTRA-LIGAND FREE ENERGY PREDICTED BY IDOCK:   -0.61 KCAL/MOL
REMARK 927      BINDING AFFINITY PREDICTED BY RF-SCORE:    0.00 PKD
ROOT
HETATM    1  C   UNL     1      -9.209  13.085  68.478  1.00  0.00    -0.062 C  
HETATM    2  C   UNL     1      -8.118  12.391  67.716  1.00  0.00    -0.162 C  
HETATM    3  O   UNL     1      -7.650  13.411  66.819  1.00  0.00     0.257 OA 
HETATM    4  C   UNL     1      -8.641  14.341  66.615  1.00  0.00     0.015 C  
HETATM    5  C   UNL     1      -9.843  13.986  67.441  1.00  0.00    -0.240 C  
HETATM    6  O   UNL     1      -8.575  15.228  65.781  1.00  0.00     0.281 OA 
HETATM    7  C   UNL     1     -10.728  15.063  68.095  1.00  0.00    -0.256 C  
HETATM    8  C   UNL     1     -10.246  12.264  69.222  1.00  0.00     0.355 C  
HETATM    9  C   UNL     1     -11.556  14.487  69.254  1.00  0.00    -0.339 A  
HETATM   10  C   UNL     1     -12.553  15.291  69.846  1.00  0.00    -0.213 A  
HETATM   11  O   UNL     1     -14.152  15.488  71.677  1.00  0.00    -0.488 OA 
HETATM   12  C   UNL     1     -13.214  14.814  70.959  1.00  0.00    -0.380 A  
HETATM   13  C   UNL     1     -11.316  13.181  69.787  1.00  0.00    -0.120 A  
HETATM   14  C   UNL     1     -12.946  13.575  71.489  1.00  0.00    -0.355 A  
HETATM   15  C   UNL     1     -14.367  14.571  72.769  1.00  0.00     0.409 C  
HETATM   16  O   UNL     1     -13.664  13.322  72.614  1.00  0.00    -0.674 OA 
HETATM   17  C   UNL     1     -12.025  12.731  70.918  1.00  0.00     0.049 A  
ENDROOT
BRANCH   7  18
HETATM   18  C   UNL     1      -9.928  16.313  68.459  1.00  0.00    -0.234 A  
HETATM   19  O   UNL     1      -7.524  19.727  68.553  1.00  0.00    -0.326 OA 
HETATM   20  C   UNL     1      -7.823  17.416  68.932  1.00  0.00    -0.196 A  
HETATM   21  C   UNL     1     -10.491  17.572  68.209  1.00  0.00    -0.383 A  
HETATM   22  H   UNL     1      -6.602  19.661  68.769  1.00  0.00     0.000 HD 
HETATM   23  C   UNL     1      -8.596  16.256  68.889  1.00  0.00    -0.260 A  
HETATM   24  C   UNL     1      -8.381  18.654  68.570  1.00  0.00    -0.340 A  
HETATM   25  C   UNL     1      -9.737  18.752  68.253  1.00  0.00    -0.362 A  
BRANCH  25  26
HETATM   26  O   UNL     1     -10.501  19.843  67.943  1.00  0.00    -0.413 OA 
HETATM   27  C   UNL     1     -10.606  20.308  66.616  1.00  0.00    -0.086 C  
ENDBRANCH  25  26
BRANCH  20  28
HETATM   28  O   UNL     1      -6.479  17.406  69.249  1.00  0.00    -0.228 OA 
HETATM   29  C   UNL     1      -5.605  16.862  68.266  1.00  0.00    -0.122 C  
ENDBRANCH  20  28
ENDBRANCH   7  18
BRANCH   8  30
HETATM   30  O   UNL     1     -10.745  11.082  68.633  1.00  0.00    -0.175 OA 
BRANCH  30  31
HETATM   31  C   UNL     1     -10.032   9.847  68.512  1.00  0.00    -0.159 C  
HETATM   32  O   UNL     1      -9.938   9.390  67.156  1.00  0.00    -0.177 OA 
HETATM   33  C   UNL     1      -9.520   8.018  67.069  1.00  0.00    -0.174 C  
HETATM   34  C   UNL     1      -9.248   7.549  65.638  1.00  0.00     0.197 C  
HETATM   35  O   UNL     1      -8.961   6.149  65.622  1.00  0.00    -0.134 OA 
HETATM   36  C   UNL     1     -10.044   5.386  66.148  1.00  0.00    -0.135 C  
HETATM   37  C   UNL     1      -9.671   3.910  66.157  1.00  0.00    -0.173 C  
HETATM   38  O   UNL     1     -10.305   5.737  67.502  1.00  0.00    -0.176 OA 
HETATM   39  C   UNL     1     -10.611   7.124  67.645  1.00  0.00    -0.248 C  
HETATM   40  C   UNL     1     -10.697   7.397  69.135  1.00  0.00    -0.166 C  
HETATM   41  O   UNL     1     -11.816   6.681  69.683  1.00  0.00    -0.649 OA 
HETATM   42  C   UNL     1     -10.823   8.888  69.452  1.00  0.00    -0.119 C  
HETATM   43  H   UNL     1     -11.869   6.851  70.615  1.00  0.00     0.000 HD 
HETATM   44  O   UNL     1     -10.409   9.137  70.818  1.00  0.00    -0.217 OA 
HETATM   45  H   UNL     1     -10.891   8.552  71.392  1.00  0.00     0.000 HD 
ENDBRANCH  30  31
ENDBRANCH   8  30
TORSDOF 5
ENDMDL
MODEL      112
REMARK 921   NORMALIZED FREE ENERGY PREDICTED BY IDOCK:   -5.20 KCAL/MOL
REMARK 922        TOTAL FREE ENERGY PREDICTED BY IDOCK:   -7.95 KCAL/MOL
REMARK 923 INTER-LIGAND FREE ENERGY PREDICTED BY IDOCK:   -6.32 KCAL/MOL
REMARK 924 INTRA-LIGAND FREE ENERGY PREDICTED BY IDOCK:   -1.63 KCAL/MOL
REMARK 927      BINDING AFFINITY PREDICTED BY RF-SCORE:    0.00 PKD
ROOT
HETATM    1  C   UNL     1     -10.137   8.463  69.919  1.00  0.00    -0.195 C  
HETATM    2  C   UNL     1     -10.645   9.763  70.470  1.00  0.00    -0.312 C  
HETATM    3  O   UNL     1     -11.453   9.349  71.584  1.00  0.00    -0.369 OA 
HETATM    4  C   UNL     1     -11.875   8.055  71.396  1.00  0.00    -0.295 C  
HETATM    5  C   UNL     1     -11.302   7.518  70.118  1.00  0.00    -0.170 C  
HETATM    6  O   UNL     1     -12.700   7.504  72.106  1.00  0.00    -0.240 OA 
HETATM    7  C   UNL     1     -10.868   6.048  69.974  1.00  0.00    -0.429 C  
HETATM    8  C   UNL     1      -9.600   8.405  68.501  1.00  0.00    -0.149 C  
HETATM    9  C   UNL     1      -9.888   5.859  68.806  1.00  0.00    -0.177 A  
HETATM   10  C   UNL     1      -9.530   4.550  68.420  1.00  0.00    -0.209 A  
HETATM   11  O   UNL     1      -8.068   3.198  67.012  1.00  0.00    -0.078 OA 
HETATM   12  C   UNL     1      -8.564   4.387  67.450  1.00  0.00    -0.104 A  
HETATM   13  C   UNL     1      -9.286   6.967  68.130  1.00  0.00    -0.125 A  
HETATM   14  C   UNL     1      -7.961   5.458  66.836  1.00  0.00    -0.101 A  
HETATM   15  C   UNL     1      -7.020   3.650  66.131  1.00  0.00    -0.062 C  
HETATM   16  O   UNL     1      -6.999   5.081  65.953  1.00  0.00    -0.063 OA 
HETATM   17  C   UNL     1      -8.312   6.751  67.135  1.00  0.00    -0.121 A  
ENDROOT
BRANCH   7  18
HETATM   18  C   UNL     1     -10.379   5.468  71.301  1.00  0.00    -0.297 A  
HETATM   19  O   UNL     1      -8.594   3.281  74.379  1.00  0.00    -0.078 OA 
HETATM   20  C   UNL     1     -10.470   3.779  73.034  1.00  0.00    -0.174 A  
HETATM   21  C   UNL     1      -9.104   5.824  71.765  1.00  0.00    -0.150 A  
HETATM   22  H   UNL     1      -9.056   2.559  74.787  1.00  0.00     0.000 HD 
HETATM   23  C   UNL     1     -11.083   4.477  71.996  1.00  0.00     0.303 A  
HETATM   24  C   UNL     1      -9.150   4.080  73.410  1.00  0.00    -0.102 A  
HETATM   25  C   UNL     1      -8.470   5.142  72.811  1.00  0.00    -0.113 A  
BRANCH  25  26
HETATM   26  O   UNL     1      -7.227   5.655  73.059  1.00  0.00    -0.087 OA 
HETATM   27  C   UNL     1      -6.078   4.838  73.016  1.00  0.00    -0.022 C  
ENDBRANCH  25  26
BRANCH  20  28
HETATM   28  O   UNL     1     -11.079   2.724  73.687  1.00  0.00    -0.201 OA 
HETATM   29  C   UNL     1     -11.272   1.538  72.923  1.00  0.00    -0.111 C  
ENDBRANCH  20  28
ENDBRANCH   7  18
BRANCH   8  30
HETATM   30  O   UNL     1     -10.249   9.140  67.485  1.00  0.00    -0.212 OA 
BRANCH  30  31
HETATM   31  C   UNL     1      -9.808  10.391  66.950  1.00  0.00    -0.191 C  
HETATM   32  O   UNL     1      -8.762  10.991  67.726  1.00  0.00    -0.127 OA 
HETATM   33  C   UNL     1      -8.550  12.370  67.384  1.00  0.00    -0.181 C  
HETATM   34  C   UNL     1      -7.334  12.993  68.073  1.00  0.00    -0.123 C  
HETATM   35  O   UNL     1      -7.263  14.391  67.784  1.00  0.00    -0.140 OA 
HETATM   36  C   UNL     1      -8.430  15.077  68.226  1.00  0.00    -0.147 C  
HETATM   37  C   UNL     1      -8.329  16.550  67.851  1.00  0.00    -0.175 C  
HETATM   38  O   UNL     1      -9.593  14.581  67.571  1.00  0.00    -0.206 OA 
HETATM   39  C   UNL     1      -9.773  13.182  67.793  1.00  0.00    -0.218 C  
HETATM   40  C   UNL     1     -10.931  12.751  66.912  1.00  0.00    -0.260 C  
HETATM   41  O   UNL     1     -12.135  13.388  67.371  1.00  0.00    -0.355 OA 
HETATM   42  C   UNL     1     -11.119  11.233  66.890  1.00  0.00    -0.275 C  
HETATM   43  H   UNL     1     -12.860  13.119  66.820  1.00  0.00     0.000 HD 
HETATM   44  O   UNL     1     -11.861  10.846  65.708  1.00  0.00     0.522 OA 
HETATM   45  H   UNL     1     -12.661  11.359  65.671  1.00  0.00     0.000 HD 
ENDBRANCH  30  31
ENDBRANCH   8  30
TORSDOF 5
ENDMDL
MODEL      113
REMARK 921   NORMALIZED FREE ENERGY PREDICTED BY IDOCK:   -5.17 KCAL/MOL
REMARK 922        TOTAL FREE ENERGY PREDICTED BY IDOCK:   -7.91 KCAL/MOL
REMARK 923 INTER-LIGAND FREE ENERGY PREDICTED BY IDOCK:   -7.32 KCAL/MOL
REMARK 924 INTRA-LIGAND FREE ENERGY PREDICTED BY IDOCK:   -0.59 KCAL/MOL
REMARK 927      BINDING AFFINITY PREDICTED BY RF-SCORE:    0.00 PKD
ROOT
HETATM    1  C   UNL     1      -8.051   8.444  69.585  1.00  0.00    -0.115 C  
HETATM    2  C   UNL     1      -7.571   9.591  70.426  1.00  0.00    -0.159 C  
HETATM    3  O   UNL     1      -8.108   9.289  71.724  1.00  0.00    -0.295 OA 
HETATM    4  C   UNL     1      -9.206   8.475  71.594  1.00  0.00    -0.236 C  
HETATM    5  C   UNL     1      -9.426   8.151  70.145  1.00  0.00    -0.167 C  
HETATM    6  O   UNL     1      -9.949   8.189  72.518  1.00  0.00    -0.248 OA 
HETATM    7  C   UNL     1      -9.939   6.773  69.687  1.00  0.00    -0.184 C  
HETATM    8  C   UNL     1      -8.074   8.577  68.074  1.00  0.00    -0.115 C  
HETATM    9  C   UNL     1      -9.617   6.513  68.208  1.00  0.00    -0.131 A  
HETATM   10  C   UNL     1     -10.171   5.379  67.578  1.00  0.00    -0.243 A  
HETATM   11  O   UNL     1     -10.182   4.001  65.565  1.00  0.00    -0.173 OA 
HETATM   12  C   UNL     1      -9.787   5.085  66.286  1.00  0.00    -0.200 A  
HETATM   13  C   UNL     1      -8.731   7.353  67.462  1.00  0.00    -0.124 A  
HETATM   14  C   UNL     1      -8.903   5.875  65.592  1.00  0.00    -0.118 A  
HETATM   15  C   UNL     1      -9.370   4.151  64.383  1.00  0.00    -0.160 C  
HETATM   16  O   UNL     1      -8.616   5.380  64.360  1.00  0.00    -0.132 OA 
HETATM   17  C   UNL     1      -8.377   7.019  66.139  1.00  0.00    -0.130 A  
ENDROOT
BRANCH   7  18
HETATM   18  C   UNL     1      -9.492   5.658  70.631  1.00  0.00    -0.203 A  
HETATM   19  O   UNL     1      -8.217   3.295  73.831  1.00  0.00    -0.073 OA 
HETATM   20  C   UNL     1      -7.756   4.474  71.837  1.00  0.00    -0.092 A  
HETATM   21  C   UNL     1     -10.434   5.092  71.502  1.00  0.00    -0.225 A  
HETATM   22  H   UNL     1      -7.293   3.115  73.958  1.00  0.00     0.000 HD 
HETATM   23  C   UNL     1      -8.150   5.282  70.772  1.00  0.00    -0.106 A  
HETATM   24  C   UNL     1      -8.705   4.007  72.763  1.00  0.00    -0.099 A  
HETATM   25  C   UNL     1     -10.063   4.271  72.575  1.00  0.00    -0.172 A  
BRANCH  25  26
HETATM   26  O   UNL     1     -11.155   3.868  73.294  1.00  0.00    -0.208 OA 
HETATM   27  C   UNL     1     -11.398   2.502  73.549  1.00  0.00    -0.190 C  
ENDBRANCH  25  26
BRANCH  20  28
HETATM   28  O   UNL     1      -6.435   4.156  72.084  1.00  0.00    -0.020 OA 
HETATM   29  C   UNL     1      -5.672   3.720  70.964  1.00  0.00    -0.013 C  
ENDBRANCH  20  28
ENDBRANCH   7  18
BRANCH   8  30
HETATM   30  O   UNL     1      -8.472   9.801  67.493  1.00  0.00    -0.121 OA 
BRANCH  30  31
HETATM   31  C   UNL     1      -8.722  11.018  68.203  1.00  0.00    -0.141 C  
HETATM   32  O   UNL     1     -10.054  11.511  68.014  1.00  0.00    -0.177 OA 
HETATM   33  C   UNL     1     -10.203  12.871  68.449  1.00  0.00    -0.237 C  
HETATM   34  C   UNL     1     -11.647  13.373  68.416  1.00  0.00    -0.332 C  
HETATM   35  O   UNL     1     -11.697  14.764  68.741  1.00  0.00    -0.302 OA 
HETATM   36  C   UNL     1     -10.930  15.543  67.826  1.00  0.00    -0.317 C  
HETATM   37  C   UNL     1     -10.971  17.007  68.243  1.00  0.00    -0.269 C  
HETATM   38  O   UNL     1      -9.558  15.162  67.857  1.00  0.00    -0.201 OA 
HETATM   39  C   UNL     1      -9.381  13.780  67.542  1.00  0.00    -0.222 C  
HETATM   40  C   UNL     1      -7.915  13.468  67.777  1.00  0.00    -0.168 C  
HETATM   41  O   UNL     1      -7.119  14.200  66.831  1.00  0.00    -0.319 OA 
HETATM   42  C   UNL     1      -7.609  11.973  67.672  1.00  0.00    -0.136 C  
HETATM   43  H   UNL     1      -6.201  14.005  66.978  1.00  0.00     0.000 HD 
HETATM   44  O   UNL     1      -6.374  11.673  68.367  1.00  0.00    -0.049 OA 
HETATM   45  H   UNL     1      -5.696  12.255  68.043  1.00  0.00     0.000 HD 
ENDBRANCH  30  31
ENDBRANCH   8  30
TORSDOF 5
ENDMDL
MODEL      114
REMARK 921   NORMALIZED FREE ENERGY PREDICTED BY IDOCK:   -5.16 KCAL/MOL
REMARK 922        TOTAL FREE ENERGY PREDICTED BY IDOCK:   -7.90 KCAL/MOL
REMARK 923 INTER-LIGAND FREE ENERGY PREDICTED BY IDOCK:   -8.28 KCAL/MOL
REMARK 924 INTRA-LIGAND FREE ENERGY PREDICTED BY IDOCK:    0.39 KCAL/MOL
REMARK 927      BINDING AFFINITY PREDICTED BY RF-SCORE:    0.00 PKD
ROOT
HETATM    1  C   UNL     1     -10.175  12.088  68.281  1.00  0.00    -0.207 C  
HETATM    2  C   UNL     1     -10.785  13.163  69.132  1.00  0.00    -0.030 C  
HETATM    3  O   UNL     1     -11.808  12.461  69.857  1.00  0.00    -0.322 OA 
HETATM    4  C   UNL     1     -12.184  11.339  69.161  1.00  0.00    -0.183 C  
HETATM    5  C   UNL     1     -11.358  11.218  67.914  1.00  0.00    -0.367 C  
HETATM    6  O   UNL     1     -13.139  10.643  69.464  1.00  0.00     0.001 OA 
HETATM    7  C   UNL     1     -10.906   9.853  67.365  1.00  0.00    -0.293 C  
HETATM    8  C   UNL     1      -9.355  12.467  67.062  1.00  0.00    -0.210 C  
HETATM    9  C   UNL     1      -9.705   9.993  66.418  1.00  0.00    -0.266 A  
HETATM   10  C   UNL     1      -9.277   8.866  65.686  1.00  0.00    -0.268 A  
HETATM   11  O   UNL     1      -7.555   7.958  64.216  1.00  0.00    -0.102 OA 
HETATM   12  C   UNL     1      -8.130   8.966  64.927  1.00  0.00    -0.144 A  
HETATM   13  C   UNL     1      -8.973  11.217  66.291  1.00  0.00    -0.202 A  
HETATM   14  C   UNL     1      -7.410  10.133  64.845  1.00  0.00    -0.136 A  
HETATM   15  C   UNL     1      -6.346   8.600  63.764  1.00  0.00    -0.076 C  
HETATM   16  O   UNL     1      -6.286  10.003  64.092  1.00  0.00    -0.120 OA 
HETATM   17  C   UNL     1      -7.814  11.275  65.493  1.00  0.00     0.343 A  
ENDROOT
BRANCH   7  18
HETATM   18  C   UNL     1     -10.705   8.830  68.482  1.00  0.00    -0.108 A  
HETATM   19  O   UNL     1     -11.065   5.890  71.427  1.00  0.00    -0.276 OA 
HETATM   20  C   UNL     1     -10.904   8.162  70.802  1.00  0.00    -0.228 A  
HETATM   21  C   UNL     1     -10.565   7.476  68.141  1.00  0.00    -0.201 A  
HETATM   22  H   UNL     1     -11.215   6.132  72.333  1.00  0.00     0.000 HD 
HETATM   23  C   UNL     1     -10.809   9.164  69.838  1.00  0.00    -0.242 A  
HETATM   24  C   UNL     1     -10.872   6.808  70.424  1.00  0.00    -0.262 A  
HETATM   25  C   UNL     1     -10.650   6.452  69.093  1.00  0.00    -0.255 A  
BRANCH  25  26
HETATM   26  O   UNL     1     -10.512   5.221  68.513  1.00  0.00    -0.157 OA 
HETATM   27  C   UNL     1     -10.669   5.048  67.122  1.00  0.00     0.095 C  
ENDBRANCH  25  26
BRANCH  20  28
HETATM   28  O   UNL     1     -11.110   8.431  72.141  1.00  0.00    -0.297 OA 
HETATM   29  C   UNL     1     -12.427   8.828  72.508  1.00  0.00    -0.298 C  
ENDBRANCH  20  28
ENDBRANCH   7  18
BRANCH   8  30
HETATM   30  O   UNL     1      -9.777  13.543  66.252  1.00  0.00    -0.285 OA 
BRANCH  30  31
HETATM   31  C   UNL     1      -9.059  14.764  66.047  1.00  0.00    -0.026 C  
HETATM   32  O   UNL     1      -8.088  15.018  67.071  1.00  0.00    -0.204 OA 
HETATM   33  C   UNL     1      -7.607  16.371  67.045  1.00  0.00    -0.205 C  
HETATM   34  C   UNL     1      -6.451  16.630  68.014  1.00  0.00    -0.133 C  
HETATM   35  O   UNL     1      -6.114  18.019  68.022  1.00  0.00    -0.164 OA 
HETATM   36  C   UNL     1      -7.221  18.825  68.417  1.00  0.00    -0.280 C  
HETATM   37  C   UNL     1      -6.828  20.295  68.361  1.00  0.00    -0.294 C  
HETATM   38  O   UNL     1      -8.311  18.672  67.514  1.00  0.00    -0.261 OA 
HETATM   39  C   UNL     1      -8.743  17.314  67.424  1.00  0.00    -0.206 C  
HETATM   40  C   UNL     1      -9.778  17.263  66.316  1.00  0.00    -0.266 C  
HETATM   41  O   UNL     1     -10.931  18.024  66.711  1.00  0.00    -0.120 OA 
HETATM   42  C   UNL     1     -10.192  15.832  65.965  1.00  0.00    -0.333 C  
HETATM   43  H   UNL     1     -11.579  17.993  66.018  1.00  0.00     0.000 HD 
HETATM   44  O   UNL     1     -10.763  15.798  64.634  1.00  0.00    -0.699 OA 
HETATM   45  H   UNL     1     -11.453  16.449  64.584  1.00  0.00     0.000 HD 
ENDBRANCH  30  31
ENDBRANCH   8  30
TORSDOF 5
ENDMDL
MODEL      115
REMARK 921   NORMALIZED FREE ENERGY PREDICTED BY IDOCK:   -5.15 KCAL/MOL
REMARK 922        TOTAL FREE ENERGY PREDICTED BY IDOCK:   -7.89 KCAL/MOL
REMARK 923 INTER-LIGAND FREE ENERGY PREDICTED BY IDOCK:   -6.34 KCAL/MOL
REMARK 924 INTRA-LIGAND FREE ENERGY PREDICTED BY IDOCK:   -1.54 KCAL/MOL
REMARK 927      BINDING AFFINITY PREDICTED BY RF-SCORE:    0.00 PKD
ROOT
HETATM    1  C   UNL     1      -9.318   9.881  69.035  1.00  0.00    -0.175 C  
HETATM    2  C   UNL     1      -8.572  10.908  68.234  1.00  0.00    -0.139 C  
HETATM    3  O   UNL     1      -7.202  10.505  68.387  1.00  0.00    -0.076 OA 
HETATM    4  C   UNL     1      -7.059   9.770  69.538  1.00  0.00    -0.075 C  
HETATM    5  C   UNL     1      -8.395   9.607  70.202  1.00  0.00    -0.221 C  
HETATM    6  O   UNL     1      -5.979   9.433  69.996  1.00  0.00    -0.034 OA 
HETATM    7  C   UNL     1      -8.786   8.314  70.940  1.00  0.00    -0.163 C  
HETATM    8  C   UNL     1     -10.736  10.168  69.492  1.00  0.00    -0.249 C  
HETATM    9  C   UNL     1     -10.309   8.188  71.091  1.00  0.00    -0.237 A  
HETATM   10  C   UNL     1     -10.832   7.156  71.899  1.00  0.00    -0.255 A  
HETATM   11  O   UNL     1     -12.852   5.993  72.618  1.00  0.00     0.137 OA 
HETATM   12  C   UNL     1     -12.198   6.974  71.939  1.00  0.00    -0.327 A  
HETATM   13  C   UNL     1     -11.218   9.050  70.399  1.00  0.00    -0.275 A  
HETATM   14  C   UNL     1     -13.061   7.781  71.238  1.00  0.00    -0.206 A  
HETATM   15  C   UNL     1     -14.208   6.217  72.181  1.00  0.00     0.476 C  
HETATM   16  O   UNL     1     -14.359   7.399  71.369  1.00  0.00    -0.445 OA 
HETATM   17  C   UNL     1     -12.608   8.834  70.481  1.00  0.00     0.429 A  
ENDROOT
BRANCH   7  18
HETATM   18  C   UNL     1      -8.114   7.085  70.327  1.00  0.00    -0.119 A  
HETATM   19  O   UNL     1      -5.679   4.350  68.320  1.00  0.00    -0.019 OA 
HETATM   20  C   UNL     1      -7.644   5.655  68.430  1.00  0.00    -0.081 A  
HETATM   21  C   UNL     1      -7.003   6.528  70.977  1.00  0.00    -0.068 A  
HETATM   22  H   UNL     1      -5.887   4.080  67.433  1.00  0.00     0.000 HD 
HETATM   23  C   UNL     1      -8.464   6.585  69.067  1.00  0.00    -0.125 A  
HETATM   24  C   UNL     1      -6.474   5.193  69.057  1.00  0.00    -0.036 A  
HETATM   25  C   UNL     1      -6.169   5.588  70.360  1.00  0.00    -0.026 A  
BRANCH  25  26
HETATM   26  O   UNL     1      -5.141   5.219  71.183  1.00  0.00    -0.004 OA 
HETATM   27  C   UNL     1      -5.274   5.273  72.586  1.00  0.00    -0.016 C  
ENDBRANCH  25  26
BRANCH  20  28
HETATM   28  O   UNL     1      -7.884   5.204  67.147  1.00  0.00    -0.095 OA 
HETATM   29  C   UNL     1      -9.187   4.689  66.893  1.00  0.00    -0.127 C  
ENDBRANCH  20  28
ENDBRANCH   7  18
BRANCH   8  30
HETATM   30  O   UNL     1     -11.069  11.464  69.941  1.00  0.00    -0.193 OA 
BRANCH  30  31
HETATM   31  C   UNL     1     -11.702  12.480  69.157  1.00  0.00    -0.321 C  
HETATM   32  O   UNL     1     -11.686  12.191  67.753  1.00  0.00    -0.356 OA 
HETATM   33  C   UNL     1     -12.020  13.337  66.954  1.00  0.00    -0.375 C  
HETATM   34  C   UNL     1     -12.175  13.024  65.464  1.00  0.00    -0.469 C  
HETATM   35  O   UNL     1     -12.382  14.228  64.723  1.00  0.00    -0.450 OA 
HETATM   36  C   UNL     1     -11.293  15.134  64.881  1.00  0.00    -0.399 C  
HETATM   37  C   UNL     1     -11.582  16.418  64.117  1.00  0.00     0.351 C  
HETATM   38  O   UNL     1     -11.137  15.512  66.245  1.00  0.00    -0.286 OA 
HETATM   39  C   UNL     1     -10.919  14.381  67.090  1.00  0.00    -0.303 C  
HETATM   40  C   UNL     1     -10.942  14.898  68.516  1.00  0.00    -0.255 C  
HETATM   41  O   UNL     1      -9.821  15.774  68.720  1.00  0.00    -0.199 OA 
HETATM   42  C   UNL     1     -10.919  13.770  69.550  1.00  0.00    -0.031 C  
HETATM   43  H   UNL     1      -9.836  16.098  69.613  1.00  0.00     0.000 HD 
HETATM   44  O   UNL     1     -11.432  14.252  70.816  1.00  0.00    -0.505 OA 
HETATM   45  H   UNL     1     -10.955  15.039  71.056  1.00  0.00     0.000 HD 
ENDBRANCH  30  31
ENDBRANCH   8  30
TORSDOF 5
ENDMDL
MODEL      116
REMARK 921   NORMALIZED FREE ENERGY PREDICTED BY IDOCK:   -5.13 KCAL/MOL
REMARK 922        TOTAL FREE ENERGY PREDICTED BY IDOCK:   -7.86 KCAL/MOL
REMARK 923 INTER-LIGAND FREE ENERGY PREDICTED BY IDOCK:   -6.91 KCAL/MOL
REMARK 924 INTRA-LIGAND FREE ENERGY PREDICTED BY IDOCK:   -0.95 KCAL/MOL
REMARK 927      BINDING AFFINITY PREDICTED BY RF-SCORE:    0.00 PKD
ROOT
HETATM    1  C   UNL     1      -7.713   9.461  67.586  1.00  0.00    -0.088 C  
HETATM    2  C   UNL     1      -6.430   9.140  66.876  1.00  0.00    -0.067 C  
HETATM    3  O   UNL     1      -6.587   9.801  65.610  1.00  0.00    -0.078 OA 
HETATM    4  C   UNL     1      -7.922   9.966  65.334  1.00  0.00    -0.134 C  
HETATM    5  C   UNL     1      -8.742   9.442  66.477  1.00  0.00    -0.148 C  
HETATM    6  O   UNL     1      -8.347  10.355  64.259  1.00  0.00    -0.165 OA 
HETATM    7  C   UNL     1     -10.055  10.117  66.913  1.00  0.00    -0.279 C  
HETATM    8  C   UNL     1      -8.147   8.621  68.772  1.00  0.00    -0.116 C  
HETATM    9  C   UNL     1     -10.437   9.734  68.351  1.00  0.00    -0.250 A  
HETATM   10  C   UNL     1     -11.701  10.118  68.847  1.00  0.00     0.036 A  
HETATM   11  O   UNL     1     -13.137  10.235  70.815  1.00  0.00    -0.381 OA 
HETATM   12  C   UNL     1     -11.993   9.874  70.173  1.00  0.00    -0.077 A  
HETATM   13  C   UNL     1      -9.533   9.046  69.222  1.00  0.00    -0.157 A  
HETATM   14  C   UNL     1     -11.102   9.250  71.012  1.00  0.00    -0.326 A  
HETATM   15  C   UNL     1     -12.819   9.856  72.169  1.00  0.00    -0.345 C  
HETATM   16  O   UNL     1     -11.562   9.158  72.288  1.00  0.00    -0.293 OA 
HETATM   17  C   UNL     1      -9.881   8.807  70.566  1.00  0.00    -0.224 A  
ENDROOT
BRANCH   7  18
HETATM   18  C   UNL     1     -10.035  11.622  66.651  1.00  0.00    -0.230 A  
HETATM   19  O   UNL     1     -10.489  15.774  66.711  1.00  0.00    -0.295 OA 
HETATM   20  C   UNL     1     -11.111  13.652  65.882  1.00  0.00    -0.284 A  
HETATM   21  C   UNL     1      -9.115  12.418  67.351  1.00  0.00    -0.183 A  
HETATM   22  H   UNL     1     -11.197  16.188  66.232  1.00  0.00     0.000 HD 
HETATM   23  C   UNL     1     -10.997  12.263  65.860  1.00  0.00    -0.338 A  
HETATM   24  C   UNL     1     -10.246  14.423  66.678  1.00  0.00    -0.277 A  
HETATM   25  C   UNL     1      -9.206  13.815  67.382  1.00  0.00    -0.221 A  
BRANCH  25  26
HETATM   26  O   UNL     1      -8.215  14.360  68.152  1.00  0.00    -0.133 OA 
HETATM   27  C   UNL     1      -6.882  14.415  67.695  1.00  0.00    -0.182 C  
ENDBRANCH  25  26
BRANCH  20  28
HETATM   28  O   UNL     1     -12.104  14.330  65.203  1.00  0.00    -0.379 OA 
HETATM   29  C   UNL     1     -12.380  13.884  63.879  1.00  0.00    -0.272 C  
ENDBRANCH  20  28
ENDBRANCH   7  18
BRANCH   8  30
HETATM   30  O   UNL     1      -7.951   7.223  68.738  1.00  0.00    -0.119 OA 
BRANCH  30  31
HETATM   31  C   UNL     1      -7.524   6.469  67.599  1.00  0.00    -0.097 C  
HETATM   32  O   UNL     1      -8.594   6.178  66.691  1.00  0.00    -0.113 OA 
HETATM   33  C   UNL     1      -8.241   5.165  65.735  1.00  0.00    -0.117 C  
HETATM   34  C   UNL     1      -9.297   4.950  64.650  1.00  0.00     0.029 C  
HETATM   35  O   UNL     1      -8.934   3.847  63.817  1.00  0.00    -0.106 OA 
HETATM   36  C   UNL     1      -8.809   2.642  64.567  1.00  0.00    -0.112 C  
HETATM   37  C   UNL     1      -8.371   1.511  63.647  1.00  0.00    -0.069 C  
HETATM   38  O   UNL     1      -7.793   2.761  65.558  1.00  0.00    -0.077 OA 
HETATM   39  C   UNL     1      -8.051   3.838  66.460  1.00  0.00    -0.096 C  
HETATM   40  C   UNL     1      -6.825   3.963  67.345  1.00  0.00    -0.054 C  
HETATM   41  O   UNL     1      -6.705   2.782  68.155  1.00  0.00    -0.036 OA 
HETATM   42  C   UNL     1      -6.869   5.206  68.236  1.00  0.00    -0.056 C  
HETATM   43  H   UNL     1      -5.937   2.859  68.708  1.00  0.00     0.000 HD 
HETATM   44  O   UNL     1      -5.529   5.549  68.668  1.00  0.00    -0.006 OA 
HETATM   45  H   UNL     1      -5.130   4.778  69.057  1.00  0.00     0.000 HD 
ENDBRANCH  30  31
ENDBRANCH   8  30
TORSDOF 5
ENDMDL
MODEL      117
REMARK 921   NORMALIZED FREE ENERGY PREDICTED BY IDOCK:   -5.12 KCAL/MOL
REMARK 922        TOTAL FREE ENERGY PREDICTED BY IDOCK:   -7.85 KCAL/MOL
REMARK 923 INTER-LIGAND FREE ENERGY PREDICTED BY IDOCK:   -7.68 KCAL/MOL
REMARK 924 INTRA-LIGAND FREE ENERGY PREDICTED BY IDOCK:   -0.17 KCAL/MOL
REMARK 927      BINDING AFFINITY PREDICTED BY RF-SCORE:    0.00 PKD
ROOT
HETATM    1  C   UNL     1      -8.942   9.913  67.189  1.00  0.00    -0.150 C  
HETATM    2  C   UNL     1      -7.928   9.692  66.105  1.00  0.00    -0.108 C  
HETATM    3  O   UNL     1      -8.092  10.848  65.267  1.00  0.00    -0.077 OA 
HETATM    4  C   UNL     1      -9.355  11.364  65.430  1.00  0.00    -0.186 C  
HETATM    5  C   UNL     1     -10.097  10.566  66.461  1.00  0.00    -0.280 C  
HETATM    6  O   UNL     1      -9.819  12.248  64.730  1.00  0.00    -0.209 OA 
HETATM    7  C   UNL     1     -11.084  11.222  67.443  1.00  0.00    -0.358 C  
HETATM    8  C   UNL     1      -9.400   8.744  68.040  1.00  0.00    -0.142 C  
HETATM    9  C   UNL     1     -11.325  10.339  68.677  1.00  0.00    -0.226 A  
HETATM   10  C   UNL     1     -12.337  10.703  69.590  1.00  0.00    -0.209 A  
HETATM   11  O   UNL     1     -13.355  10.234  71.757  1.00  0.00    -0.401 OA 
HETATM   12  C   UNL     1     -12.473   9.975  70.754  1.00  0.00    -0.295 A  
HETATM   13  C   UNL     1     -10.523   9.188  68.959  1.00  0.00    -0.238 A  
HETATM   14  C   UNL     1     -11.670   8.896  71.035  1.00  0.00    -0.289 A  
HETATM   15  C   UNL     1     -12.945   9.258  72.736  1.00  0.00    -0.038 C  
HETATM   16  O   UNL     1     -11.930   8.354  72.254  1.00  0.00    -0.349 OA 
HETATM   17  C   UNL     1     -10.707   8.466  70.155  1.00  0.00    -0.238 A  
ENDROOT
BRANCH   7  18
HETATM   18  C   UNL     1     -10.687  12.660  67.772  1.00  0.00    -0.239 A  
HETATM   19  O   UNL     1      -9.541  16.268  69.537  1.00  0.00    -0.216 OA 
HETATM   20  C   UNL     1     -11.215  14.852  68.660  1.00  0.00    -0.275 A  
HETATM   21  C   UNL     1      -9.327  12.972  67.910  1.00  0.00    -0.212 A  
HETATM   22  H   UNL     1     -10.196  16.894  69.823  1.00  0.00     0.000 HD 
HETATM   23  C   UNL     1     -11.628  13.647  68.093  1.00  0.00    -0.367 A  
HETATM   24  C   UNL     1      -9.850  15.097  68.891  1.00  0.00    -0.229 A  
HETATM   25  C   UNL     1      -8.888  14.178  68.470  1.00  0.00    -0.173 A  
BRANCH  25  26
HETATM   26  O   UNL     1      -7.522  14.233  68.524  1.00  0.00    -0.107 OA 
HETATM   27  C   UNL     1      -6.726  13.399  67.712  1.00  0.00    -0.160 C  
ENDBRANCH  25  26
BRANCH  20  28
HETATM   28  O   UNL     1     -12.103  15.817  69.091  1.00  0.00    -0.353 OA 
HETATM   29  C   UNL     1     -12.651  15.635  70.392  1.00  0.00    -0.336 C  
ENDBRANCH  20  28
ENDBRANCH   7  18
BRANCH   8  30
HETATM   30  O   UNL     1      -9.608   7.486  67.433  1.00  0.00    -0.139 OA 
BRANCH  30  31
HETATM   31  C   UNL     1      -8.655   6.780  66.632  1.00  0.00    -0.123 C  
HETATM   32  O   UNL     1      -9.245   6.159  65.483  1.00  0.00    -0.017 OA 
HETATM   33  C   UNL     1      -8.371   5.198  64.870  1.00  0.00    -0.145 C  
HETATM   34  C   UNL     1      -8.902   4.639  63.548  1.00  0.00    -0.129 C  
HETATM   35  O   UNL     1      -8.042   3.604  63.067  1.00  0.00    -0.077 OA 
HETATM   36  C   UNL     1      -7.941   2.531  63.999  1.00  0.00    -0.081 C  
HETATM   37  C   UNL     1      -6.978   1.480  63.466  1.00  0.00    -0.031 C  
HETATM   38  O   UNL     1      -7.394   2.979  65.235  1.00  0.00    -0.065 OA 
HETATM   39  C   UNL     1      -8.176   4.021  65.819  1.00  0.00    -0.105 C  
HETATM   40  C   UNL     1      -7.401   4.520  67.024  1.00  0.00    -0.080 C  
HETATM   41  O   UNL     1      -7.330   3.473  68.006  1.00  0.00    -0.054 OA 
HETATM   42  C   UNL     1      -8.020   5.776  67.641  1.00  0.00    -0.102 C  
HETATM   43  H   UNL     1      -6.844   3.785  68.760  1.00  0.00     0.000 HD 
HETATM   44  O   UNL     1      -7.025   6.479  68.427  1.00  0.00    -0.075 OA 
HETATM   45  H   UNL     1      -6.638   5.867  69.042  1.00  0.00     0.000 HD 
ENDBRANCH  30  31
ENDBRANCH   8  30
TORSDOF 5
ENDMDL
MODEL      118
REMARK 921   NORMALIZED FREE ENERGY PREDICTED BY IDOCK:   -5.09 KCAL/MOL
REMARK 922        TOTAL FREE ENERGY PREDICTED BY IDOCK:   -7.81 KCAL/MOL
REMARK 923 INTER-LIGAND FREE ENERGY PREDICTED BY IDOCK:   -7.02 KCAL/MOL
REMARK 924 INTRA-LIGAND FREE ENERGY PREDICTED BY IDOCK:   -0.80 KCAL/MOL
REMARK 927      BINDING AFFINITY PREDICTED BY RF-SCORE:    0.00 PKD
ROOT
HETATM    1  C   UNL     1      -9.987   8.576  70.503  1.00  0.00    -0.214 C  
HETATM    2  C   UNL     1     -11.175   8.353  71.393  1.00  0.00    -0.261 C  
HETATM    3  O   UNL     1     -11.047   6.972  71.766  1.00  0.00    -0.232 OA 
HETATM    4  C   UNL     1     -10.308   6.302  70.821  1.00  0.00    -0.206 C  
HETATM    5  C   UNL     1      -9.855   7.263  69.761  1.00  0.00    -0.177 C  
HETATM    6  O   UNL     1     -10.174   5.090  70.801  1.00  0.00    -0.232 OA 
HETATM    7  C   UNL     1      -8.480   7.136  69.080  1.00  0.00    -0.133 C  
HETATM    8  C   UNL     1      -9.967   9.762  69.558  1.00  0.00    -0.214 C  
HETATM    9  C   UNL     1      -8.047   8.459  68.430  1.00  0.00    -0.123 A  
HETATM   10  C   UNL     1      -6.899   8.472  67.609  1.00  0.00    -0.071 A  
HETATM   11  O   UNL     1      -5.328   9.869  66.373  1.00  0.00    -0.042 OA 
HETATM   12  C   UNL     1      -6.447   9.681  67.122  1.00  0.00    -0.070 A  
HETATM   13  C   UNL     1      -8.739   9.689  68.669  1.00  0.00    -0.124 A  
HETATM   14  C   UNL     1      -7.095  10.863  67.393  1.00  0.00    -0.093 A  
HETATM   15  C   UNL     1      -5.296  11.309  66.290  1.00  0.00    -0.134 C  
HETATM   16  O   UNL     1      -6.457  11.941  66.867  1.00  0.00    -0.148 OA 
HETATM   17  C   UNL     1      -8.247  10.898  68.139  1.00  0.00    -0.121 A  
ENDROOT
BRANCH   7  18
HETATM   18  C   UNL     1      -7.436   6.528  70.016  1.00  0.00    -0.094 A  
HETATM   19  O   UNL     1      -5.318   4.446  72.952  1.00  0.00    -0.006 OA 
HETATM   20  C   UNL     1      -6.314   6.436  72.161  1.00  0.00    -0.050 A  
HETATM   21  C   UNL     1      -6.969   5.232  69.755  1.00  0.00    -0.058 A  
HETATM   22  H   UNL     1      -5.127   4.855  73.788  1.00  0.00     0.000 HD 
HETATM   23  C   UNL     1      -7.040   7.148  71.208  1.00  0.00    -0.069 A  
HETATM   24  C   UNL     1      -5.951   5.099  71.923  1.00  0.00    -0.025 A  
HETATM   25  C   UNL     1      -6.232   4.499  70.694  1.00  0.00    -0.022 A  
BRANCH  25  26
HETATM   26  O   UNL     1      -5.918   3.256  70.220  1.00  0.00    -0.017 OA 
HETATM   27  C   UNL     1      -6.882   2.227  70.176  1.00  0.00    -0.033 C  
ENDBRANCH  25  26
BRANCH  20  28
HETATM   28  O   UNL     1      -5.985   6.962  73.395  1.00  0.00    -0.056 OA 
HETATM   29  C   UNL     1      -6.712   8.116  73.802  1.00  0.00    -0.121 C  
ENDBRANCH  20  28
ENDBRANCH   7  18
BRANCH   8  30
HETATM   30  O   UNL     1     -11.151  10.130  68.883  1.00  0.00    -0.231 OA 
BRANCH  30  31
HETATM   31  C   UNL     1     -12.029  11.195  69.262  1.00  0.00    -0.351 C  
HETATM   32  O   UNL     1     -11.342  12.435  69.473  1.00  0.00    -0.245 OA 
HETATM   33  C   UNL     1     -12.155  13.402  70.156  1.00  0.00    -0.344 C  
HETATM   34  C   UNL     1     -11.514  14.788  70.249  1.00  0.00    -0.260 C  
HETATM   35  O   UNL     1     -12.322  15.656  71.046  1.00  0.00    -0.373 OA 
HETATM   36  C   UNL     1     -12.489  15.149  72.367  1.00  0.00    -0.352 C  
HETATM   37  C   UNL     1     -13.397  16.079  73.160  1.00  0.00    -0.624 C  
HETATM   38  O   UNL     1     -13.140  13.883  72.349  1.00  0.00    -0.414 OA 
HETATM   39  C   UNL     1     -12.416  12.922  71.578  1.00  0.00    -0.056 C  
HETATM   40  C   UNL     1     -13.292  11.686  71.498  1.00  0.00    -0.051 C  
HETATM   41  O   UNL     1     -13.434  11.121  72.811  1.00  0.00    -0.166 OA 
HETATM   42  C   UNL     1     -12.736  10.635  70.534  1.00  0.00    -0.313 C  
HETATM   43  H   UNL     1     -13.982  10.347  72.761  1.00  0.00     0.000 HD 
HETATM   44  O   UNL     1     -13.798   9.742  70.116  1.00  0.00    -0.091 OA 
HETATM   45  H   UNL     1     -14.229   9.400  70.891  1.00  0.00     0.000 HD 
ENDBRANCH  30  31
ENDBRANCH   8  30
TORSDOF 5
ENDMDL
MODEL      119
REMARK 921   NORMALIZED FREE ENERGY PREDICTED BY IDOCK:   -5.07 KCAL/MOL
REMARK 922        TOTAL FREE ENERGY PREDICTED BY IDOCK:   -7.78 KCAL/MOL
REMARK 923 INTER-LIGAND FREE ENERGY PREDICTED BY IDOCK:  -10.22 KCAL/MOL
REMARK 924 INTRA-LIGAND FREE ENERGY PREDICTED BY IDOCK:    2.44 KCAL/MOL
REMARK 927      BINDING AFFINITY PREDICTED BY RF-SCORE:    0.00 PKD
ROOT
HETATM    1  C   UNL     1      -8.920  11.547  67.780  1.00  0.00    -0.160 C  
HETATM    2  C   UNL     1      -9.232  10.092  67.588  1.00  0.00    -0.137 C  
HETATM    3  O   UNL     1     -10.656  10.088  67.397  1.00  0.00    -0.242 OA 
HETATM    4  C   UNL     1     -11.204  11.209  67.971  1.00  0.00    -0.296 C  
HETATM    5  C   UNL     1     -10.115  12.064  68.550  1.00  0.00    -0.201 C  
HETATM    6  O   UNL     1     -12.405  11.386  68.095  1.00  0.00    -0.502 OA 
HETATM    7  C   UNL     1     -10.184  13.601  68.521  1.00  0.00    -0.234 C  
HETATM    8  C   UNL     1      -7.611  11.957  68.428  1.00  0.00    -0.120 C  
HETATM    9  C   UNL     1      -8.796  14.233  68.701  1.00  0.00    -0.150 A  
HETATM   10  C   UNL     1      -8.699  15.629  68.879  1.00  0.00    -0.215 A  
HETATM   11  O   UNL     1      -7.186  17.537  69.030  1.00  0.00    -0.251 OA 
HETATM   12  C   UNL     1      -7.447  16.206  68.924  1.00  0.00    -0.197 A  
HETATM   13  C   UNL     1      -7.593  13.460  68.642  1.00  0.00    -0.101 A  
HETATM   14  C   UNL     1      -6.298  15.459  68.824  1.00  0.00    -0.101 A  
HETATM   15  C   UNL     1      -5.752  17.545  68.885  1.00  0.00    -0.173 C  
HETATM   16  O   UNL     1      -5.174  16.224  68.834  1.00  0.00    -0.104 OA 
HETATM   17  C   UNL     1      -6.335  14.092  68.705  1.00  0.00    -0.090 A  
ENDROOT
BRANCH   7  18
HETATM   18  C   UNL     1     -10.951  14.113  67.302  1.00  0.00    -0.304 A  
HETATM   19  O   UNL     1     -12.336  15.143  63.499  1.00  0.00    -0.855 OA 
HETATM   20  C   UNL     1     -11.262  15.724  65.520  1.00  0.00    -0.093 A  
HETATM   21  C   UNL     1     -11.751  13.214  66.580  1.00  0.00    -0.427 A  
HETATM   22  H   UNL     1     -12.136  15.994  63.128  1.00  0.00     0.000 HD 
HETATM   23  C   UNL     1     -10.769  15.401  66.783  1.00  0.00    -0.310 A  
HETATM   24  C   UNL     1     -11.968  14.769  64.768  1.00  0.00    -0.404 A  
HETATM   25  C   UNL     1     -12.263  13.519  65.313  1.00  0.00    -0.441 A  
BRANCH  25  26
HETATM   26  O   UNL     1     -12.984  12.474  64.804  1.00  0.00    -0.827 OA 
HETATM   27  C   UNL     1     -12.725  11.969  63.513  1.00  0.00    -0.443 C  
ENDBRANCH  25  26
BRANCH  20  28
HETATM   28  O   UNL     1     -11.025  16.943  64.916  1.00  0.00    -0.663 OA 
HETATM   29  C   UNL     1     -10.343  17.914  65.703  1.00  0.00    -0.059 C  
ENDBRANCH  20  28
ENDBRANCH   7  18
BRANCH   8  30
HETATM   30  O   UNL     1      -7.115  11.209  69.519  1.00  0.00    -0.126 OA 
BRANCH  30  31
HETATM   31  C   UNL     1      -7.566   9.909  69.910  1.00  0.00    -0.163 C  
HETATM   32  O   UNL     1      -8.771   9.946  70.686  1.00  0.00    -0.105 OA 
HETATM   33  C   UNL     1      -9.039   8.697  71.342  1.00  0.00    -0.229 C  
HETATM   34  C   UNL     1     -10.399   8.650  72.041  1.00  0.00    -0.346 C  
HETATM   35  O   UNL     1     -10.538   7.430  72.773  1.00  0.00    -0.241 OA 
HETATM   36  C   UNL     1      -9.521   7.293  73.761  1.00  0.00    -0.268 C  
HETATM   37  C   UNL     1      -9.681   5.959  74.477  1.00  0.00    -0.241 C  
HETATM   38  O   UNL     1      -8.229   7.269  73.163  1.00  0.00    -0.102 OA 
HETATM   39  C   UNL     1      -7.971   8.449  72.401  1.00  0.00    -0.105 C  
HETATM   40  C   UNL     1      -6.652   8.222  71.686  1.00  0.00    -0.061 C  
HETATM   41  O   UNL     1      -5.597   8.134  72.658  1.00  0.00    -0.040 OA 
HETATM   42  C   UNL     1      -6.338   9.323  70.672  1.00  0.00    -0.068 C  
HETATM   43  H   UNL     1      -4.772   7.991  72.212  1.00  0.00     0.000 HD 
HETATM   44  O   UNL     1      -5.381   8.836  69.698  1.00  0.00    -0.030 OA 
HETATM   45  H   UNL     1      -4.632   8.479  70.163  1.00  0.00     0.000 HD 
ENDBRANCH  30  31
ENDBRANCH   8  30
TORSDOF 5
ENDMDL
MODEL      120
REMARK 921   NORMALIZED FREE ENERGY PREDICTED BY IDOCK:   -5.06 KCAL/MOL
REMARK 922        TOTAL FREE ENERGY PREDICTED BY IDOCK:   -7.78 KCAL/MOL
REMARK 923 INTER-LIGAND FREE ENERGY PREDICTED BY IDOCK:   -6.44 KCAL/MOL
REMARK 924 INTRA-LIGAND FREE ENERGY PREDICTED BY IDOCK:   -1.34 KCAL/MOL
REMARK 927      BINDING AFFINITY PREDICTED BY RF-SCORE:    0.00 PKD
ROOT
HETATM    1  C   UNL     1      -8.629   8.362  69.149  1.00  0.00    -0.134 C  
HETATM    2  C   UNL     1      -8.941   8.255  70.614  1.00  0.00    -0.151 C  
HETATM    3  O   UNL     1      -9.880   7.169  70.667  1.00  0.00    -0.182 OA 
HETATM    4  C   UNL     1     -10.507   7.036  69.451  1.00  0.00    -0.214 C  
HETATM    5  C   UNL     1      -9.951   8.042  68.485  1.00  0.00    -0.206 C  
HETATM    6  O   UNL     1     -11.459   6.299  69.259  1.00  0.00    -0.411 OA 
HETATM    7  C   UNL     1      -9.769   7.720  66.991  1.00  0.00    -0.259 C  
HETATM    8  C   UNL     1      -8.017   9.637  68.601  1.00  0.00    -0.089 C  
HETATM    9  C   UNL     1      -8.761   8.671  66.327  1.00  0.00    -0.165 A  
HETATM   10  C   UNL     1      -8.610   8.635  64.925  1.00  0.00    -0.163 A  
HETATM   11  O   UNL     1      -7.313   9.436  63.021  1.00  0.00    -0.104 OA 
HETATM   12  C   UNL     1      -7.624   9.405  64.345  1.00  0.00    -0.114 A  
HETATM   13  C   UNL     1      -7.933   9.556  67.088  1.00  0.00    -0.102 A  
HETATM   14  C   UNL     1      -6.806  10.221  65.089  1.00  0.00    -0.120 A  
HETATM   15  C   UNL     1      -6.146  10.284  63.036  1.00  0.00    -0.145 C  
HETATM   16  O   UNL     1      -5.867  10.849  64.333  1.00  0.00     0.016 OA 
HETATM   17  C   UNL     1      -6.947  10.335  66.450  1.00  0.00    -0.111 A  
ENDROOT
BRANCH   7  18
HETATM   18  C   UNL     1      -9.477   6.239  66.760  1.00  0.00    -0.167 A  
HETATM   19  O   UNL     1      -8.171   2.505  65.417  1.00  0.00    -0.085 OA 
HETATM   20  C   UNL     1      -9.837   4.174  65.544  1.00  0.00    -0.207 A  
HETATM   21  C   UNL     1      -8.270   5.705  67.237  1.00  0.00    -0.101 A  
HETATM   22  H   UNL     1      -8.699   2.000  64.810  1.00  0.00     0.000 HD 
HETATM   23  C   UNL     1     -10.289   5.426  65.959  1.00  0.00    -0.118 A  
HETATM   24  C   UNL     1      -8.574   3.706  65.947  1.00  0.00    -0.114 A  
HETATM   25  C   UNL     1      -7.799   4.447  66.840  1.00  0.00    -0.098 A  
BRANCH  25  26
HETATM   26  O   UNL     1      -6.591   4.165  67.416  1.00  0.00    -0.044 OA 
HETATM   27  C   UNL     1      -6.509   3.678  68.737  1.00  0.00    -0.036 C  
ENDBRANCH  25  26
BRANCH  20  28
HETATM   28  O   UNL     1     -10.550   3.375  64.673  1.00  0.00    -0.024 OA 
HETATM   29  C   UNL     1     -10.886   3.955  63.417  1.00  0.00    -0.070 C  
ENDBRANCH  20  28
ENDBRANCH   7  18
BRANCH   8  30
HETATM   30  O   UNL     1      -8.461  10.884  69.093  1.00  0.00    -0.137 OA 
BRANCH  30  31
HETATM   31  C   UNL     1      -8.593  12.084  68.324  1.00  0.00    -0.174 C  
HETATM   32  O   UNL     1      -7.631  13.084  68.684  1.00  0.00    -0.129 OA 
HETATM   33  C   UNL     1      -7.963  14.378  68.155  1.00  0.00    -0.136 C  
HETATM   34  C   UNL     1      -6.875  15.430  68.379  1.00  0.00    -0.115 C  
HETATM   35  O   UNL     1      -7.329  16.713  67.940  1.00  0.00    -0.145 OA 
HETATM   36  C   UNL     1      -8.500  17.122  68.639  1.00  0.00    -0.258 C  
HETATM   37  C   UNL     1      -8.972  18.466  68.102  1.00  0.00    -0.325 C  
HETATM   38  O   UNL     1      -9.571  16.210  68.419  1.00  0.00    -0.202 OA 
HETATM   39  C   UNL     1      -9.234  14.883  68.827  1.00  0.00    -0.193 C  
HETATM   40  C   UNL     1     -10.379  13.991  68.384  1.00  0.00    -0.251 C  
HETATM   41  O   UNL     1     -11.564  14.347  69.115  1.00  0.00    -0.269 OA 
HETATM   42  C   UNL     1     -10.073  12.505  68.575  1.00  0.00    -0.181 C  
HETATM   43  H   UNL     1     -12.281  13.789  68.838  1.00  0.00     0.000 HD 
HETATM   44  O   UNL     1     -10.930  11.712  67.716  1.00  0.00    -0.207 OA 
HETATM   45  H   UNL     1     -11.832  11.968  67.869  1.00  0.00     0.000 HD 
ENDBRANCH  30  31
ENDBRANCH   8  30
TORSDOF 5
ENDMDL
MODEL      121
REMARK 921   NORMALIZED FREE ENERGY PREDICTED BY IDOCK:   -5.01 KCAL/MOL
REMARK 922        TOTAL FREE ENERGY PREDICTED BY IDOCK:   -7.70 KCAL/MOL
REMARK 923 INTER-LIGAND FREE ENERGY PREDICTED BY IDOCK:   -7.11 KCAL/MOL
REMARK 924 INTRA-LIGAND FREE ENERGY PREDICTED BY IDOCK:   -0.60 KCAL/MOL
REMARK 927      BINDING AFFINITY PREDICTED BY RF-SCORE:    0.00 PKD
ROOT
HETATM    1  C   UNL     1      -7.702   8.181  68.741  1.00  0.00    -0.107 C  
HETATM    2  C   UNL     1      -7.803   8.022  70.230  1.00  0.00    -0.088 C  
HETATM    3  O   UNL     1      -8.817   7.015  70.380  1.00  0.00    -0.152 OA 
HETATM    4  C   UNL     1      -9.625   7.000  69.269  1.00  0.00    -0.154 C  
HETATM    5  C   UNL     1      -9.130   8.007  68.272  1.00  0.00    -0.135 C  
HETATM    6  O   UNL     1     -10.657   6.355  69.192  1.00  0.00    -0.204 OA 
HETATM    7  C   UNL     1      -9.199   7.753  66.755  1.00  0.00    -0.202 C  
HETATM    8  C   UNL     1      -7.066   9.430  68.160  1.00  0.00    -0.076 C  
HETATM    9  C   UNL     1      -8.219   8.652  65.987  1.00  0.00    -0.127 A  
HETATM   10  C   UNL     1      -8.279   8.679  64.577  1.00  0.00    -0.166 A  
HETATM   11  O   UNL     1      -7.209   9.473  62.534  1.00  0.00    -0.100 OA 
HETATM   12  C   UNL     1      -7.324   9.397  63.887  1.00  0.00    -0.105 A  
HETATM   13  C   UNL     1      -7.212   9.424  66.649  1.00  0.00    -0.086 A  
HETATM   14  C   UNL     1      -6.336  10.101  64.532  1.00  0.00    -0.129 A  
HETATM   15  C   UNL     1      -5.983  10.220  62.408  1.00  0.00    -0.118 C  
HETATM   16  O   UNL     1      -5.466  10.690  63.669  1.00  0.00    -0.157 OA 
HETATM   17  C   UNL     1      -6.265  10.153  65.902  1.00  0.00    -0.096 A  
ENDROOT
BRANCH   7  18
HETATM   18  C   UNL     1      -9.077   6.267  66.422  1.00  0.00    -0.164 A  
HETATM   19  O   UNL     1      -9.387   2.109  66.170  1.00  0.00    -0.328 OA 
HETATM   20  C   UNL     1      -8.264   4.042  66.932  1.00  0.00    -0.100 A  
HETATM   21  C   UNL     1     -10.026   5.686  65.568  1.00  0.00     0.360 A  
HETATM   22  H   UNL     1      -8.801   1.552  66.668  1.00  0.00     0.000 HD 
HETATM   23  C   UNL     1      -8.150   5.426  67.052  1.00  0.00    -0.101 A  
HETATM   24  C   UNL     1      -9.293   3.479  66.158  1.00  0.00    -0.160 A  
HETATM   25  C   UNL     1     -10.155   4.298  65.426  1.00  0.00    -0.225 A  
BRANCH  25  26
HETATM   26  O   UNL     1     -11.167   3.979  64.564  1.00  0.00    -0.336 OA 
HETATM   27  C   UNL     1     -10.896   3.487  63.270  1.00  0.00    -0.175 C  
ENDBRANCH  25  26
BRANCH  20  28
HETATM   28  O   UNL     1      -7.444   3.164  67.612  1.00  0.00    -0.060 OA 
HETATM   29  C   UNL     1      -6.779   3.683  68.759  1.00  0.00    -0.045 C  
ENDBRANCH  20  28
ENDBRANCH   7  18
BRANCH   8  30
HETATM   30  O   UNL     1      -7.320  10.681  68.764  1.00  0.00    -0.085 OA 
BRANCH  30  31
HETATM   31  C   UNL     1      -8.472  11.498  68.534  1.00  0.00    -0.143 C  
HETATM   32  O   UNL     1      -9.327  10.979  67.507  1.00  0.00    -0.157 OA 
HETATM   33  C   UNL     1     -10.290  11.945  67.056  1.00  0.00    -0.212 C  
HETATM   34  C   UNL     1     -11.323  11.374  66.083  1.00  0.00    -0.043 C  
HETATM   35  O   UNL     1     -12.164  12.417  65.584  1.00  0.00    -0.599 OA 
HETATM   36  C   UNL     1     -11.411  13.418  64.904  1.00  0.00    -0.328 C  
HETATM   37  C   UNL     1     -12.341  14.529  64.439  1.00  0.00    -0.437 C  
HETATM   38  O   UNL     1     -10.470  14.030  65.779  1.00  0.00    -0.289 OA 
HETATM   39  C   UNL     1      -9.565  13.079  66.341  1.00  0.00    -0.257 C  
HETATM   40  C   UNL     1      -8.739  13.825  67.372  1.00  0.00    -0.207 C  
HETATM   41  O   UNL     1      -7.927  14.806  66.707  1.00  0.00    -0.347 OA 
HETATM   42  C   UNL     1      -7.856  12.892  68.203  1.00  0.00    -0.147 C  
HETATM   43  H   UNL     1      -7.410  15.274  67.352  1.00  0.00     0.000 HD 
HETATM   44  O   UNL     1      -7.490  13.540  69.447  1.00  0.00    -0.318 OA 
HETATM   45  H   UNL     1      -7.114  14.390  69.246  1.00  0.00     0.000 HD 
ENDBRANCH  30  31
ENDBRANCH   8  30
TORSDOF 5
ENDMDL
MODEL      122
REMARK 921   NORMALIZED FREE ENERGY PREDICTED BY IDOCK:   -4.97 KCAL/MOL
REMARK 922        TOTAL FREE ENERGY PREDICTED BY IDOCK:   -7.65 KCAL/MOL
REMARK 923 INTER-LIGAND FREE ENERGY PREDICTED BY IDOCK:   -6.43 KCAL/MOL
REMARK 924 INTRA-LIGAND FREE ENERGY PREDICTED BY IDOCK:   -1.22 KCAL/MOL
REMARK 927      BINDING AFFINITY PREDICTED BY RF-SCORE:    0.00 PKD
ROOT
HETATM    1  C   UNL     1      -7.056  11.576  69.557  1.00  0.00     0.016 C  
HETATM    2  C   UNL     1      -6.026  12.465  70.191  1.00  0.00    -0.143 C  
HETATM    3  O   UNL     1      -6.112  13.668  69.410  1.00  0.00    -0.093 OA 
HETATM    4  C   UNL     1      -6.624  13.380  68.168  1.00  0.00    -0.118 C  
HETATM    5  C   UNL     1      -6.958  11.919  68.086  1.00  0.00    -0.078 C  
HETATM    6  O   UNL     1      -6.660  14.182  67.250  1.00  0.00    -0.274 OA 
HETATM    7  C   UNL     1      -8.180  11.406  67.304  1.00  0.00    -0.150 C  
HETATM    8  C   UNL     1      -7.002  10.077  69.790  1.00  0.00    -0.107 C  
HETATM    9  C   UNL     1      -8.593   9.999  67.761  1.00  0.00    -0.118 A  
HETATM   10  C   UNL     1      -9.580   9.305  67.028  1.00  0.00    -0.223 A  
HETATM   11  O   UNL     1     -11.014   7.334  66.952  1.00  0.00    -0.343 OA 
HETATM   12  C   UNL     1     -10.030   8.093  67.506  1.00  0.00    -0.192 A  
HETATM   13  C   UNL     1      -8.048   9.387  68.934  1.00  0.00    -0.103 A  
HETATM   14  C   UNL     1      -9.531   7.534  68.658  1.00  0.00    -0.146 A  
HETATM   15  C   UNL     1     -11.140   6.290  67.940  1.00  0.00    -0.258 C  
HETATM   16  O   UNL     1     -10.148   6.368  68.983  1.00  0.00    -0.152 OA 
HETATM   17  C   UNL     1      -8.531   8.140  69.378  1.00  0.00    -0.127 A  
ENDROOT
BRANCH   7  18
HETATM   18  C   UNL     1      -9.321  12.423  67.302  1.00  0.00    -0.184 A  
HETATM   19  O   UNL     1     -11.762  15.808  67.474  1.00  0.00    -0.075 OA 
HETATM   20  C   UNL     1     -10.878  13.861  68.476  1.00  0.00    -0.259 A  
HETATM   21  C   UNL     1      -9.547  13.183  66.145  1.00  0.00    -0.209 A  
HETATM   22  H   UNL     1     -12.189  16.053  68.286  1.00  0.00     0.000 HD 
HETATM   23  C   UNL     1     -10.053  12.737  68.454  1.00  0.00    -0.226 A  
HETATM   24  C   UNL     1     -11.003  14.672  67.335  1.00  0.00    -0.308 A  
HETATM   25  C   UNL     1     -10.377  14.311  66.141  1.00  0.00    -0.299 A  
BRANCH  25  26
HETATM   26  O   UNL     1     -10.412  14.898  64.906  1.00  0.00    -0.414 OA 
HETATM   27  C   UNL     1     -11.232  16.017  64.652  1.00  0.00    -0.330 C  
ENDBRANCH  25  26
BRANCH  20  28
HETATM   28  O   UNL     1     -11.542  14.277  69.613  1.00  0.00    -0.266 OA 
HETATM   29  C   UNL     1     -12.252  13.273  70.331  1.00  0.00    -0.332 C  
ENDBRANCH  20  28
ENDBRANCH   7  18
BRANCH   8  30
HETATM   30  O   UNL     1      -5.750   9.426  69.815  1.00  0.00    -0.032 OA 
BRANCH  30  31
HETATM   31  C   UNL     1      -5.310   8.503  70.817  1.00  0.00    -0.028 C  
HETATM   32  O   UNL     1      -5.537   7.135  70.453  1.00  0.00    -0.023 OA 
HETATM   33  C   UNL     1      -5.402   6.242  71.569  1.00  0.00    -0.022 C  
HETATM   34  C   UNL     1      -5.472   4.763  71.184  1.00  0.00    -0.004 C  
HETATM   35  O   UNL     1      -5.457   3.944  72.356  1.00  0.00     0.000 OA 
HETATM   36  C   UNL     1      -6.556   4.238  73.214  1.00  0.00    -0.051 C  
HETATM   37  C   UNL     1      -6.467   3.379  74.468  1.00  0.00    -0.033 C  
HETATM   38  O   UNL     1      -6.510   5.590  73.657  1.00  0.00    -0.067 OA 
HETATM   39  C   UNL     1      -6.525   6.510  72.564  1.00  0.00    -0.059 C  
HETATM   40  C   UNL     1      -6.300   7.888  73.157  1.00  0.00    -0.071 C  
HETATM   41  O   UNL     1      -7.422   8.234  73.987  1.00  0.00    -0.168 OA 
HETATM   42  C   UNL     1      -6.092   8.961  72.086  1.00  0.00    -0.061 C  
HETATM   43  H   UNL     1      -7.282   9.096  74.358  1.00  0.00     0.000 HD 
HETATM   44  O   UNL     1      -5.410  10.103  72.660  1.00  0.00    -0.301 OA 
HETATM   45  H   UNL     1      -5.886  10.382  73.434  1.00  0.00     0.000 HD 
ENDBRANCH  30  31
ENDBRANCH   8  30
TORSDOF 5
ENDMDL
MODEL      123
REMARK 921   NORMALIZED FREE ENERGY PREDICTED BY IDOCK:   -4.93 KCAL/MOL
REMARK 922        TOTAL FREE ENERGY PREDICTED BY IDOCK:   -7.61 KCAL/MOL
REMARK 923 INTER-LIGAND FREE ENERGY PREDICTED BY IDOCK:   -8.53 KCAL/MOL
REMARK 924 INTRA-LIGAND FREE ENERGY PREDICTED BY IDOCK:    0.93 KCAL/MOL
REMARK 927      BINDING AFFINITY PREDICTED BY RF-SCORE:    0.00 PKD
ROOT
HETATM    1  C   UNL     1     -11.667  10.658  69.304  1.00  0.00    -0.336 C  
HETATM    2  C   UNL     1     -12.157  11.782  70.169  1.00  0.00    -0.317 C  
HETATM    3  O   UNL     1     -11.739  12.952  69.448  1.00  0.00    -0.292 OA 
HETATM    4  C   UNL     1     -10.673  12.643  68.638  1.00  0.00    -0.242 C  
HETATM    5  C   UNL     1     -10.356  11.181  68.758  1.00  0.00    -0.222 C  
HETATM    6  O   UNL     1     -10.020  13.476  68.033  1.00  0.00    -0.233 OA 
HETATM    7  C   UNL     1      -9.875  10.351  67.554  1.00  0.00    -0.202 C  
HETATM    8  C   UNL     1     -11.519   9.267  69.890  1.00  0.00     0.021 C  
HETATM    9  C   UNL     1     -10.093   8.847  67.782  1.00  0.00    -0.263 A  
HETATM   10  C   UNL     1      -9.545   7.931  66.859  1.00  0.00    -0.263 A  
HETATM   11  O   UNL     1      -9.441   5.595  66.166  1.00  0.00    -0.158 OA 
HETATM   12  C   UNL     1      -9.840   6.591  67.002  1.00  0.00    -0.157 A  
HETATM   13  C   UNL     1     -10.876   8.346  68.869  1.00  0.00     0.002 A  
HETATM   14  C   UNL     1     -10.628   6.124  68.025  1.00  0.00    -0.268 A  
HETATM   15  C   UNL     1     -10.150   4.471  66.726  1.00  0.00    -0.186 C  
HETATM   16  O   UNL     1     -10.841   4.784  67.952  1.00  0.00     0.332 OA 
HETATM   17  C   UNL     1     -11.140   6.966  68.982  1.00  0.00    -0.188 A  
ENDROOT
BRANCH   7  18
HETATM   18  C   UNL     1     -10.447  10.873  66.238  1.00  0.00    -0.304 A  
HETATM   19  O   UNL     1     -11.423  13.003  62.780  1.00  0.00    -0.567 OA 
HETATM   20  C   UNL     1     -11.896  12.375  65.007  1.00  0.00    -0.388 A  
HETATM   21  C   UNL     1      -9.728  10.654  65.054  1.00  0.00    -0.336 A  
HETATM   22  H   UNL     1     -12.148  13.617  62.781  1.00  0.00     0.000 HD 
HETATM   23  C   UNL     1     -11.581  11.694  66.181  1.00  0.00    -0.105 A  
HETATM   24  C   UNL     1     -11.094  12.225  63.862  1.00  0.00    -0.412 A  
HETATM   25  C   UNL     1     -10.029  11.322  63.860  1.00  0.00    -0.321 A  
BRANCH  25  26
HETATM   26  O   UNL     1      -9.170  10.963  62.859  1.00  0.00    -0.264 OA 
HETATM   27  C   UNL     1      -8.787   9.618  62.673  1.00  0.00    -0.248 C  
ENDBRANCH  25  26
BRANCH  20  28
HETATM   28  O   UNL     1     -12.940  13.275  64.923  1.00  0.00    -0.727 OA 
HETATM   29  C   UNL     1     -12.947  14.323  65.886  1.00  0.00    -0.026 C  
ENDBRANCH  20  28
ENDBRANCH   7  18
BRANCH   8  30
HETATM   30  O   UNL     1     -11.019   9.119  71.202  1.00  0.00    -0.265 OA 
BRANCH  30  31
HETATM   31  C   UNL     1      -9.775   8.506  71.556  1.00  0.00    -0.234 C  
HETATM   32  O   UNL     1      -8.855   8.441  70.459  1.00  0.00    -0.138 OA 
HETATM   33  C   UNL     1      -7.756   7.553  70.718  1.00  0.00    -0.083 C  
HETATM   34  C   UNL     1      -6.671   7.587  69.640  1.00  0.00    -0.040 C  
HETATM   35  O   UNL     1      -5.680   6.591  69.902  1.00  0.00    -0.014 OA 
HETATM   36  C   UNL     1      -6.246   5.284  69.929  1.00  0.00    -0.026 C  
HETATM   37  C   UNL     1      -5.163   4.266  70.262  1.00  0.00    -0.004 C  
HETATM   38  O   UNL     1      -7.224   5.172  70.958  1.00  0.00    -0.063 OA 
HETATM   39  C   UNL     1      -8.277   6.123  70.798  1.00  0.00    -0.125 C  
HETATM   40  C   UNL     1      -9.147   6.015  72.037  1.00  0.00    -0.143 C  
HETATM   41  O   UNL     1      -9.775   4.722  72.062  1.00  0.00    -0.150 OA 
HETATM   42  C   UNL     1     -10.210   7.113  72.105  1.00  0.00    -0.186 C  
HETATM   43  H   UNL     1     -10.319   4.654  72.836  1.00  0.00     0.000 HD 
HETATM   44  O   UNL     1     -10.662   7.277  73.472  1.00  0.00    -0.397 OA 
HETATM   45  H   UNL     1     -10.927   6.427  73.806  1.00  0.00     0.000 HD 
ENDBRANCH  30  31
ENDBRANCH   8  30
TORSDOF 5
ENDMDL
MODEL      124
REMARK 921   NORMALIZED FREE ENERGY PREDICTED BY IDOCK:   -4.92 KCAL/MOL
REMARK 922        TOTAL FREE ENERGY PREDICTED BY IDOCK:   -7.59 KCAL/MOL
REMARK 923 INTER-LIGAND FREE ENERGY PREDICTED BY IDOCK:   -7.26 KCAL/MOL
REMARK 924 INTRA-LIGAND FREE ENERGY PREDICTED BY IDOCK:   -0.33 KCAL/MOL
REMARK 927      BINDING AFFINITY PREDICTED BY RF-SCORE:    0.00 PKD
ROOT
HETATM    1  C   UNL     1      -9.199   9.014  65.928  1.00  0.00    -0.290 C  
HETATM    2  C   UNL     1      -9.063   9.768  64.638  1.00  0.00    -0.245 C  
HETATM    3  O   UNL     1      -7.745   9.409  64.190  1.00  0.00    -0.108 OA 
HETATM    4  C   UNL     1      -6.979   9.024  65.263  1.00  0.00    -0.083 C  
HETATM    5  C   UNL     1      -7.806   9.068  66.515  1.00  0.00    -0.100 C  
HETATM    6  O   UNL     1      -5.779   8.817  65.197  1.00  0.00    -0.046 OA 
HETATM    7  C   UNL     1      -7.629   8.037  67.644  1.00  0.00    -0.102 C  
HETATM    8  C   UNL     1     -10.253   9.432  66.936  1.00  0.00    -0.248 C  
HETATM    9  C   UNL     1      -8.867   7.975  68.552  1.00  0.00    -0.134 A  
HETATM   10  C   UNL     1      -8.805   7.216  69.740  1.00  0.00    -0.142 A  
HETATM   11  O   UNL     1     -10.071   6.322  71.623  1.00  0.00    -0.186 OA 
HETATM   12  C   UNL     1      -9.952   7.068  70.492  1.00  0.00    -0.183 A  
HETATM   13  C   UNL     1     -10.098   8.618  68.208  1.00  0.00    -0.225 A  
HETATM   14  C   UNL     1     -11.140   7.655  70.130  1.00  0.00    -0.218 A  
HETATM   15  C   UNL     1     -11.488   6.430  71.871  1.00  0.00    -0.304 C  
HETATM   16  O   UNL     1     -12.158   7.339  70.973  1.00  0.00    -0.321 OA 
HETATM   17  C   UNL     1     -11.241   8.449  69.014  1.00  0.00     0.373 A  
ENDROOT
BRANCH   7  18
HETATM   18  C   UNL     1      -7.177   6.679  67.109  1.00  0.00    -0.081 A  
HETATM   19  O   UNL     1      -6.639   2.646  66.167  1.00  0.00    -0.031 OA 
HETATM   20  C   UNL     1      -6.026   4.567  67.396  1.00  0.00    -0.023 A  
HETATM   21  C   UNL     1      -7.872   6.113  66.030  1.00  0.00    -0.106 A  
HETATM   22  H   UNL     1      -6.029   2.113  66.662  1.00  0.00     0.000 HD 
HETATM   23  C   UNL     1      -6.199   5.905  67.746  1.00  0.00    -0.033 A  
HETATM   24  C   UNL     1      -6.812   3.991  66.383  1.00  0.00    -0.058 A  
HETATM   25  C   UNL     1      -7.709   4.774  65.655  1.00  0.00    -0.090 A  
BRANCH  25  26
HETATM   26  O   UNL     1      -8.514   4.452  64.597  1.00  0.00    -0.115 OA 
HETATM   27  C   UNL     1      -8.010   4.417  63.280  1.00  0.00    -0.082 C  
ENDBRANCH  25  26
BRANCH  20  28
HETATM   28  O   UNL     1      -5.150   3.729  68.058  1.00  0.00    -0.007 OA 
HETATM   29  C   UNL     1      -5.589   3.226  69.315  1.00  0.00    -0.017 C  
ENDBRANCH  20  28
ENDBRANCH   7  18
BRANCH   8  30
HETATM   30  O   UNL     1     -10.497  10.806  67.152  1.00  0.00    -0.212 OA 
BRANCH  30  31
HETATM   31  C   UNL     1     -10.477  11.467  68.421  1.00  0.00    -0.200 C  
HETATM   32  O   UNL     1     -11.672  11.246  69.182  1.00  0.00    -0.283 OA 
HETATM   33  C   UNL     1     -11.792  12.153  70.289  1.00  0.00    -0.254 C  
HETATM   34  C   UNL     1     -12.966  11.839  71.218  1.00  0.00    -0.254 C  
HETATM   35  O   UNL     1     -13.094  12.852  72.217  1.00  0.00    -0.402 OA 
HETATM   36  C   UNL     1     -13.311  14.136  71.637  1.00  0.00    -0.364 C  
HETATM   37  C   UNL     1     -13.388  15.186  72.736  1.00  0.00    -0.596 C  
HETATM   38  O   UNL     1     -12.217  14.512  70.806  1.00  0.00    -0.289 OA 
HETATM   39  C   UNL     1     -11.993  13.568  69.759  1.00  0.00    -0.340 C  
HETATM   40  C   UNL     1     -10.712  13.990  69.064  1.00  0.00    -0.211 C  
HETATM   41  O   UNL     1     -10.919  15.259  68.422  1.00  0.00    -0.250 OA 
HETATM   42  C   UNL     1     -10.233  12.959  68.040  1.00  0.00    -0.229 C  
HETATM   43  H   UNL     1     -10.118  15.524  67.988  1.00  0.00     0.000 HD 
HETATM   44  O   UNL     1      -8.819  13.143  67.782  1.00  0.00    -0.169 OA 
HETATM   45  H   UNL     1      -8.669  14.052  67.550  1.00  0.00     0.000 HD 
ENDBRANCH  30  31
ENDBRANCH   8  30
TORSDOF 5
ENDMDL
MODEL      125
REMARK 921   NORMALIZED FREE ENERGY PREDICTED BY IDOCK:   -4.90 KCAL/MOL
REMARK 922        TOTAL FREE ENERGY PREDICTED BY IDOCK:   -7.56 KCAL/MOL
REMARK 923 INTER-LIGAND FREE ENERGY PREDICTED BY IDOCK:   -6.89 KCAL/MOL
REMARK 924 INTRA-LIGAND FREE ENERGY PREDICTED BY IDOCK:   -0.67 KCAL/MOL
REMARK 927      BINDING AFFINITY PREDICTED BY RF-SCORE:    0.00 PKD
ROOT
HETATM    1  C   UNL     1      -8.026   8.892  69.335  1.00  0.00    -0.100 C  
HETATM    2  C   UNL     1      -8.174   8.878  70.829  1.00  0.00    -0.171 C  
HETATM    3  O   UNL     1      -9.208   7.903  71.042  1.00  0.00    -0.148 OA 
HETATM    4  C   UNL     1      -9.982   7.791  69.913  1.00  0.00    -0.191 C  
HETATM    5  C   UNL     1      -9.442   8.692  68.841  1.00  0.00    -0.146 C  
HETATM    6  O   UNL     1     -11.021   7.155  69.866  1.00  0.00    -0.252 OA 
HETATM    7  C   UNL     1      -9.469   8.294  67.354  1.00  0.00    -0.188 C  
HETATM    8  C   UNL     1      -7.354  10.072  68.658  1.00  0.00    -0.081 C  
HETATM    9  C   UNL     1      -8.453   9.103  66.533  1.00  0.00    -0.127 A  
HETATM   10  C   UNL     1      -8.471   8.996  65.127  1.00  0.00    -0.183 A  
HETATM   11  O   UNL     1      -7.328   9.576  63.051  1.00  0.00    -0.105 OA 
HETATM   12  C   UNL     1      -7.485   9.632  64.402  1.00  0.00    -0.125 A  
HETATM   13  C   UNL     1      -7.455   9.923  67.151  1.00  0.00    -0.091 A  
HETATM   14  C   UNL     1      -6.506  10.382  65.006  1.00  0.00    -0.086 A  
HETATM   15  C   UNL     1      -6.087  10.293  62.893  1.00  0.00    -0.142 C  
HETATM   16  O   UNL     1      -5.602  10.875  64.119  1.00  0.00    -0.053 OA 
HETATM   17  C   UNL     1      -6.475  10.564  66.367  1.00  0.00    -0.105 A  
ENDROOT
BRANCH   7  18
HETATM   18  C   UNL     1      -9.360   6.781  67.167  1.00  0.00    -0.154 A  
HETATM   19  O   UNL     1      -8.563   2.878  65.912  1.00  0.00    -0.107 OA 
HETATM   20  C   UNL     1     -10.019   4.732  66.056  1.00  0.00    -0.237 A  
HETATM   21  C   UNL     1      -8.198   6.129  67.604  1.00  0.00    -0.113 A  
HETATM   22  H   UNL     1      -9.177   2.418  65.353  1.00  0.00     0.000 HD 
HETATM   23  C   UNL     1     -10.302   6.041  66.442  1.00  0.00    -0.134 A  
HETATM   24  C   UNL     1      -8.797   4.136  66.413  1.00  0.00    -0.118 A  
HETATM   25  C   UNL     1      -7.895   4.812  67.235  1.00  0.00    -0.094 A  
BRANCH  25  26
HETATM   26  O   UNL     1      -6.698   4.412  67.761  1.00  0.00    -0.049 OA 
HETATM   27  C   UNL     1      -6.052   5.165  68.763  1.00  0.00    -0.029 C  
ENDBRANCH  25  26
BRANCH  20  28
HETATM   28  O   UNL     1     -10.864   3.991  65.254  1.00  0.00    -0.058 OA 
HETATM   29  C   UNL     1     -10.545   3.954  63.867  1.00  0.00    -0.217 C  
ENDBRANCH  20  28
ENDBRANCH   7  18
BRANCH   8  30
HETATM   30  O   UNL     1      -7.607  11.378  69.131  1.00  0.00    -0.113 OA 
BRANCH  30  31
HETATM   31  C   UNL     1      -8.726  12.192  68.769  1.00  0.00     0.114 C  
HETATM   32  O   UNL     1      -9.621  11.539  67.860  1.00  0.00    -0.167 OA 
HETATM   33  C   UNL     1     -10.549  12.451  67.253  1.00  0.00    -0.223 C  
HETATM   34  C   UNL     1     -11.623  11.764  66.407  1.00  0.00    -0.162 C  
HETATM   35  O   UNL     1     -12.426  12.739  65.739  1.00  0.00    -0.579 OA 
HETATM   36  C   UNL     1     -11.643  13.568  64.884  1.00  0.00    -0.335 C  
HETATM   37  C   UNL     1     -12.533  14.619  64.236  1.00  0.00    -0.267 C  
HETATM   38  O   UNL     1     -10.661  14.283  65.627  1.00  0.00    -0.294 OA 
HETATM   39  C   UNL     1      -9.788  13.406  66.341  1.00  0.00    -0.296 C  
HETATM   40  C   UNL     1      -8.914  14.286  67.215  1.00  0.00    -0.213 C  
HETATM   41  O   UNL     1      -8.072  15.095  66.377  1.00  0.00    -0.317 OA 
HETATM   42  C   UNL     1      -8.057  13.476  68.190  1.00  0.00    -0.154 C  
HETATM   43  H   UNL     1      -7.525  15.646  66.924  1.00  0.00     0.000 HD 
HETATM   44  O   UNL     1      -7.642  14.318  69.295  1.00  0.00    -0.277 OA 
HETATM   45  H   UNL     1      -7.234  15.100  68.942  1.00  0.00     0.000 HD 
ENDBRANCH  30  31
ENDBRANCH   8  30
TORSDOF 5
ENDMDL
MODEL      126
REMARK 921   NORMALIZED FREE ENERGY PREDICTED BY IDOCK:   -4.89 KCAL/MOL
REMARK 922        TOTAL FREE ENERGY PREDICTED BY IDOCK:   -7.55 KCAL/MOL
REMARK 923 INTER-LIGAND FREE ENERGY PREDICTED BY IDOCK:   -7.20 KCAL/MOL
REMARK 924 INTRA-LIGAND FREE ENERGY PREDICTED BY IDOCK:   -0.35 KCAL/MOL
REMARK 927      BINDING AFFINITY PREDICTED BY RF-SCORE:    0.00 PKD
ROOT
HETATM    1  C   UNL     1      -8.782  11.128  66.595  1.00  0.00    -0.166 C  
HETATM    2  C   UNL     1      -8.938  11.699  65.216  1.00  0.00     0.137 C  
HETATM    3  O   UNL     1     -10.289  12.189  65.219  1.00  0.00    -0.262 OA 
HETATM    4  C   UNL     1     -11.025  11.515  66.162  1.00  0.00    -0.266 C  
HETATM    5  C   UNL     1     -10.145  10.540  66.888  1.00  0.00    -0.265 C  
HETATM    6  O   UNL     1     -12.236  11.617  66.274  1.00  0.00    -0.150 OA 
HETATM    7  C   UNL     1     -10.322  10.244  68.388  1.00  0.00    -0.202 C  
HETATM    8  C   UNL     1      -7.668  10.138  66.878  1.00  0.00    -0.103 C  
HETATM    9  C   UNL     1      -9.050   9.633  68.997  1.00  0.00    -0.148 A  
HETATM   10  C   UNL     1      -9.097   9.134  70.316  1.00  0.00    -0.247 A  
HETATM   11  O   UNL     1      -7.794   8.243  72.176  1.00  0.00    -0.112 OA 
HETATM   12  C   UNL     1      -7.927   8.694  70.899  1.00  0.00    -0.122 A  
HETATM   13  C   UNL     1      -7.807   9.599  68.290  1.00  0.00    -0.085 A  
HETATM   14  C   UNL     1      -6.729   8.705  70.226  1.00  0.00    -0.040 A  
HETATM   15  C   UNL     1      -6.365   8.069  72.255  1.00  0.00    -0.056 C  
HETATM   16  O   UNL     1      -5.692   8.284  70.997  1.00  0.00    -0.032 OA 
HETATM   17  C   UNL     1      -6.639   9.128  68.923  1.00  0.00    -0.048 A  
ENDROOT
BRANCH   7  18
HETATM   18  C   UNL     1     -10.859  11.456  69.148  1.00  0.00    -0.260 A  
HETATM   19  O   UNL     1     -13.104  14.592  70.750  1.00  0.00    -0.384 OA 
HETATM   20  C   UNL     1     -11.478  13.796  69.233  1.00  0.00    -0.293 A  
HETATM   21  C   UNL     1     -11.640  11.244  70.293  1.00  0.00    -0.366 A  
HETATM   22  H   UNL     1     -13.069  15.457  70.361  1.00  0.00     0.000 HD 
HETATM   23  C   UNL     1     -10.734  12.764  68.664  1.00  0.00    -0.273 A  
HETATM   24  C   UNL     1     -12.340  13.538  70.313  1.00  0.00    -0.300 A  
HETATM   25  C   UNL     1     -12.391  12.266  70.886  1.00  0.00    -0.267 A  
BRANCH  25  26
HETATM   26  O   UNL     1     -13.090  11.806  71.968  1.00  0.00    -0.467 OA 
HETATM   27  C   UNL     1     -13.519  10.464  72.043  1.00  0.00    -0.255 C  
ENDBRANCH  25  26
BRANCH  20  28
HETATM   28  O   UNL     1     -11.473  15.084  68.734  1.00  0.00    -0.286 OA 
HETATM   29  C   UNL     1     -10.314  15.862  69.011  1.00  0.00    -0.231 C  
ENDBRANCH  20  28
ENDBRANCH   7  18
BRANCH   8  30
HETATM   30  O   UNL     1      -7.351   9.158  65.911  1.00  0.00    -0.091 OA 
BRANCH  30  31
HETATM   31  C   UNL     1      -8.233   8.132  65.445  1.00  0.00    -0.146 C  
HETATM   32  O   UNL     1      -8.372   7.052  66.377  1.00  0.00    -0.114 OA 
HETATM   33  C   UNL     1      -8.982   5.893  65.787  1.00  0.00    -0.120 C  
HETATM   34  C   UNL     1      -9.297   4.784  66.792  1.00  0.00    -0.143 C  
HETATM   35  O   UNL     1      -9.783   3.624  66.114  1.00  0.00    -0.167 OA 
HETATM   36  C   UNL     1      -8.830   3.126  65.179  1.00  0.00    -0.129 C  
HETATM   37  C   UNL     1      -9.413   1.924  64.448  1.00  0.00    -0.126 C  
HETATM   38  O   UNL     1      -8.542   4.096  64.179  1.00  0.00    -0.101 OA 
HETATM   39  C   UNL     1      -8.041   5.309  64.740  1.00  0.00    -0.124 C  
HETATM   40  C   UNL     1      -7.940   6.304  63.599  1.00  0.00    -0.090 C  
HETATM   41  O   UNL     1      -6.945   5.853  62.666  1.00  0.00    -0.038 OA 
HETATM   42  C   UNL     1      -7.604   7.717  64.080  1.00  0.00    -0.113 C  
HETATM   43  H   UNL     1      -6.882   6.475  61.951  1.00  0.00     0.000 HD 
HETATM   44  O   UNL     1      -7.999   8.685  63.077  1.00  0.00    -0.145 OA 
HETATM   45  H   UNL     1      -7.615   8.433  62.245  1.00  0.00     0.000 HD 
ENDBRANCH  30  31
ENDBRANCH   8  30
TORSDOF 5
ENDMDL
MODEL      127
REMARK 921   NORMALIZED FREE ENERGY PREDICTED BY IDOCK:   -4.83 KCAL/MOL
REMARK 922        TOTAL FREE ENERGY PREDICTED BY IDOCK:   -7.48 KCAL/MOL
REMARK 923 INTER-LIGAND FREE ENERGY PREDICTED BY IDOCK:   -6.38 KCAL/MOL
REMARK 924 INTRA-LIGAND FREE ENERGY PREDICTED BY IDOCK:   -1.10 KCAL/MOL
REMARK 927      BINDING AFFINITY PREDICTED BY RF-SCORE:    0.00 PKD
ROOT
HETATM    1  C   UNL     1      -9.431   8.784  69.924  1.00  0.00    -0.174 C  
HETATM    2  C   UNL     1     -10.258   8.714  71.175  1.00  0.00    -0.230 C  
HETATM    3  O   UNL     1     -10.928   7.449  71.050  1.00  0.00    -0.243 OA 
HETATM    4  C   UNL     1     -11.001   7.091  69.726  1.00  0.00    -0.250 C  
HETATM    5  C   UNL     1     -10.311   8.125  68.885  1.00  0.00    -0.225 C  
HETATM    6  O   UNL     1     -11.652   6.144  69.317  1.00  0.00    -0.329 OA 
HETATM    7  C   UNL     1      -9.511   7.747  67.625  1.00  0.00    -0.168 C  
HETATM    8  C   UNL     1      -8.900  10.123  69.447  1.00  0.00    -0.185 C  
HETATM    9  C   UNL     1      -8.518   8.853  67.234  1.00  0.00    -0.114 A  
HETATM   10  C   UNL     1      -7.834   8.752  66.004  1.00  0.00    -0.105 A  
HETATM   11  O   UNL     1      -6.073   9.689  64.600  1.00  0.00    -0.076 OA 
HETATM   12  C   UNL     1      -6.860   9.683  65.710  1.00  0.00    -0.093 A  
HETATM   13  C   UNL     1      -8.225   9.955  68.098  1.00  0.00    -0.109 A  
HETATM   14  C   UNL     1      -6.557  10.714  66.565  1.00  0.00    -0.108 A  
HETATM   15  C   UNL     1      -5.181  10.779  64.906  1.00  0.00    -0.126 C  
HETATM   16  O   UNL     1      -5.532  11.484  66.114  1.00  0.00    -0.258 OA 
HETATM   17  C   UNL     1      -7.231  10.890  67.749  1.00  0.00    -0.091 A  
ENDROOT
BRANCH   7  18
HETATM   18  C   UNL     1      -8.885   6.358  67.744  1.00  0.00    -0.112 A  
HETATM   19  O   UNL     1      -6.443   2.971  67.670  1.00  0.00    -0.035 OA 
HETATM   20  C   UNL     1      -8.207   4.251  66.761  1.00  0.00    -0.101 A  
HETATM   21  C   UNL     1      -8.015   6.098  68.813  1.00  0.00    -0.101 A  
HETATM   22  H   UNL     1      -6.490   2.359  66.945  1.00  0.00     0.000 HD 
HETATM   23  C   UNL     1      -9.019   5.383  66.748  1.00  0.00    -0.112 A  
HETATM   24  C   UNL     1      -7.264   4.066  67.786  1.00  0.00    -0.063 A  
HETATM   25  C   UNL     1      -7.194   4.964  68.852  1.00  0.00    -0.053 A  
BRANCH  25  26
HETATM   26  O   UNL     1      -6.418   4.950  69.978  1.00  0.00    -0.032 OA 
HETATM   27  C   UNL     1      -5.623   6.061  70.330  1.00  0.00    -0.013 C  
ENDBRANCH  25  26
BRANCH  20  28
HETATM   28  O   UNL     1      -8.224   3.308  65.752  1.00  0.00    -0.092 OA 
HETATM   29  C   UNL     1      -9.371   2.466  65.696  1.00  0.00     0.017 C  
ENDBRANCH  20  28
ENDBRANCH   7  18
BRANCH   8  30
HETATM   30  O   UNL     1      -9.721  11.268  69.548  1.00  0.00     0.141 OA 
BRANCH  30  31
HETATM   31  C   UNL     1     -10.757  11.633  68.632  1.00  0.00    -0.212 C  
HETATM   32  O   UNL     1     -10.274  11.843  67.299  1.00  0.00    -0.198 OA 
HETATM   33  C   UNL     1     -11.234  12.514  66.468  1.00  0.00    -0.307 C  
HETATM   34  C   UNL     1     -10.817  12.604  64.998  1.00  0.00    -0.290 C  
HETATM   35  O   UNL     1     -11.758  13.391  64.264  1.00  0.00    -0.376 OA 
HETATM   36  C   UNL     1     -11.855  14.714  64.785  1.00  0.00    -0.440 C  
HETATM   37  C   UNL     1     -12.903  15.495  64.005  1.00  0.00     0.942 C  
HETATM   38  O   UNL     1     -12.299  14.698  66.138  1.00  0.00    -0.257 OA 
HETATM   39  C   UNL     1     -11.428  13.938  66.977  1.00  0.00    -0.346 C  
HETATM   40  C   UNL     1     -12.099  13.857  68.335  1.00  0.00    -0.291 C  
HETATM   41  O   UNL     1     -12.162  15.173  68.910  1.00  0.00    -0.569 OA 
HETATM   42  C   UNL     1     -11.379  12.903  69.290  1.00  0.00    -0.243 C  
HETATM   43  H   UNL     1     -12.582  15.123  69.760  1.00  0.00     0.000 HD 
HETATM   44  O   UNL     1     -12.284  12.482  70.340  1.00  0.00    -0.348 OA 
HETATM   45  H   UNL     1     -12.663  13.256  70.741  1.00  0.00     0.000 HD 
ENDBRANCH  30  31
ENDBRANCH   8  30
TORSDOF 5
ENDMDL
MODEL      128
REMARK 921   NORMALIZED FREE ENERGY PREDICTED BY IDOCK:   -4.83 KCAL/MOL
REMARK 922        TOTAL FREE ENERGY PREDICTED BY IDOCK:   -7.47 KCAL/MOL
REMARK 923 INTER-LIGAND FREE ENERGY PREDICTED BY IDOCK:   -6.41 KCAL/MOL
REMARK 924 INTRA-LIGAND FREE ENERGY PREDICTED BY IDOCK:   -1.06 KCAL/MOL
REMARK 927      BINDING AFFINITY PREDICTED BY RF-SCORE:    0.00 PKD
ROOT
HETATM    1  C   UNL     1      -8.520  14.186  68.351  1.00  0.00    -0.170 C  
HETATM    2  C   UNL     1      -7.223  13.716  67.760  1.00  0.00    -0.164 C  
HETATM    3  O   UNL     1      -6.899  14.756  66.822  1.00  0.00     0.198 OA 
HETATM    4  C   UNL     1      -8.044  15.414  66.444  1.00  0.00     0.174 C  
HETATM    5  C   UNL     1      -9.220  14.845  67.182  1.00  0.00    -0.231 C  
HETATM    6  O   UNL     1      -8.085  16.235  65.543  1.00  0.00     0.490 OA 
HETATM    7  C   UNL     1     -10.392  15.727  67.650  1.00  0.00    -0.281 C  
HETATM    8  C   UNL     1      -9.424  13.198  69.065  1.00  0.00     0.410 C  
HETATM    9  C   UNL     1     -11.194  15.052  68.773  1.00  0.00    -0.288 A  
HETATM   10  C   UNL     1     -12.406  15.639  69.193  1.00  0.00    -0.019 A  
HETATM   11  O   UNL     1     -14.204  15.579  70.841  1.00  0.00    -0.423 OA 
HETATM   12  C   UNL     1     -13.063  15.097  70.278  1.00  0.00    -0.103 A  
HETATM   13  C   UNL     1     -10.728  13.876  69.442  1.00  0.00    -0.051 A  
HETATM   14  C   UNL     1     -12.586  13.992  70.940  1.00  0.00    -0.361 A  
HETATM   15  C   UNL     1     -14.329  14.712  71.987  1.00  0.00    -0.558 C  
HETATM   16  O   UNL     1     -13.351  13.653  72.011  1.00  0.00    -0.387 OA 
HETATM   17  C   UNL     1     -11.441  13.349  70.537  1.00  0.00     0.250 A  
ENDROOT
BRANCH   7  18
HETATM   18  C   UNL     1      -9.938  17.150  67.973  1.00  0.00    -0.295 A  
HETATM   19  O   UNL     1      -8.206  20.949  68.079  1.00  0.00     0.115 OA 
HETATM   20  C   UNL     1      -8.279  18.704  68.810  1.00  0.00    -0.267 A  
HETATM   21  C   UNL     1     -10.564  18.223  67.322  1.00  0.00    -0.406 A  
HETATM   22  H   UNL     1      -7.403  21.098  68.564  1.00  0.00     0.000 HD 
HETATM   23  C   UNL     1      -8.823  17.421  68.776  1.00  0.00    -0.220 A  
HETATM   24  C   UNL     1      -8.860  19.741  68.060  1.00  0.00    -0.302 A  
HETATM   25  C   UNL     1     -10.040  19.522  67.347  1.00  0.00    -0.406 A  
BRANCH  25  26
HETATM   26  O   UNL     1     -10.811  20.383  66.616  1.00  0.00     0.015 OA 
HETATM   27  C   UNL     1     -10.886  20.281  65.211  1.00  0.00     0.295 C  
ENDBRANCH  25  26
BRANCH  20  28
HETATM   28  O   UNL     1      -7.123  19.007  69.501  1.00  0.00    -0.222 OA 
HETATM   29  C   UNL     1      -6.162  17.961  69.609  1.00  0.00    -0.209 C  
ENDBRANCH  20  28
ENDBRANCH   7  18
BRANCH   8  30
HETATM   30  O   UNL     1      -9.575  11.896  68.540  1.00  0.00    -0.200 OA 
BRANCH  30  31
HETATM   31  C   UNL     1      -9.931  10.731  69.292  1.00  0.00    -0.159 C  
HETATM   32  O   UNL     1      -8.793  10.050  69.836  1.00  0.00    -0.205 OA 
HETATM   33  C   UNL     1      -9.116   8.731  70.303  1.00  0.00    -0.170 C  
HETATM   34  C   UNL     1      -7.967   8.041  71.040  1.00  0.00    -0.092 C  
HETATM   35  O   UNL     1      -8.321   6.694  71.360  1.00  0.00    -0.119 OA 
HETATM   36  C   UNL     1      -8.621   5.939  70.190  1.00  0.00    -0.134 C  
HETATM   37  C   UNL     1      -9.041   4.530  70.585  1.00  0.00    -0.175 C  
HETATM   38  O   UNL     1      -9.727   6.500  69.491  1.00  0.00    -0.151 OA 
HETATM   39  C   UNL     1      -9.487   7.856  69.112  1.00  0.00    -0.155 C  
HETATM   40  C   UNL     1     -10.790   8.380  68.538  1.00  0.00     0.081 C  
HETATM   41  O   UNL     1     -11.091   7.672  67.324  1.00  0.00    -0.538 OA 
HETATM   42  C   UNL     1     -10.748   9.886  68.268  1.00  0.00    -0.234 C  
HETATM   43  H   UNL     1     -11.907   8.000  66.965  1.00  0.00     0.000 HD 
HETATM   44  O   UNL     1     -12.097  10.412  68.207  1.00  0.00    -0.747 OA 
HETATM   45  H   UNL     1     -12.595   9.897  67.583  1.00  0.00     0.000 HD 
ENDBRANCH  30  31
ENDBRANCH   8  30
TORSDOF 5
ENDMDL
MODEL      129
REMARK 921   NORMALIZED FREE ENERGY PREDICTED BY IDOCK:   -4.80 KCAL/MOL
REMARK 922        TOTAL FREE ENERGY PREDICTED BY IDOCK:   -7.44 KCAL/MOL
REMARK 923 INTER-LIGAND FREE ENERGY PREDICTED BY IDOCK:   -6.41 KCAL/MOL
REMARK 924 INTRA-LIGAND FREE ENERGY PREDICTED BY IDOCK:   -1.03 KCAL/MOL
REMARK 927      BINDING AFFINITY PREDICTED BY RF-SCORE:    0.00 PKD
ROOT
HETATM    1  C   UNL     1     -10.065   9.901  66.306  1.00  0.00    -0.311 C  
HETATM    2  C   UNL     1     -10.726  10.510  65.104  1.00  0.00     0.073 C  
HETATM    3  O   UNL     1      -9.901  10.059  64.017  1.00  0.00    -0.233 OA 
HETATM    4  C   UNL     1      -8.643   9.762  64.481  1.00  0.00    -0.184 C  
HETATM    5  C   UNL     1      -8.592   9.967  65.967  1.00  0.00    -0.148 C  
HETATM    6  O   UNL     1      -7.697   9.507  63.755  1.00  0.00    -0.116 OA 
HETATM    7  C   UNL     1      -7.760   9.055  66.887  1.00  0.00    -0.098 C  
HETATM    8  C   UNL     1     -10.352  10.461  67.687  1.00  0.00    -0.219 C  
HETATM    9  C   UNL     1      -8.240   9.133  68.344  1.00  0.00    -0.115 A  
HETATM   10  C   UNL     1      -7.476   8.502  69.349  1.00  0.00    -0.088 A  
HETATM   11  O   UNL     1      -7.387   7.857  71.700  1.00  0.00    -0.063 OA 
HETATM   12  C   UNL     1      -7.970   8.474  70.637  1.00  0.00    -0.104 A  
HETATM   13  C   UNL     1      -9.462   9.780  68.711  1.00  0.00    -0.154 A  
HETATM   14  C   UNL     1      -9.166   9.063  70.971  1.00  0.00    -0.264 A  
HETATM   15  C   UNL     1      -8.401   8.041  72.709  1.00  0.00    -0.167 C  
HETATM   16  O   UNL     1      -9.495   8.873  72.275  1.00  0.00    -0.327 OA 
HETATM   17  C   UNL     1      -9.920   9.738  70.043  1.00  0.00    -0.299 A  
ENDROOT
BRANCH   7  18
HETATM   18  C   UNL     1      -7.659   7.633  66.337  1.00  0.00    -0.088 A  
HETATM   19  O   UNL     1      -7.226   3.525  65.721  1.00  0.00    -0.065 OA 
HETATM   20  C   UNL     1      -6.345   5.715  65.656  1.00  0.00    -0.038 A  
HETATM   21  C   UNL     1      -8.774   6.788  66.439  1.00  0.00    -0.142 A  
HETATM   22  H   UNL     1      -6.382   3.160  65.486  1.00  0.00     0.000 HD 
HETATM   23  C   UNL     1      -6.455   7.087  65.875  1.00  0.00    -0.051 A  
HETATM   24  C   UNL     1      -7.449   4.872  65.872  1.00  0.00    -0.082 A  
HETATM   25  C   UNL     1      -8.690   5.408  66.217  1.00  0.00    -0.125 A  
BRANCH  25  26
HETATM   26  O   UNL     1      -9.901   4.800  66.407  1.00  0.00    -0.174 OA 
HETATM   27  C   UNL     1     -10.843   4.709  65.361  1.00  0.00    -0.050 C  
ENDBRANCH  25  26
BRANCH  20  28
HETATM   28  O   UNL     1      -5.157   5.108  65.300  1.00  0.00    -0.008 OA 
HETATM   29  C   UNL     1      -5.161   4.390  64.071  1.00  0.00    -0.005 C  
ENDBRANCH  20  28
ENDBRANCH   7  18
BRANCH   8  30
HETATM   30  O   UNL     1     -10.469  11.858  67.856  1.00  0.00    -0.195 OA 
BRANCH  30  31
HETATM   31  C   UNL     1      -9.475  12.826  67.507  1.00  0.00    -0.187 C  
HETATM   32  O   UNL     1      -8.613  13.159  68.604  1.00  0.00    -0.095 OA 
HETATM   33  C   UNL     1      -7.841  14.344  68.353  1.00  0.00    -0.138 C  
HETATM   34  C   UNL     1      -6.793  14.633  69.429  1.00  0.00    -0.159 C  
HETATM   35  O   UNL     1      -6.156  15.888  69.177  1.00  0.00    -0.118 OA 
HETATM   36  C   UNL     1      -7.096  16.959  69.165  1.00  0.00    -0.224 C  
HETATM   37  C   UNL     1      -6.379  18.263  68.842  1.00  0.00    -0.227 C  
HETATM   38  O   UNL     1      -8.066  16.776  68.139  1.00  0.00    -0.185 OA 
HETATM   39  C   UNL     1      -8.776  15.546  68.289  1.00  0.00    -0.170 C  
HETATM   40  C   UNL     1      -9.643  15.395  67.053  1.00  0.00    -0.218 C  
HETATM   41  O   UNL     1     -10.637  16.433  67.044  1.00  0.00    -0.305 OA 
HETATM   42  C   UNL     1     -10.318  14.024  66.975  1.00  0.00    -0.267 C  
HETATM   43  H   UNL     1     -11.180  16.339  66.271  1.00  0.00     0.000 HD 
HETATM   44  O   UNL     1     -10.705  13.744  65.607  1.00  0.00    -0.277 OA 
HETATM   45  H   UNL     1     -11.219  14.474  65.282  1.00  0.00     0.000 HD 
ENDBRANCH  30  31
ENDBRANCH   8  30
TORSDOF 5
ENDMDL
MODEL      130
REMARK 921   NORMALIZED FREE ENERGY PREDICTED BY IDOCK:   -4.68 KCAL/MOL
REMARK 922        TOTAL FREE ENERGY PREDICTED BY IDOCK:   -7.28 KCAL/MOL
REMARK 923 INTER-LIGAND FREE ENERGY PREDICTED BY IDOCK:   -6.00 KCAL/MOL
REMARK 924 INTRA-LIGAND FREE ENERGY PREDICTED BY IDOCK:   -1.28 KCAL/MOL
REMARK 927      BINDING AFFINITY PREDICTED BY RF-SCORE:    0.00 PKD
ROOT
HETATM    1  C   UNL     1      -7.304  11.187  68.992  1.00  0.00    -0.120 C  
HETATM    2  C   UNL     1      -6.414  11.396  70.182  1.00  0.00    -0.038 C  
HETATM    3  O   UNL     1      -6.493  10.138  70.872  1.00  0.00    -0.281 OA 
HETATM    4  C   UNL     1      -7.663   9.499  70.540  1.00  0.00    -0.157 C  
HETATM    5  C   UNL     1      -8.419  10.321  69.537  1.00  0.00    -0.156 C  
HETATM    6  O   UNL     1      -8.063   8.490  71.095  1.00  0.00    -0.107 OA 
HETATM    7  C   UNL     1      -9.235   9.673  68.404  1.00  0.00    -0.133 C  
HETATM    8  C   UNL     1      -7.841  12.386  68.234  1.00  0.00    -0.150 C  
HETATM    9  C   UNL     1      -9.491  10.661  67.255  1.00  0.00    -0.178 A  
HETATM   10  C   UNL     1     -10.375  10.290  66.220  1.00  0.00    -0.256 A  
HETATM   11  O   UNL     1     -11.273  10.889  64.033  1.00  0.00     0.003 OA 
HETATM   12  C   UNL     1     -10.512  11.130  65.134  1.00  0.00    -0.277 A  
HETATM   13  C   UNL     1      -8.824  11.924  67.174  1.00  0.00    -0.180 A  
HETATM   14  C   UNL     1      -9.835  12.321  65.045  1.00  0.00    -0.137 A  
HETATM   15  C   UNL     1     -10.917  12.015  63.205  1.00  0.00    -0.325 C  
HETATM   16  O   UNL     1     -10.067  12.969  63.873  1.00  0.00    -0.365 OA 
HETATM   17  C   UNL     1      -9.005  12.755  66.050  1.00  0.00     0.242 A  
ENDROOT
BRANCH   7  18
HETATM   18  C   UNL     1      -8.633   8.341  67.959  1.00  0.00    -0.132 A  
HETATM   19  O   UNL     1      -7.407   4.895  65.941  1.00  0.00    -0.075 OA 
HETATM   20  C   UNL     1      -8.852   5.980  67.462  1.00  0.00    -0.109 A  
HETATM   21  C   UNL     1      -7.444   8.351  67.215  1.00  0.00    -0.093 A  
HETATM   22  H   UNL     1      -7.913   4.095  66.004  1.00  0.00     0.000 HD 
HETATM   23  C   UNL     1      -9.296   7.119  68.130  1.00  0.00    -0.129 A  
HETATM   24  C   UNL     1      -7.719   6.041  66.632  1.00  0.00    -0.103 A  
HETATM   25  C   UNL     1      -6.974   7.217  66.540  1.00  0.00    -0.076 A  
BRANCH  25  26
HETATM   26  O   UNL     1      -5.816   7.486  65.863  1.00  0.00    -0.036 OA 
HETATM   27  C   UNL     1      -5.838   7.877  64.508  1.00  0.00    -0.045 C  
ENDBRANCH  25  26
BRANCH  20  28
HETATM   28  O   UNL     1      -9.524   4.775  67.512  1.00  0.00    -0.131 OA 
HETATM   29  C   UNL     1      -9.662   4.183  68.799  1.00  0.00    -0.096 C  
ENDBRANCH  20  28
ENDBRANCH   7  18
BRANCH   8  30
HETATM   30  O   UNL     1      -8.255  13.530  68.952  1.00  0.00    -0.013 OA 
BRANCH  30  31
HETATM   31  C   UNL     1      -8.979  14.637  68.408  1.00  0.00    -0.180 C  
HETATM   32  O   UNL     1      -8.173  15.814  68.265  1.00  0.00    -0.139 OA 
HETATM   33  C   UNL     1      -8.960  16.993  68.033  1.00  0.00    -0.230 C  
HETATM   34  C   UNL     1      -8.127  18.235  67.711  1.00  0.00    -0.250 C  
HETATM   35  O   UNL     1      -8.969  19.386  67.619  1.00  0.00    -0.292 OA 
HETATM   36  C   UNL     1      -9.672  19.620  68.836  1.00  0.00    -0.380 C  
HETATM   37  C   UNL     1     -10.591  20.823  68.671  1.00  0.00     0.483 C  
HETATM   38  O   UNL     1     -10.515  18.519  69.158  1.00  0.00    -0.111 OA 
HETATM   39  C   UNL     1      -9.779  17.302  69.281  1.00  0.00    -0.030 C  
HETATM   40  C   UNL     1     -10.802  16.194  69.452  1.00  0.00    -0.320 C  
HETATM   41  O   UNL     1     -11.490  16.374  70.700  1.00  0.00    -0.517 OA 
HETATM   42  C   UNL     1     -10.172  14.801  69.398  1.00  0.00    -0.130 C  
HETATM   43  H   UNL     1     -12.131  15.682  70.807  1.00  0.00     0.000 HD 
HETATM   44  O   UNL     1     -11.183  13.816  69.068  1.00  0.00    -0.252 OA 
HETATM   45  H   UNL     1     -11.911  13.916  69.672  1.00  0.00     0.000 HD 
ENDBRANCH  30  31
ENDBRANCH   8  30
TORSDOF 5
ENDMDL
MODEL      131
REMARK 921   NORMALIZED FREE ENERGY PREDICTED BY IDOCK:   -4.65 KCAL/MOL
REMARK 922        TOTAL FREE ENERGY PREDICTED BY IDOCK:   -7.24 KCAL/MOL
REMARK 923 INTER-LIGAND FREE ENERGY PREDICTED BY IDOCK:   -5.61 KCAL/MOL
REMARK 924 INTRA-LIGAND FREE ENERGY PREDICTED BY IDOCK:   -1.63 KCAL/MOL
REMARK 927      BINDING AFFINITY PREDICTED BY RF-SCORE:    0.00 PKD
ROOT
HETATM    1  C   UNL     1     -10.114   9.174  67.405  1.00  0.00    -0.289 C  
HETATM    2  C   UNL     1     -11.272   8.668  66.596  1.00  0.00     1.516 C  
HETATM    3  O   UNL     1     -11.098   7.243  66.636  1.00  0.00    -0.059 OA 
HETATM    4  C   UNL     1      -9.780   6.942  66.878  1.00  0.00    -0.171 C  
HETATM    5  C   UNL     1      -8.999   8.211  67.062  1.00  0.00    -0.160 C  
HETATM    6  O   UNL     1      -9.320   5.815  66.809  1.00  0.00    -0.126 OA 
HETATM    7  C   UNL     1      -7.836   8.313  68.065  1.00  0.00    -0.118 C  
HETATM    8  C   UNL     1      -9.674  10.619  67.267  1.00  0.00    -0.168 C  
HETATM    9  C   UNL     1      -7.533   9.773  68.433  1.00  0.00    -0.083 A  
HETATM   10  C   UNL     1      -6.384  10.060  69.199  1.00  0.00    -0.044 A  
HETATM   11  O   UNL     1      -5.157  11.781  70.417  1.00  0.00    -0.077 OA 
HETATM   12  C   UNL     1      -6.178  11.355  69.625  1.00  0.00    -0.118 A  
HETATM   13  C   UNL     1      -8.406  10.848  68.069  1.00  0.00    -0.122 A  
HETATM   14  C   UNL     1      -7.044  12.373  69.306  1.00  0.00     0.075 A  
HETATM   15  C   UNL     1      -5.537  13.154  70.636  1.00  0.00    -0.179 C  
HETATM   16  O   UNL     1      -6.690  13.558  69.870  1.00  0.00    -0.006 OA 
HETATM   17  C   UNL     1      -8.147  12.159  68.517  1.00  0.00    -0.112 A  
ENDROOT
BRANCH   7  18
HETATM   18  C   UNL     1      -8.042   7.394  69.269  1.00  0.00    -0.123 A  
HETATM   19  O   UNL     1      -9.091   4.374  71.957  1.00  0.00    -0.121 OA 
HETATM   20  C   UNL     1      -9.423   6.536  71.065  1.00  0.00    -0.164 A  
HETATM   21  C   UNL     1      -7.227   6.261  69.402  1.00  0.00    -0.082 A  
HETATM   22  H   UNL     1      -9.865   4.461  72.501  1.00  0.00     0.000 HD 
HETATM   23  C   UNL     1      -9.109   7.551  70.163  1.00  0.00    -0.147 A  
HETATM   24  C   UNL     1      -8.656   5.359  71.104  1.00  0.00    -0.125 A  
HETATM   25  C   UNL     1      -7.518   5.231  70.306  1.00  0.00    -0.071 A  
BRANCH  25  26
HETATM   26  O   UNL     1      -6.595   4.225  70.227  1.00  0.00    -0.031 OA 
HETATM   27  C   UNL     1      -5.289   4.391  70.735  1.00  0.00    -0.004 C  
ENDBRANCH  25  26
BRANCH  20  28
HETATM   28  O   UNL     1     -10.523   6.591  71.898  1.00  0.00    -0.203 OA 
HETATM   29  C   UNL     1     -10.512   7.611  72.891  1.00  0.00    -0.336 C  
ENDBRANCH  20  28
ENDBRANCH   7  18
BRANCH   8  30
HETATM   30  O   UNL     1      -9.670  11.222  65.990  1.00  0.00    -0.205 OA 
BRANCH  30  31
HETATM   31  C   UNL     1     -10.154  12.534  65.687  1.00  0.00    -0.269 C  
HETATM   32  O   UNL     1      -9.159  13.550  65.869  1.00  0.00     0.099 OA 
HETATM   33  C   UNL     1      -9.721  14.872  65.882  1.00  0.00    -0.333 C  
HETATM   34  C   UNL     1      -8.673  15.986  65.907  1.00  0.00    -0.068 C  
HETATM   35  O   UNL     1      -9.306  17.260  66.046  1.00  0.00    -0.469 OA 
HETATM   36  C   UNL     1     -10.071  17.336  67.246  1.00  0.00    -0.300 C  
HETATM   37  C   UNL     1     -10.765  18.689  67.323  1.00  0.00    -0.449 C  
HETATM   38  O   UNL     1     -11.106  16.359  67.254  1.00  0.00    -0.180 OA 
HETATM   39  C   UNL     1     -10.590  15.034  67.124  1.00  0.00    -0.295 C  
HETATM   40  C   UNL     1     -11.790  14.116  66.974  1.00  0.00    -0.429 C  
HETATM   41  O   UNL     1     -12.552  14.132  68.192  1.00  0.00    -0.455 OA 
HETATM   42  C   UNL     1     -11.391  12.681  66.625  1.00  0.00    -0.326 C  
HETATM   43  H   UNL     1     -13.302  13.559  68.099  1.00  0.00     0.000 HD 
HETATM   44  O   UNL     1     -12.512  11.992  66.020  1.00  0.00    -0.278 OA 
HETATM   45  H   UNL     1     -13.267  12.082  66.591  1.00  0.00     0.000 HD 
ENDBRANCH  30  31
ENDBRANCH   8  30
TORSDOF 5
ENDMDL
MODEL      132
REMARK 921   NORMALIZED FREE ENERGY PREDICTED BY IDOCK:   -4.64 KCAL/MOL
REMARK 922        TOTAL FREE ENERGY PREDICTED BY IDOCK:   -7.23 KCAL/MOL
REMARK 923 INTER-LIGAND FREE ENERGY PREDICTED BY IDOCK:   -6.08 KCAL/MOL
REMARK 924 INTRA-LIGAND FREE ENERGY PREDICTED BY IDOCK:   -1.15 KCAL/MOL
REMARK 927      BINDING AFFINITY PREDICTED BY RF-SCORE:    0.00 PKD
ROOT
HETATM    1  C   UNL     1      -6.867  13.596  69.664  1.00  0.00     0.077 C  
HETATM    2  C   UNL     1      -5.871  13.804  70.768  1.00  0.00    -0.188 C  
HETATM    3  O   UNL     1      -5.552  15.201  70.659  1.00  0.00    -0.135 OA 
HETATM    4  C   UNL     1      -5.803  15.636  69.380  1.00  0.00    -0.118 C  
HETATM    5  C   UNL     1      -6.367  14.508  68.565  1.00  0.00    -0.088 C  
HETATM    6  O   UNL     1      -5.478  16.735  68.964  1.00  0.00    -0.127 OA 
HETATM    7  C   UNL     1      -7.445  14.740  67.491  1.00  0.00    -0.221 C  
HETATM    8  C   UNL     1      -7.141  12.195  69.153  1.00  0.00    -0.015 C  
HETATM    9  C   UNL     1      -8.201  13.444  67.160  1.00  0.00    -0.121 A  
HETATM   10  C   UNL     1      -9.097  13.436  66.070  1.00  0.00     0.207 A  
HETATM   11  O   UNL     1     -10.806  12.165  64.882  1.00  0.00    -0.288 OA 
HETATM   12  C   UNL     1      -9.858  12.308  65.847  1.00  0.00    -0.251 A  
HETATM   13  C   UNL     1      -8.065  12.259  67.951  1.00  0.00    -0.155 A  
HETATM   14  C   UNL     1      -9.752  11.190  66.638  1.00  0.00    -0.196 A  
HETATM   15  C   UNL     1     -11.346  10.871  65.221  1.00  0.00     0.443 C  
HETATM   16  O   UNL     1     -10.628  10.213  66.285  1.00  0.00    -0.156 OA 
HETATM   17  C   UNL     1      -8.856  11.125  67.677  1.00  0.00    -0.136 A  
ENDROOT
BRANCH   7  18
HETATM   18  C   UNL     1      -8.350  15.920  67.839  1.00  0.00    -0.158 A  
HETATM   19  O   UNL     1     -10.229  19.265  69.491  1.00  0.00    -0.514 OA 
HETATM   20  C   UNL     1     -10.090  16.927  69.191  1.00  0.00    -0.269 A  
HETATM   21  C   UNL     1      -7.965  17.209  67.439  1.00  0.00    -0.197 A  
HETATM   22  H   UNL     1     -10.935  19.161  70.117  1.00  0.00     0.000 HD 
HETATM   23  C   UNL     1      -9.469  15.792  68.672  1.00  0.00    -0.208 A  
HETATM   24  C   UNL     1      -9.617  18.209  68.862  1.00  0.00    -0.234 A  
HETATM   25  C   UNL     1      -8.579  18.363  67.941  1.00  0.00    -0.272 A  
BRANCH  25  26
HETATM   26  O   UNL     1      -8.010  19.494  67.424  1.00  0.00    -0.259 OA 
HETATM   27  C   UNL     1      -7.399  19.487  66.153  1.00  0.00    -0.281 C  
ENDBRANCH  25  26
BRANCH  20  28
HETATM   28  O   UNL     1     -11.130  16.860  70.097  1.00  0.00    -0.111 OA 
HETATM   29  C   UNL     1     -11.186  15.691  70.907  1.00  0.00    -0.369 C  
ENDBRANCH  20  28
ENDBRANCH   7  18
BRANCH   8  30
HETATM   30  O   UNL     1      -6.068  11.287  69.013  1.00  0.00    -0.048 OA 
BRANCH  30  31
HETATM   31  C   UNL     1      -6.086   9.910  69.404  1.00  0.00    -0.040 C  
HETATM   32  O   UNL     1      -6.830   9.084  68.499  1.00  0.00    -0.062 OA 
HETATM   33  C   UNL     1      -7.118   7.790  69.051  1.00  0.00    -0.074 C  
HETATM   34  C   UNL     1      -7.763   6.826  68.053  1.00  0.00    -0.112 C  
HETATM   35  O   UNL     1      -8.134   5.610  68.707  1.00  0.00    -0.098 OA 
HETATM   36  C   UNL     1      -9.057   5.845  69.766  1.00  0.00    -0.138 C  
HETATM   37  C   UNL     1      -9.380   4.530  70.463  1.00  0.00    -0.218 C  
HETATM   38  O   UNL     1      -8.489   6.690  70.761  1.00  0.00    -0.131 OA 
HETATM   39  C   UNL     1      -8.080   7.948  70.223  1.00  0.00    -0.115 C  
HETATM   40  C   UNL     1      -7.344   8.674  71.333  1.00  0.00    -0.102 C  
HETATM   41  O   UNL     1      -8.266   8.973  72.394  1.00  0.00    -0.344 OA 
HETATM   42  C   UNL     1      -6.672   9.960  70.848  1.00  0.00     0.020 C  
HETATM   43  H   UNL     1      -7.806   9.427  73.090  1.00  0.00     0.000 HD 
HETATM   44  O   UNL     1      -5.612  10.336  71.762  1.00  0.00    -0.277 OA 
HETATM   45  H   UNL     1      -5.969  10.366  72.643  1.00  0.00     0.000 HD 
ENDBRANCH  30  31
ENDBRANCH   8  30
TORSDOF 5
ENDMDL
MODEL      133
REMARK 921   NORMALIZED FREE ENERGY PREDICTED BY IDOCK:   -4.57 KCAL/MOL
REMARK 922        TOTAL FREE ENERGY PREDICTED BY IDOCK:   -7.14 KCAL/MOL
REMARK 923 INTER-LIGAND FREE ENERGY PREDICTED BY IDOCK:   -5.97 KCAL/MOL
REMARK 924 INTRA-LIGAND FREE ENERGY PREDICTED BY IDOCK:   -1.17 KCAL/MOL
REMARK 927      BINDING AFFINITY PREDICTED BY RF-SCORE:    0.00 PKD
ROOT
HETATM    1  C   UNL     1      -6.978   9.171  69.810  1.00  0.00    -0.056 C  
HETATM    2  C   UNL     1      -6.573   9.921  71.046  1.00  0.00     0.058 C  
HETATM    3  O   UNL     1      -7.352   9.292  72.077  1.00  0.00    -0.313 OA 
HETATM    4  C   UNL     1      -8.467   8.708  71.525  1.00  0.00    -0.181 C  
HETATM    5  C   UNL     1      -8.448   8.891  70.036  1.00  0.00    -0.141 C  
HETATM    6  O   UNL     1      -9.380   8.240  72.184  1.00  0.00    -0.185 OA 
HETATM    7  C   UNL     1      -8.970   7.807  69.076  1.00  0.00    -0.145 C  
HETATM    8  C   UNL     1      -6.723   9.779  68.444  1.00  0.00    -0.060 C  
HETATM    9  C   UNL     1      -8.410   7.991  67.657  1.00  0.00    -0.128 A  
HETATM   10  C   UNL     1      -8.924   7.196  66.611  1.00  0.00    -0.164 A  
HETATM   11  O   UNL     1      -8.677   6.543  64.274  1.00  0.00     0.246 OA 
HETATM   12  C   UNL     1      -8.339   7.282  65.365  1.00  0.00    -0.122 A  
HETATM   13  C   UNL     1      -7.347   8.906  67.370  1.00  0.00    -0.081 A  
HETATM   14  C   UNL     1      -7.291   8.133  65.110  1.00  0.00    -0.078 A  
HETATM   15  C   UNL     1      -7.659   6.956  63.340  1.00  0.00    -0.100 C  
HETATM   16  O   UNL     1      -6.826   8.022  63.838  1.00  0.00    -0.065 OA 
HETATM   17  C   UNL     1      -6.789   8.968  66.077  1.00  0.00    -0.080 A  
ENDROOT
BRANCH   7  18
HETATM   18  C   UNL     1      -8.780   6.403  69.646  1.00  0.00    -0.138 A  
HETATM   19  O   UNL     1      -8.042   3.020  71.982  1.00  0.00    -0.057 OA 
HETATM   20  C   UNL     1      -7.347   4.581  70.351  1.00  0.00    -0.049 A  
HETATM   21  C   UNL     1      -9.816   5.834  70.401  1.00  0.00    -0.241 A  
HETATM   22  H   UNL     1      -7.182   2.615  71.985  1.00  0.00     0.000 HD 
HETATM   23  C   UNL     1      -7.558   5.721  69.578  1.00  0.00    -0.087 A  
HETATM   24  C   UNL     1      -8.367   4.091  71.186  1.00  0.00    -0.072 A  
HETATM   25  C   UNL     1      -9.630   4.685  71.181  1.00  0.00    -0.171 A  
BRANCH  25  26
HETATM   26  O   UNL     1     -10.776   4.344  71.845  1.00  0.00    -0.022 OA 
HETATM   27  C   UNL     1     -10.985   4.731  73.185  1.00  0.00    -0.300 C  
ENDBRANCH  25  26
BRANCH  20  28
HETATM   28  O   UNL     1      -6.132   3.928  70.402  1.00  0.00    -0.017 OA 
HETATM   29  C   UNL     1      -5.320   4.015  69.236  1.00  0.00    -0.012 C  
ENDBRANCH  20  28
ENDBRANCH   7  18
BRANCH   8  30
HETATM   30  O   UNL     1      -6.922  11.164  68.255  1.00  0.00    -0.066 OA 
BRANCH  30  31
HETATM   31  C   UNL     1      -8.190  11.815  68.134  1.00  0.00    -0.153 C  
HETATM   32  O   UNL     1      -8.944  11.361  67.003  1.00  0.00    -0.158 OA 
HETATM   33  C   UNL     1     -10.049  12.226  66.698  1.00  0.00    -0.215 C  
HETATM   34  C   UNL     1     -10.971  11.683  65.603  1.00  0.00    -0.266 C  
HETATM   35  O   UNL     1     -11.968  12.651  65.270  1.00  0.00    -0.391 OA 
HETATM   36  C   UNL     1     -11.385  13.866  64.806  1.00  0.00    -0.363 C  
HETATM   37  C   UNL     1     -12.482  14.880  64.513  1.00  0.00    -0.223 C  
HETATM   38  O   UNL     1     -10.561  14.452  65.808  1.00  0.00    -0.295 OA 
HETATM   39  C   UNL     1      -9.516  13.571  66.222  1.00  0.00    -0.184 C  
HETATM   40  C   UNL     1      -8.828  14.241  67.397  1.00  0.00    -0.205 C  
HETATM   41  O   UNL     1      -8.184  15.443  66.946  1.00  0.00    -0.219 OA 
HETATM   42  C   UNL     1      -7.809  13.326  68.079  1.00  0.00    -0.148 C  
HETATM   43  H   UNL     1      -7.754  15.862  67.681  1.00  0.00     0.000 HD 
HETATM   44  O   UNL     1      -7.560  13.787  69.430  1.00  0.00    -0.330 OA 
HETATM   45  H   UNL     1      -7.327  14.708  69.397  1.00  0.00     0.000 HD 
ENDBRANCH  30  31
ENDBRANCH   8  30
TORSDOF 5
ENDMDL
MODEL      134
REMARK 921   NORMALIZED FREE ENERGY PREDICTED BY IDOCK:   -4.57 KCAL/MOL
REMARK 922        TOTAL FREE ENERGY PREDICTED BY IDOCK:   -7.14 KCAL/MOL
REMARK 923 INTER-LIGAND FREE ENERGY PREDICTED BY IDOCK:   -6.44 KCAL/MOL
REMARK 924 INTRA-LIGAND FREE ENERGY PREDICTED BY IDOCK:   -0.70 KCAL/MOL
REMARK 927      BINDING AFFINITY PREDICTED BY RF-SCORE:    0.00 PKD
ROOT
HETATM    1  C   UNL     1      -7.120  10.241  69.712  1.00  0.00    -0.140 C  
HETATM    2  C   UNL     1      -5.736  10.758  69.448  1.00  0.00    -0.038 C  
HETATM    3  O   UNL     1      -5.748  11.012  68.034  1.00  0.00    -0.043 OA 
HETATM    4  C   UNL     1      -6.707  10.236  67.431  1.00  0.00    -0.072 C  
HETATM    5  C   UNL     1      -7.435   9.434  68.471  1.00  0.00    -0.080 C  
HETATM    6  O   UNL     1      -6.832  10.133  66.222  1.00  0.00    -0.092 OA 
HETATM    7  C   UNL     1      -8.941   9.133  68.360  1.00  0.00    -0.133 C  
HETATM    8  C   UNL     1      -7.402   9.458  70.980  1.00  0.00    -0.024 C  
HETATM    9  C   UNL     1      -9.543   8.755  69.722  1.00  0.00    -0.173 A  
HETATM   10  C   UNL     1     -10.868   8.274  69.773  1.00  0.00    -0.186 A  
HETATM   11  O   UNL     1     -12.724   7.643  71.224  1.00  0.00    -0.321 OA 
HETATM   12  C   UNL     1     -11.443   8.047  71.005  1.00  0.00    -0.279 A  
HETATM   13  C   UNL     1      -8.822   8.923  70.947  1.00  0.00    -0.268 A  
HETATM   14  C   UNL     1     -10.757   8.251  72.178  1.00  0.00    -0.319 A  
HETATM   15  C   UNL     1     -12.789   7.715  72.663  1.00  0.00     0.354 C  
HETATM   16  O   UNL     1     -11.522   8.023  73.278  1.00  0.00    -0.254 OA 
HETATM   17  C   UNL     1      -9.448   8.665  72.183  1.00  0.00    -0.373 A  
ENDROOT
BRANCH   7  18
HETATM   18  C   UNL     1      -9.691  10.247  67.632  1.00  0.00    -0.189 A  
HETATM   19  O   UNL     1     -12.494  12.802  65.881  1.00  0.00    -0.560 OA 
HETATM   20  C   UNL     1     -10.887  11.081  65.698  1.00  0.00    -0.090 A  
HETATM   21  C   UNL     1     -10.265  11.281  68.387  1.00  0.00    -0.205 A  
HETATM   22  H   UNL     1     -12.727  12.705  64.966  1.00  0.00     0.000 HD 
HETATM   23  C   UNL     1      -9.964  10.201  66.260  1.00  0.00    -0.304 A  
HETATM   24  C   UNL     1     -11.533  12.039  66.498  1.00  0.00    -0.349 A  
HETATM   25  C   UNL     1     -11.189  12.182  67.843  1.00  0.00    -0.272 A  
BRANCH  25  26
HETATM   26  O   UNL     1     -11.625  13.075  68.782  1.00  0.00    -0.266 OA 
HETATM   27  C   UNL     1     -12.074  12.643  70.048  1.00  0.00    -0.269 C  
ENDBRANCH  25  26
BRANCH  20  28
HETATM   28  O   UNL     1     -11.272  11.014  64.373  1.00  0.00    -0.145 OA 
HETATM   29  C   UNL     1     -10.451  11.713  63.443  1.00  0.00    -0.426 C  
ENDBRANCH  20  28
ENDBRANCH   7  18
BRANCH   8  30
HETATM   30  O   UNL     1      -6.444   8.533  71.449  1.00  0.00    -0.046 OA 
BRANCH  30  31
HETATM   31  C   UNL     1      -6.262   7.201  70.959  1.00  0.00    -0.036 C  
HETATM   32  O   UNL     1      -6.939   6.967  69.717  1.00  0.00    -0.059 OA 
HETATM   33  C   UNL     1      -7.028   5.570  69.397  1.00  0.00    -0.063 C  
HETATM   34  C   UNL     1      -7.594   5.294  68.002  1.00  0.00    -0.080 C  
HETATM   35  O   UNL     1      -7.768   3.889  67.807  1.00  0.00    -0.070 OA 
HETATM   36  C   UNL     1      -8.658   3.333  68.772  1.00  0.00    -0.084 C  
HETATM   37  C   UNL     1      -8.771   1.830  68.555  1.00  0.00    -0.108 C  
HETATM   38  O   UNL     1      -8.153   3.505  70.091  1.00  0.00    -0.046 OA 
HETATM   39  C   UNL     1      -7.940   4.882  70.406  1.00  0.00    -0.070 C  
HETATM   40  C   UNL     1      -7.247   4.914  71.755  1.00  0.00    -0.067 C  
HETATM   41  O   UNL     1      -8.143   4.408  72.758  1.00  0.00    -0.092 OA 
HETATM   42  C   UNL     1      -6.773   6.317  72.138  1.00  0.00    -0.064 C  
HETATM   43  H   UNL     1      -7.710   4.427  73.603  1.00  0.00     0.000 HD 
HETATM   44  O   UNL     1      -5.725   6.228  73.135  1.00  0.00    -0.037 OA 
HETATM   45  H   UNL     1      -6.036   5.689  73.853  1.00  0.00     0.000 HD 
ENDBRANCH  30  31
ENDBRANCH   8  30
TORSDOF 5
ENDMDL
MODEL      135
REMARK 921   NORMALIZED FREE ENERGY PREDICTED BY IDOCK:   -4.50 KCAL/MOL
REMARK 922        TOTAL FREE ENERGY PREDICTED BY IDOCK:   -7.05 KCAL/MOL
REMARK 923 INTER-LIGAND FREE ENERGY PREDICTED BY IDOCK:   -6.00 KCAL/MOL
REMARK 924 INTRA-LIGAND FREE ENERGY PREDICTED BY IDOCK:   -1.06 KCAL/MOL
REMARK 927      BINDING AFFINITY PREDICTED BY RF-SCORE:    0.00 PKD
ROOT
HETATM    1  C   UNL     1      -8.678   8.935  67.226  1.00  0.00    -0.125 C  
HETATM    2  C   UNL     1      -8.468   8.870  65.741  1.00  0.00    -0.145 C  
HETATM    3  O   UNL     1      -9.360   9.881  65.244  1.00  0.00    -0.210 OA 
HETATM    4  C   UNL     1     -10.370  10.096  66.149  1.00  0.00    -0.167 C  
HETATM    5  C   UNL     1     -10.155   9.234  67.359  1.00  0.00    -0.280 C  
HETATM    6  O   UNL     1     -11.350  10.785  65.918  1.00  0.00     0.156 OA 
HETATM    7  C   UNL     1     -10.508   9.718  68.777  1.00  0.00    -0.240 C  
HETATM    8  C   UNL     1      -8.258   7.765  68.097  1.00  0.00    -0.124 C  
HETATM    9  C   UNL     1      -9.766   8.908  69.851  1.00  0.00    -0.185 A  
HETATM   10  C   UNL     1     -10.108   9.098  71.207  1.00  0.00    -0.388 A  
HETATM   11  O   UNL     1      -9.526   8.583  73.519  1.00  0.00     0.012 OA 
HETATM   12  C   UNL     1      -9.362   8.457  72.174  1.00  0.00    -0.269 A  
HETATM   13  C   UNL     1      -8.703   8.006  69.528  1.00  0.00    -0.136 A  
HETATM   14  C   UNL     1      -8.317   7.626  71.855  1.00  0.00    -0.109 A  
HETATM   15  C   UNL     1      -8.404   7.816  74.001  1.00  0.00    -0.234 C  
HETATM   16  O   UNL     1      -7.679   7.141  72.953  1.00  0.00    -0.085 OA 
HETATM   17  C   UNL     1      -7.977   7.363  70.550  1.00  0.00    -0.099 A  
ENDROOT
BRANCH   7  18
HETATM   18  C   UNL     1     -10.353  11.231  68.916  1.00  0.00    -0.214 A  
HETATM   19  O   UNL     1     -10.406  15.387  68.502  1.00  0.00    -0.219 OA 
HETATM   20  C   UNL     1      -9.290  13.317  68.292  1.00  0.00    -0.205 A  
HETATM   21  C   UNL     1     -11.419  11.974  69.445  1.00  0.00    -0.361 A  
HETATM   22  H   UNL     1      -9.688  15.838  68.075  1.00  0.00     0.000 HD 
HETATM   23  C   UNL     1      -9.254  11.927  68.397  1.00  0.00    -0.173 A  
HETATM   24  C   UNL     1     -10.418  14.033  68.729  1.00  0.00    -0.233 A  
HETATM   25  C   UNL     1     -11.474  13.371  69.357  1.00  0.00    -0.274 A  
BRANCH  25  26
HETATM   26  O   UNL     1     -12.622  13.859  69.917  1.00  0.00    -0.281 OA 
HETATM   27  C   UNL     1     -12.905  13.668  71.286  1.00  0.00    -0.344 C  
ENDBRANCH  25  26
BRANCH  20  28
HETATM   28  O   UNL     1      -8.281  14.047  67.695  1.00  0.00    -0.153 OA 
HETATM   29  C   UNL     1      -7.001  13.977  68.317  1.00  0.00    -0.107 C  
ENDBRANCH  20  28
ENDBRANCH   7  18
BRANCH   8  30
HETATM   30  O   UNL     1      -8.473   6.448  67.635  1.00  0.00    -0.117 OA 
BRANCH  30  31
HETATM   31  C   UNL     1      -7.487   5.609  67.025  1.00  0.00    -0.084 C  
HETATM   32  O   UNL     1      -7.387   5.805  65.609  1.00  0.00    -0.073 OA 
HETATM   33  C   UNL     1      -6.650   4.757  64.961  1.00  0.00    -0.044 C  
HETATM   34  C   UNL     1      -6.381   5.021  63.478  1.00  0.00    -0.026 C  
HETATM   35  O   UNL     1      -5.758   3.884  62.877  1.00  0.00    -0.012 OA 
HETATM   36  C   UNL     1      -6.573   2.720  62.986  1.00  0.00    -0.026 C  
HETATM   37  C   UNL     1      -5.846   1.528  62.379  1.00  0.00    -0.007 C  
HETATM   38  O   UNL     1      -6.808   2.388  64.350  1.00  0.00    -0.040 OA 
HETATM   39  C   UNL     1      -7.437   3.456  65.059  1.00  0.00    -0.073 C  
HETATM   40  C   UNL     1      -7.472   3.044  66.519  1.00  0.00    -0.075 C  
HETATM   41  O   UNL     1      -8.333   1.902  66.667  1.00  0.00    -0.080 OA 
HETATM   42  C   UNL     1      -7.940   4.175  67.437  1.00  0.00    -0.092 C  
HETATM   43  H   UNL     1      -8.354   1.644  67.581  1.00  0.00     0.000 HD 
HETATM   44  O   UNL     1      -7.496   3.923  68.793  1.00  0.00    -0.054 OA 
HETATM   45  H   UNL     1      -7.772   3.049  69.045  1.00  0.00     0.000 HD 
ENDBRANCH  30  31
ENDBRANCH   8  30
TORSDOF 5
ENDMDL
MODEL      136
REMARK 921   NORMALIZED FREE ENERGY PREDICTED BY IDOCK:   -4.40 KCAL/MOL
REMARK 922        TOTAL FREE ENERGY PREDICTED BY IDOCK:   -6.91 KCAL/MOL
REMARK 923 INTER-LIGAND FREE ENERGY PREDICTED BY IDOCK:   -5.66 KCAL/MOL
REMARK 924 INTRA-LIGAND FREE ENERGY PREDICTED BY IDOCK:   -1.26 KCAL/MOL
REMARK 927      BINDING AFFINITY PREDICTED BY RF-SCORE:    0.00 PKD
ROOT
HETATM    1  C   UNL     1      -6.427   9.860  69.017  1.00  0.00    -0.048 C  
HETATM    2  C   UNL     1      -6.013  10.579  70.267  1.00  0.00    -0.104 C  
HETATM    3  O   UNL     1      -6.696   9.852  71.301  1.00  0.00    -0.330 OA 
HETATM    4  C   UNL     1      -7.794   9.217  70.774  1.00  0.00    -0.149 C  
HETATM    5  C   UNL     1      -7.862   9.468  69.296  1.00  0.00    -0.088 C  
HETATM    6  O   UNL     1      -8.641   8.657  71.450  1.00  0.00    -0.161 OA 
HETATM    7  C   UNL     1      -8.356   8.395  68.309  1.00  0.00    -0.131 C  
HETATM    8  C   UNL     1      -6.280  10.545  67.671  1.00  0.00    -0.056 C  
HETATM    9  C   UNL     1      -7.879   8.682  66.877  1.00  0.00    -0.091 A  
HETATM   10  C   UNL     1      -8.390   7.901  65.818  1.00  0.00    -0.139 A  
HETATM   11  O   UNL     1      -8.214   7.372  63.444  1.00  0.00    -0.061 OA 
HETATM   12  C   UNL     1      -7.874   8.083  64.552  1.00  0.00    -0.138 A  
HETATM   13  C   UNL     1      -6.896   9.680  66.586  1.00  0.00    -0.084 A  
HETATM   14  C   UNL     1      -6.899   9.015  64.291  1.00  0.00    -0.083 A  
HETATM   15  C   UNL     1      -7.273   7.897  62.485  1.00  0.00    -0.092 C  
HETATM   16  O   UNL     1      -6.490   8.995  62.995  1.00  0.00    -0.091 OA 
HETATM   17  C   UNL     1      -6.408   9.839  65.274  1.00  0.00    -0.088 A  
ENDROOT
BRANCH   7  18
HETATM   18  C   UNL     1      -8.043   6.983  68.801  1.00  0.00    -0.121 A  
HETATM   19  O   UNL     1      -7.485   2.874  69.303  1.00  0.00    -0.044 OA 
HETATM   20  C   UNL     1      -8.759   4.832  69.655  1.00  0.00    -0.085 A  
HETATM   21  C   UNL     1      -6.829   6.390  68.426  1.00  0.00    -0.071 A  
HETATM   22  H   UNL     1      -8.166   2.340  69.695  1.00  0.00     0.000 HD 
HETATM   23  C   UNL     1      -8.981   6.196  69.481  1.00  0.00    -0.133 A  
HETATM   24  C   UNL     1      -7.580   4.238  69.172  1.00  0.00    -0.055 A  
HETATM   25  C   UNL     1      -6.579   5.022  68.596  1.00  0.00    -0.049 A  
BRANCH  25  26
HETATM   26  O   UNL     1      -5.341   4.681  68.127  1.00  0.00    -0.010 OA 
HETATM   27  C   UNL     1      -5.186   4.010  66.896  1.00  0.00    -0.012 C  
ENDBRANCH  25  26
BRANCH  20  28
HETATM   28  O   UNL     1      -9.692   3.989  70.226  1.00  0.00    -0.190 OA 
HETATM   29  C   UNL     1      -9.751   3.986  71.648  1.00  0.00    -0.172 C  
ENDBRANCH  20  28
ENDBRANCH   7  18
BRANCH   8  30
HETATM   30  O   UNL     1      -6.581  11.920  67.559  1.00  0.00    -0.084 OA 
BRANCH  30  31
HETATM   31  C   UNL     1      -7.893  12.490  67.584  1.00  0.00    -0.162 C  
HETATM   32  O   UNL     1      -8.748  11.968  66.558  1.00  0.00    -0.194 OA 
HETATM   33  C   UNL     1      -9.933  12.758  66.378  1.00  0.00    -0.265 C  
HETATM   34  C   UNL     1     -10.944  12.138  65.411  1.00  0.00    -0.302 C  
HETATM   35  O   UNL     1     -12.032  13.037  65.188  1.00  0.00    -0.354 OA 
HETATM   36  C   UNL     1     -11.586  14.274  64.639  1.00  0.00    -0.408 C  
HETATM   37  C   UNL     1     -12.771  15.213  64.467  1.00  0.00     0.261 C  
HETATM   38  O   UNL     1     -10.686  14.930  65.525  1.00  0.00    -0.312 OA 
HETATM   39  C   UNL     1      -9.545  14.123  65.821  1.00  0.00    -0.133 C  
HETATM   40  C   UNL     1      -8.764  14.857  66.895  1.00  0.00    -0.248 C  
HETATM   41  O   UNL     1      -8.255  16.086  66.352  1.00  0.00    -0.291 OA 
HETATM   42  C   UNL     1      -7.616  14.020  67.461  1.00  0.00    -0.180 C  
HETATM   43  H   UNL     1      -7.767  16.546  67.024  1.00  0.00     0.000 HD 
HETATM   44  O   UNL     1      -7.235  14.525  68.765  1.00  0.00    -0.112 OA 
HETATM   45  H   UNL     1      -7.066  15.457  68.691  1.00  0.00     0.000 HD 
ENDBRANCH  30  31
ENDBRANCH   8  30
TORSDOF 5
ENDMDL
MODEL      137
REMARK 921   NORMALIZED FREE ENERGY PREDICTED BY IDOCK:   -4.39 KCAL/MOL
REMARK 922        TOTAL FREE ENERGY PREDICTED BY IDOCK:   -6.90 KCAL/MOL
REMARK 923 INTER-LIGAND FREE ENERGY PREDICTED BY IDOCK:   -8.36 KCAL/MOL
REMARK 924 INTRA-LIGAND FREE ENERGY PREDICTED BY IDOCK:    1.46 KCAL/MOL
REMARK 927      BINDING AFFINITY PREDICTED BY RF-SCORE:    0.00 PKD
ROOT
HETATM    1  C   UNL     1      -9.691  10.977  66.767  1.00  0.00    -0.222 C  
HETATM    2  C   UNL     1      -8.848  10.892  65.528  1.00  0.00    -0.188 C  
HETATM    3  O   UNL     1      -9.204  12.084  64.811  1.00  0.00     0.131 OA 
HETATM    4  C   UNL     1     -10.453  12.505  65.200  1.00  0.00    -0.293 C  
HETATM    5  C   UNL     1     -10.980  11.597  66.272  1.00  0.00    -0.338 C  
HETATM    6  O   UNL     1     -11.068  13.399  64.644  1.00  0.00    -0.332 OA 
HETATM    7  C   UNL     1     -11.836  12.124  67.437  1.00  0.00    -0.297 C  
HETATM    8  C   UNL     1      -9.945   9.729  67.592  1.00  0.00    -0.174 C  
HETATM    9  C   UNL     1     -11.833  11.152  68.627  1.00  0.00    -0.357 A  
HETATM   10  C   UNL     1     -12.709  11.391  69.706  1.00  0.00     0.085 A  
HETATM   11  O   UNL     1     -13.349  10.721  71.963  1.00  0.00    -0.447 OA 
HETATM   12  C   UNL     1     -12.621  10.584  70.822  1.00  0.00    -0.382 A  
HETATM   13  C   UNL     1     -10.935  10.040  68.700  1.00  0.00    -0.247 A  
HETATM   14  C   UNL     1     -11.726   9.545  70.899  1.00  0.00    -0.317 A  
HETATM   15  C   UNL     1     -12.738   9.715  72.796  1.00  0.00     0.431 C  
HETATM   16  O   UNL     1     -11.763   8.912  72.102  1.00  0.00    -0.363 OA 
HETATM   17  C   UNL     1     -10.890   9.234  69.855  1.00  0.00    -0.252 A  
ENDROOT
BRANCH   7  18
HETATM   18  C   UNL     1     -11.473  13.562  67.805  1.00  0.00    -0.349 A  
HETATM   19  O   UNL     1      -9.616  17.159  68.836  1.00  0.00    -0.268 OA 
HETATM   20  C   UNL     1     -10.846  15.235  69.440  1.00  0.00    -0.262 A  
HETATM   21  C   UNL     1     -10.993  14.415  66.800  1.00  0.00    -0.314 A  
HETATM   22  H   UNL     1      -9.539  17.417  69.746  1.00  0.00     0.000 HD 
HETATM   23  C   UNL     1     -11.453  14.020  69.128  1.00  0.00    -0.340 A  
HETATM   24  C   UNL     1     -10.273  16.023  68.428  1.00  0.00    -0.236 A  
HETATM   25  C   UNL     1     -10.385  15.644  67.089  1.00  0.00    -0.285 A  
BRANCH  25  26
HETATM   26  O   UNL     1      -9.975  16.276  65.948  1.00  0.00    -0.313 OA 
HETATM   27  C   UNL     1     -10.025  17.681  65.834  1.00  0.00    -0.125 C  
ENDBRANCH  25  26
BRANCH  20  28
HETATM   28  O   UNL     1     -10.706  15.688  70.737  1.00  0.00    -0.303 OA 
HETATM   29  C   UNL     1     -11.910  16.006  71.427  1.00  0.00    -0.470 C  
ENDBRANCH  20  28
ENDBRANCH   7  18
BRANCH   8  30
HETATM   30  O   UNL     1     -10.176   8.501  66.934  1.00  0.00    -0.261 OA 
BRANCH  30  31
HETATM   31  C   UNL     1      -9.508   7.267  67.216  1.00  0.00    -0.138 C  
HETATM   32  O   UNL     1     -10.100   6.550  68.307  1.00  0.00    -0.144 OA 
HETATM   33  C   UNL     1      -9.254   5.496  68.793  1.00  0.00    -0.122 C  
HETATM   34  C   UNL     1      -9.922   4.606  69.843  1.00  0.00    -0.226 C  
HETATM   35  O   UNL     1      -8.982   3.666  70.367  1.00  0.00    -0.080 OA 
HETATM   36  C   UNL     1      -7.870   4.320  70.974  1.00  0.00    -0.067 C  
HETATM   37  C   UNL     1      -6.875   3.280  71.469  1.00  0.00    -0.031 C  
HETATM   38  O   UNL     1      -7.169   5.119  70.027  1.00  0.00    -0.056 OA 
HETATM   39  C   UNL     1      -8.013   6.106  69.433  1.00  0.00    -0.104 C  
HETATM   40  C   UNL     1      -7.199   6.764  68.334  1.00  0.00    -0.085 C  
HETATM   41  O   UNL     1      -6.100   7.478  68.923  1.00  0.00    -0.029 OA 
HETATM   42  C   UNL     1      -8.036   7.712  67.472  1.00  0.00    -0.120 C  
HETATM   43  H   UNL     1      -5.590   7.890  68.236  1.00  0.00     0.000 HD 
HETATM   44  O   UNL     1      -7.387   7.916  66.193  1.00  0.00    -0.072 OA 
HETATM   45  H   UNL     1      -6.489   8.187  66.349  1.00  0.00     0.000 HD 
ENDBRANCH  30  31
ENDBRANCH   8  30
TORSDOF 5
ENDMDL
MODEL      138
REMARK 921   NORMALIZED FREE ENERGY PREDICTED BY IDOCK:   -4.36 KCAL/MOL
REMARK 922        TOTAL FREE ENERGY PREDICTED BY IDOCK:   -6.87 KCAL/MOL
REMARK 923 INTER-LIGAND FREE ENERGY PREDICTED BY IDOCK:   -5.47 KCAL/MOL
REMARK 924 INTRA-LIGAND FREE ENERGY PREDICTED BY IDOCK:   -1.41 KCAL/MOL
REMARK 927      BINDING AFFINITY PREDICTED BY RF-SCORE:    0.00 PKD
ROOT
HETATM    1  C   UNL     1      -9.618  11.326  66.682  1.00  0.00    -0.218 C  
HETATM    2  C   UNL     1     -10.646  11.155  65.602  1.00  0.00    -0.223 C  
HETATM    3  O   UNL     1     -10.484   9.782  65.214  1.00  0.00     0.033 OA 
HETATM    4  C   UNL     1      -9.216   9.357  65.528  1.00  0.00    -0.232 C  
HETATM    5  C   UNL     1      -8.467  10.465  66.209  1.00  0.00    -0.145 C  
HETATM    6  O   UNL     1      -8.754   8.286  65.171  1.00  0.00    -0.149 OA 
HETATM    7  C   UNL     1      -7.464  10.192  67.344  1.00  0.00    -0.094 C  
HETATM    8  C   UNL     1      -9.158  12.719  67.069  1.00  0.00    -0.220 C  
HETATM    9  C   UNL     1      -7.214  11.448  68.193  1.00  0.00    -0.082 A  
HETATM   10  C   UNL     1      -6.188  11.425  69.161  1.00  0.00    -0.064 A  
HETATM   11  O   UNL     1      -5.149  12.618  71.017  1.00  0.00    -0.126 OA 
HETATM   12  C   UNL     1      -6.044  12.511  69.999  1.00  0.00    -0.117 A  
HETATM   13  C   UNL     1      -8.021  12.624  68.070  1.00  0.00    -0.155 A  
HETATM   14  C   UNL     1      -6.851  13.619  69.900  1.00  0.00     0.206 A  
HETATM   15  C   UNL     1      -5.554  13.871  71.604  1.00  0.00    -0.226 C  
HETATM   16  O   UNL     1      -6.581  14.550  70.853  1.00  0.00    -0.002 OA 
HETATM   17  C   UNL     1      -7.828  13.715  68.940  1.00  0.00     0.035 A  
ENDROOT
BRANCH   7  18
HETATM   18  C   UNL     1      -7.846   8.955  68.156  1.00  0.00    -0.101 A  
HETATM   19  O   UNL     1      -9.077   5.212  69.542  1.00  0.00    -0.103 OA 
HETATM   20  C   UNL     1      -9.516   7.496  69.130  1.00  0.00    -0.150 A  
HETATM   21  C   UNL     1      -6.915   7.913  68.279  1.00  0.00    -0.073 A  
HETATM   22  H   UNL     1      -9.980   5.067  69.800  1.00  0.00     0.000 HD 
HETATM   23  C   UNL     1      -9.139   8.750  68.653  1.00  0.00    -0.141 A  
HETATM   24  C   UNL     1      -8.595   6.434  69.142  1.00  0.00    -0.125 A  
HETATM   25  C   UNL     1      -7.269   6.647  68.763  1.00  0.00    -0.085 A  
BRANCH  25  26
HETATM   26  O   UNL     1      -6.198   5.797  68.759  1.00  0.00    -0.026 OA 
HETATM   27  C   UNL     1      -6.180   4.647  67.941  1.00  0.00    -0.036 C  
ENDBRANCH  25  26
BRANCH  20  28
HETATM   28  O   UNL     1     -10.804   7.208  69.537  1.00  0.00    -0.239 OA 
HETATM   29  C   UNL     1     -11.690   8.316  69.655  1.00  0.00     0.687 C  
ENDBRANCH  20  28
ENDBRANCH   7  18
BRANCH   8  30
HETATM   30  O   UNL     1      -8.966  13.689  66.062  1.00  0.00     0.116 OA 
BRANCH  30  31
HETATM   31  C   UNL     1      -9.523  15.008  66.057  1.00  0.00    -0.302 C  
HETATM   32  O   UNL     1      -8.577  16.013  66.445  1.00  0.00    -0.282 OA 
HETATM   33  C   UNL     1      -9.206  17.267  66.752  1.00  0.00    -0.255 C  
HETATM   34  C   UNL     1      -8.215  18.405  67.007  1.00  0.00    -0.247 C  
HETATM   35  O   UNL     1      -8.909  19.581  67.427  1.00  0.00    -0.293 OA 
HETATM   36  C   UNL     1      -9.649  19.354  68.624  1.00  0.00    -0.426 C  
HETATM   37  C   UNL     1     -10.409  20.617  69.002  1.00  0.00     0.313 C  
HETATM   38  O   UNL     1     -10.633  18.343  68.431  1.00  0.00    -0.300 OA 
HETATM   39  C   UNL     1     -10.053  17.108  68.009  1.00  0.00    -0.311 C  
HETATM   40  C   UNL     1     -11.207  16.180  67.677  1.00  0.00    -0.147 C  
HETATM   41  O   UNL     1     -11.940  15.890  68.878  1.00  0.00    -0.476 OA 
HETATM   42  C   UNL     1     -10.743  14.879  67.019  1.00  0.00    -0.307 C  
HETATM   43  H   UNL     1     -12.663  15.310  68.670  1.00  0.00     0.000 HD 
HETATM   44  O   UNL     1     -11.842  14.278  66.291  1.00  0.00    -0.380 OA 
HETATM   45  H   UNL     1     -12.587  14.199  66.877  1.00  0.00     0.000 HD 
ENDBRANCH  30  31
ENDBRANCH   8  30
TORSDOF 5
ENDMDL
MODEL      139
REMARK 921   NORMALIZED FREE ENERGY PREDICTED BY IDOCK:   -4.35 KCAL/MOL
REMARK 922        TOTAL FREE ENERGY PREDICTED BY IDOCK:   -6.85 KCAL/MOL
REMARK 923 INTER-LIGAND FREE ENERGY PREDICTED BY IDOCK:   -5.82 KCAL/MOL
REMARK 924 INTRA-LIGAND FREE ENERGY PREDICTED BY IDOCK:   -1.03 KCAL/MOL
REMARK 927      BINDING AFFINITY PREDICTED BY RF-SCORE:    0.00 PKD
ROOT
HETATM    1  C   UNL     1     -10.402   7.615  67.880  1.00  0.00    -0.270 C  
HETATM    2  C   UNL     1     -11.652   7.163  67.183  1.00  0.00     1.066 C  
HETATM    3  O   UNL     1     -11.407   5.766  66.952  1.00  0.00     0.048 OA 
HETATM    4  C   UNL     1     -10.054   5.529  66.933  1.00  0.00    -0.203 C  
HETATM    5  C   UNL     1      -9.314   6.805  67.210  1.00  0.00    -0.148 C  
HETATM    6  O   UNL     1      -9.559   4.464  66.603  1.00  0.00    -0.167 OA 
HETATM    7  C   UNL     1      -8.009   6.829  68.025  1.00  0.00    -0.114 C  
HETATM    8  C   UNL     1     -10.058   9.092  67.925  1.00  0.00    -0.199 C  
HETATM    9  C   UNL     1      -7.719   8.229  68.587  1.00  0.00    -0.114 A  
HETATM   10  C   UNL     1      -6.474   8.473  69.205  1.00  0.00    -0.043 A  
HETATM   11  O   UNL     1      -5.147  10.061  70.496  1.00  0.00    -0.032 OA 
HETATM   12  C   UNL     1      -6.263   9.694  69.809  1.00  0.00    -0.045 A  
HETATM   13  C   UNL     1      -8.688   9.281  68.550  1.00  0.00    -0.128 A  
HETATM   14  C   UNL     1      -7.216  10.683  69.805  1.00  0.00    -0.131 A  
HETATM   15  C   UNL     1      -5.550  11.349  71.002  1.00  0.00    -0.015 C  
HETATM   16  O   UNL     1      -6.831  11.785  70.502  1.00  0.00     0.264 OA 
HETATM   17  C   UNL     1      -8.422  10.518  69.170  1.00  0.00    -0.152 A  
ENDROOT
BRANCH   7  18
HETATM   18  C   UNL     1      -7.971   5.716  69.072  1.00  0.00    -0.096 A  
HETATM   19  O   UNL     1      -7.258   3.231  72.352  1.00  0.00    -0.044 OA 
HETATM   20  C   UNL     1      -6.888   3.804  70.091  1.00  0.00    -0.034 A  
HETATM   21  C   UNL     1      -8.736   5.860  70.239  1.00  0.00    -0.142 A  
HETATM   22  H   UNL     1      -6.598   2.549  72.305  1.00  0.00     0.000 HD 
HETATM   23  C   UNL     1      -7.090   4.631  68.988  1.00  0.00    -0.052 A  
HETATM   24  C   UNL     1      -7.586   4.036  71.289  1.00  0.00    -0.055 A  
HETATM   25  C   UNL     1      -8.556   5.037  71.358  1.00  0.00    -0.126 A  
BRANCH  25  26
HETATM   26  O   UNL     1      -9.396   5.393  72.377  1.00  0.00    -0.143 OA 
HETATM   27  C   UNL     1     -10.774   5.593  72.151  1.00  0.00    -0.234 C  
ENDBRANCH  25  26
BRANCH  20  28
HETATM   28  O   UNL     1      -5.957   2.784  70.099  1.00  0.00    -0.021 OA 
HETATM   29  C   UNL     1      -6.260   1.649  69.294  1.00  0.00    -0.025 C  
ENDBRANCH  20  28
ENDBRANCH   7  18
BRANCH   8  30
HETATM   30  O   UNL     1     -10.292   9.892  66.784  1.00  0.00    -0.229 OA 
BRANCH  30  31
HETATM   31  C   UNL     1     -10.981  11.146  66.774  1.00  0.00    -0.249 C  
HETATM   32  O   UNL     1     -10.217  12.196  66.165  1.00  0.00    -0.218 OA 
HETATM   33  C   UNL     1     -10.758  13.497  66.441  1.00  0.00    -0.287 C  
HETATM   34  C   UNL     1     -10.067  14.626  65.673  1.00  0.00    -0.363 C  
HETATM   35  O   UNL     1     -10.574  15.894  66.093  1.00  0.00    -0.307 OA 
HETATM   36  C   UNL     1     -10.364  16.106  67.486  1.00  0.00    -0.286 C  
HETATM   37  C   UNL     1     -10.965  17.445  67.895  1.00  0.00    -0.156 C  
HETATM   38  O   UNL     1     -11.037  15.118  68.260  1.00  0.00    -0.267 OA 
HETATM   39  C   UNL     1     -10.608  13.797  67.928  1.00  0.00    -0.252 C  
HETATM   40  C   UNL     1     -11.513  12.846  68.688  1.00  0.00    -0.308 C  
HETATM   41  O   UNL     1     -11.283  13.000  70.098  1.00  0.00    -0.467 OA 
HETATM   42  C   UNL     1     -11.304  11.386  68.280  1.00  0.00    -0.286 C  
HETATM   43  H   UNL     1     -11.850  12.405  70.574  1.00  0.00     0.000 HD 
HETATM   44  O   UNL     1     -12.473  10.605  68.631  1.00  0.00    -0.788 OA 
HETATM   45  H   UNL     1     -12.669  10.751  69.549  1.00  0.00     0.000 HD 
ENDBRANCH  30  31
ENDBRANCH   8  30
TORSDOF 5
ENDMDL
MODEL      140
REMARK 921   NORMALIZED FREE ENERGY PREDICTED BY IDOCK:   -4.30 KCAL/MOL
REMARK 922        TOTAL FREE ENERGY PREDICTED BY IDOCK:   -6.79 KCAL/MOL
REMARK 923 INTER-LIGAND FREE ENERGY PREDICTED BY IDOCK:   -7.45 KCAL/MOL
REMARK 924 INTRA-LIGAND FREE ENERGY PREDICTED BY IDOCK:    0.66 KCAL/MOL
REMARK 927      BINDING AFFINITY PREDICTED BY RF-SCORE:    0.00 PKD
ROOT
HETATM    1  C   UNL     1      -8.003  13.740  68.406  1.00  0.00    -0.144 C  
HETATM    2  C   UNL     1      -6.778  13.077  67.849  1.00  0.00    -0.129 C  
HETATM    3  O   UNL     1      -6.099  14.155  67.185  1.00  0.00    -0.196 OA 
HETATM    4  C   UNL     1      -7.001  15.137  66.852  1.00  0.00     0.520 C  
HETATM    5  C   UNL     1      -8.367  14.756  67.345  1.00  0.00    -0.218 C  
HETATM    6  O   UNL     1      -6.729  16.093  66.145  1.00  0.00     0.290 OA 
HETATM    7  C   UNL     1      -9.360  15.802  67.881  1.00  0.00    -0.200 C  
HETATM    8  C   UNL     1      -9.198  12.897  68.811  1.00  0.00     0.163 C  
HETATM    9  C   UNL     1     -10.442  15.156  68.759  1.00  0.00    -0.234 A  
HETATM   10  C   UNL     1     -11.535  15.941  69.184  1.00  0.00    -0.377 A  
HETATM   11  O   UNL     1     -13.510  16.033  70.613  1.00  0.00    -0.122 OA 
HETATM   12  C   UNL     1     -12.442  15.391  70.065  1.00  0.00    -0.283 A  
HETATM   13  C   UNL     1     -10.353  13.799  69.204  1.00  0.00     0.010 A  
HETATM   14  C   UNL     1     -12.325  14.100  70.520  1.00  0.00    -0.364 A  
HETATM   15  C   UNL     1     -13.986  15.030  71.534  1.00  0.00    -0.501 C  
HETATM   16  O   UNL     1     -13.287  13.774  71.422  1.00  0.00    -0.326 OA 
HETATM   17  C   UNL     1     -11.312  13.276  70.095  1.00  0.00     0.101 A  
ENDROOT
BRANCH   7  18
HETATM   18  C   UNL     1      -8.644  16.982  68.537  1.00  0.00    -0.257 A  
HETATM   19  O   UNL     1      -6.196  20.212  69.545  1.00  0.00    -0.310 OA 
HETATM   20  C   UNL     1      -6.739  17.919  69.702  1.00  0.00    -0.005 A  
HETATM   21  C   UNL     1      -9.022  18.285  68.180  1.00  0.00    -0.314 A  
HETATM   22  H   UNL     1      -5.397  20.075  70.039  1.00  0.00     0.000 HD 
HETATM   23  C   UNL     1      -7.525  16.820  69.363  1.00  0.00    -0.032 A  
HETATM   24  C   UNL     1      -7.076  19.203  69.241  1.00  0.00    -0.273 A  
HETATM   25  C   UNL     1      -8.252  19.406  68.516  1.00  0.00    -0.357 A  
BRANCH  25  26
HETATM   26  O   UNL     1      -8.811  20.556  68.031  1.00  0.00    -0.083 OA 
HETATM   27  C   UNL     1     -10.112  20.562  67.486  1.00  0.00    -0.296 C  
ENDBRANCH  25  26
BRANCH  20  28
HETATM   28  O   UNL     1      -5.569  17.805  70.427  1.00  0.00    -0.250 OA 
HETATM   29  C   UNL     1      -5.369  18.768  71.457  1.00  0.00    -0.247 C  
ENDBRANCH  20  28
ENDBRANCH   7  18
BRANCH   8  30
HETATM   30  O   UNL     1      -9.567  11.793  68.012  1.00  0.00    -0.175 OA 
BRANCH  30  31
HETATM   31  C   UNL     1     -10.065  10.542  68.498  1.00  0.00    -0.173 C  
HETATM   32  O   UNL     1     -10.697  10.654  69.780  1.00  0.00    -0.256 OA 
HETATM   33  C   UNL     1     -10.901   9.377  70.404  1.00  0.00    -0.269 C  
HETATM   34  C   UNL     1     -11.721   9.447  71.694  1.00  0.00    -0.398 C  
HETATM   35  O   UNL     1     -11.773   8.162  72.318  1.00  0.00    -0.329 OA 
HETATM   36  C   UNL     1     -10.470   7.683  72.640  1.00  0.00    -0.287 C  
HETATM   37  C   UNL     1     -10.574   6.294  73.254  1.00  0.00    -0.284 C  
HETATM   38  O   UNL     1      -9.676   7.538  71.467  1.00  0.00    -0.165 OA 
HETATM   39  C   UNL     1      -9.548   8.769  70.754  1.00  0.00    -0.208 C  
HETATM   40  C   UNL     1      -8.835   8.443  69.455  1.00  0.00    -0.142 C  
HETATM   41  O   UNL     1      -7.497   8.008  69.746  1.00  0.00    -0.085 OA 
HETATM   42  C   UNL     1      -8.800   9.631  68.491  1.00  0.00    -0.124 C  
HETATM   43  H   UNL     1      -7.051   7.803  68.933  1.00  0.00     0.000 HD 
HETATM   44  O   UNL     1      -8.580   9.160  67.138  1.00  0.00    -0.119 OA 
HETATM   45  H   UNL     1      -7.809   8.604  67.133  1.00  0.00     0.000 HD 
ENDBRANCH  30  31
ENDBRANCH   8  30
TORSDOF 5
ENDMDL
MODEL      141
REMARK 921   NORMALIZED FREE ENERGY PREDICTED BY IDOCK:   -4.27 KCAL/MOL
REMARK 922        TOTAL FREE ENERGY PREDICTED BY IDOCK:   -6.75 KCAL/MOL
REMARK 923 INTER-LIGAND FREE ENERGY PREDICTED BY IDOCK:   -7.51 KCAL/MOL
REMARK 924 INTRA-LIGAND FREE ENERGY PREDICTED BY IDOCK:    0.76 KCAL/MOL
REMARK 927      BINDING AFFINITY PREDICTED BY RF-SCORE:    0.00 PKD
ROOT
HETATM    1  C   UNL     1     -11.344   9.799  69.077  1.00  0.00    -0.013 C  
HETATM    2  C   UNL     1     -12.043  10.883  69.845  1.00  0.00    -0.354 C  
HETATM    3  O   UNL     1     -11.437  12.082  69.336  1.00  0.00    -0.273 OA 
HETATM    4  C   UNL     1     -10.194  11.795  68.827  1.00  0.00    -0.160 C  
HETATM    5  C   UNL     1      -9.931  10.322  68.939  1.00  0.00    -0.209 C  
HETATM    6  O   UNL     1      -9.396  12.646  68.473  1.00  0.00    -0.178 OA 
HETATM    7  C   UNL     1      -9.147   9.551  67.862  1.00  0.00    -0.131 C  
HETATM    8  C   UNL     1     -11.370   8.373  69.596  1.00  0.00     0.223 C  
HETATM    9  C   UNL     1      -9.428   8.042  67.930  1.00  0.00    -0.161 A  
HETATM   10  C   UNL     1      -8.656   7.167  67.136  1.00  0.00    -0.121 A  
HETATM   11  O   UNL     1      -8.383   4.873  66.355  1.00  0.00    -0.108 OA 
HETATM   12  C   UNL     1      -8.987   5.829  67.111  1.00  0.00    -0.113 A  
HETATM   13  C   UNL     1     -10.480   7.498  68.733  1.00  0.00    -0.212 A  
HETATM   14  C   UNL     1     -10.027   5.322  67.853  1.00  0.00    -0.160 A  
HETATM   15  C   UNL     1      -9.225   3.735  66.633  1.00  0.00    -0.174 C  
HETATM   16  O   UNL     1     -10.221   3.994  67.644  1.00  0.00     0.086 OA 
HETATM   17  C   UNL     1     -10.774   6.120  68.685  1.00  0.00    -0.370 A  
ENDROOT
BRANCH   7  18
HETATM   18  C   UNL     1      -9.337  10.160  66.474  1.00  0.00    -0.200 A  
HETATM   19  O   UNL     1     -10.362  11.063  62.527  1.00  0.00    -0.672 OA 
HETATM   20  C   UNL     1      -8.810  10.251  64.111  1.00  0.00    -0.222 A  
HETATM   21  C   UNL     1     -10.520  10.862  66.201  1.00  0.00    -0.290 A  
HETATM   22  H   UNL     1      -9.785  10.820  61.812  1.00  0.00     0.000 HD 
HETATM   23  C   UNL     1      -8.452   9.918  65.416  1.00  0.00    -0.155 A  
HETATM   24  C   UNL     1     -10.052  10.855  63.849  1.00  0.00    -0.361 A  
HETATM   25  C   UNL     1     -10.899  11.213  64.899  1.00  0.00    -0.190 A  
BRANCH  25  26
HETATM   26  O   UNL     1     -12.102  11.863  64.889  1.00  0.00    -0.243 OA 
HETATM   27  C   UNL     1     -12.222  13.185  65.365  1.00  0.00    -0.461 C  
ENDBRANCH  25  26
BRANCH  20  28
HETATM   28  O   UNL     1      -8.023   9.943  63.019  1.00  0.00    -0.129 OA 
HETATM   29  C   UNL     1      -7.666   8.573  62.866  1.00  0.00    -0.124 C  
ENDBRANCH  20  28
ENDBRANCH   7  18
BRANCH   8  30
HETATM   30  O   UNL     1     -11.246   8.140  70.983  1.00  0.00    -0.250 OA 
BRANCH  30  31
HETATM   31  C   UNL     1     -10.042   7.767  71.660  1.00  0.00    -0.185 C  
HETATM   32  O   UNL     1      -8.995   7.378  70.762  1.00  0.00    -0.149 OA 
HETATM   33  C   UNL     1      -7.918   6.705  71.435  1.00  0.00    -0.107 C  
HETATM   34  C   UNL     1      -6.712   6.425  70.536  1.00  0.00    -0.053 C  
HETATM   35  O   UNL     1      -5.741   5.647  71.239  1.00  0.00    -0.016 OA 
HETATM   36  C   UNL     1      -6.280   4.400  71.670  1.00  0.00    -0.018 C  
HETATM   37  C   UNL     1      -5.226   3.632  72.455  1.00  0.00     0.000 C  
HETATM   38  O   UNL     1      -7.372   4.597  72.561  1.00  0.00    -0.078 OA 
HETATM   39  C   UNL     1      -8.417   5.366  71.963  1.00  0.00    -0.127 C  
HETATM   40  C   UNL     1      -9.428   5.646  73.060  1.00  0.00    -0.150 C  
HETATM   41  O   UNL     1     -10.028   4.409  73.476  1.00  0.00    -0.132 OA 
HETATM   42  C   UNL     1     -10.512   6.632  72.619  1.00  0.00    -0.212 C  
HETATM   43  H   UNL     1     -10.661   4.584  74.163  1.00  0.00     0.000 HD 
HETATM   44  O   UNL     1     -11.128   7.237  73.783  1.00  0.00    -0.557 OA 
HETATM   45  H   UNL     1     -11.415   6.545  74.368  1.00  0.00     0.000 HD 
ENDBRANCH  30  31
ENDBRANCH   8  30
TORSDOF 5
ENDMDL
MODEL      142
REMARK 921   NORMALIZED FREE ENERGY PREDICTED BY IDOCK:   -4.25 KCAL/MOL
REMARK 922        TOTAL FREE ENERGY PREDICTED BY IDOCK:   -6.72 KCAL/MOL
REMARK 923 INTER-LIGAND FREE ENERGY PREDICTED BY IDOCK:   -6.02 KCAL/MOL
REMARK 924 INTRA-LIGAND FREE ENERGY PREDICTED BY IDOCK:   -0.70 KCAL/MOL
REMARK 927      BINDING AFFINITY PREDICTED BY RF-SCORE:    0.00 PKD
ROOT
HETATM    1  C   UNL     1     -10.280   7.225  69.195  1.00  0.00    -0.197 C  
HETATM    2  C   UNL     1     -11.513   6.485  68.766  1.00  0.00    -0.005 C  
HETATM    3  O   UNL     1     -11.158   5.110  68.981  1.00  0.00     0.330 OA 
HETATM    4  C   UNL     1      -9.792   4.973  68.950  1.00  0.00    -0.175 C  
HETATM    5  C   UNL     1      -9.154   6.317  68.751  1.00  0.00    -0.127 C  
HETATM    6  O   UNL     1      -9.220   3.895  68.948  1.00  0.00    -0.126 OA 
HETATM    7  C   UNL     1      -7.824   6.695  69.426  1.00  0.00    -0.113 C  
HETATM    8  C   UNL     1     -10.064   8.656  68.739  1.00  0.00    -0.196 C  
HETATM    9  C   UNL     1      -7.633   8.218  69.487  1.00  0.00    -0.095 A  
HETATM   10  C   UNL     1      -6.390   8.734  69.909  1.00  0.00    -0.037 A  
HETATM   11  O   UNL     1      -5.153  10.743  70.529  1.00  0.00    -0.059 OA 
HETATM   12  C   UNL     1      -6.260  10.098  70.073  1.00  0.00    -0.076 A  
HETATM   13  C   UNL     1      -8.691   9.131  69.178  1.00  0.00    -0.138 A  
HETATM   14  C   UNL     1      -7.295  10.964  69.814  1.00  0.00    -0.007 A  
HETATM   15  C   UNL     1      -5.646  12.096  70.620  1.00  0.00    -0.157 C  
HETATM   16  O   UNL     1      -6.978  12.256  70.092  1.00  0.00     0.334 OA 
HETATM   17  C   UNL     1      -8.508  10.518  69.348  1.00  0.00    -0.106 A  
ENDROOT
BRANCH   7  18
HETATM   18  C   UNL     1      -7.648   5.989  70.770  1.00  0.00    -0.093 A  
HETATM   19  O   UNL     1      -7.682   3.399  74.047  1.00  0.00    -0.063 OA 
HETATM   20  C   UNL     1      -8.501   5.315  72.935  1.00  0.00    -0.116 A  
HETATM   21  C   UNL     1      -6.664   4.997  70.889  1.00  0.00    -0.036 A  
HETATM   22  H   UNL     1      -8.337   3.494  74.728  1.00  0.00     0.000 HD 
HETATM   23  C   UNL     1      -8.527   6.181  71.843  1.00  0.00    -0.129 A  
HETATM   24  C   UNL     1      -7.576   4.258  72.980  1.00  0.00    -0.081 A  
HETATM   25  C   UNL     1      -6.613   4.119  71.980  1.00  0.00    -0.022 A  
BRANCH  25  26
HETATM   26  O   UNL     1      -5.585   3.226  71.852  1.00  0.00    -0.007 OA 
HETATM   27  C   UNL     1      -5.291   2.626  70.610  1.00  0.00    -0.004 C  
ENDBRANCH  25  26
BRANCH  20  28
HETATM   28  O   UNL     1      -9.410   5.393  73.972  1.00  0.00    -0.131 OA 
HETATM   29  C   UNL     1     -10.650   6.027  73.676  1.00  0.00    -0.264 C  
ENDBRANCH  20  28
ENDBRANCH   7  18
BRANCH   8  30
HETATM   30  O   UNL     1     -10.412   9.022  67.421  1.00  0.00    -0.249 OA 
BRANCH  30  31
HETATM   31  C   UNL     1     -11.080  10.229  67.040  1.00  0.00    -0.032 C  
HETATM   32  O   UNL     1     -10.328  11.008  66.100  1.00  0.00    -0.239 OA 
HETATM   33  C   UNL     1     -10.834  12.346  65.970  1.00  0.00    -0.273 C  
HETATM   34  C   UNL     1     -10.162  13.151  64.856  1.00  0.00    -0.287 C  
HETATM   35  O   UNL     1     -10.626  14.503  64.872  1.00  0.00    -0.409 OA 
HETATM   36  C   UNL     1     -10.347  15.138  66.117  1.00  0.00    -0.301 C  
HETATM   37  C   UNL     1     -10.905  16.555  66.103  1.00  0.00    -0.050 C  
HETATM   38  O   UNL     1     -10.999  14.467  67.190  1.00  0.00    -0.291 OA 
HETATM   39  C   UNL     1     -10.607  13.096  67.278  1.00  0.00    -0.246 C  
HETATM   40  C   UNL     1     -11.491  12.462  68.336  1.00  0.00    -0.310 C  
HETATM   41  O   UNL     1     -11.192  13.047  69.614  1.00  0.00    -0.454 OA 
HETATM   42  C   UNL     1     -11.326  10.942  68.404  1.00  0.00    -0.304 C  
HETATM   43  H   UNL     1     -11.745  12.650  70.276  1.00  0.00     0.000 HD 
HETATM   44  O   UNL     1     -12.490  10.349  69.031  1.00  0.00    -0.680 OA 
HETATM   45  H   UNL     1     -12.640  10.784  69.863  1.00  0.00     0.000 HD 
ENDBRANCH  30  31
ENDBRANCH   8  30
TORSDOF 5
ENDMDL
MODEL      143
REMARK 921   NORMALIZED FREE ENERGY PREDICTED BY IDOCK:   -4.24 KCAL/MOL
REMARK 922        TOTAL FREE ENERGY PREDICTED BY IDOCK:   -6.71 KCAL/MOL
REMARK 923 INTER-LIGAND FREE ENERGY PREDICTED BY IDOCK:   -6.86 KCAL/MOL
REMARK 924 INTRA-LIGAND FREE ENERGY PREDICTED BY IDOCK:    0.14 KCAL/MOL
REMARK 927      BINDING AFFINITY PREDICTED BY RF-SCORE:    0.00 PKD
ROOT
HETATM    1  C   UNL     1      -9.420  11.602  68.158  1.00  0.00    -0.191 C  
HETATM    2  C   UNL     1      -9.914  12.584  69.180  1.00  0.00     0.387 C  
HETATM    3  O   UNL     1     -11.141  11.990  69.633  1.00  0.00    -0.146 OA 
HETATM    4  C   UNL     1     -11.635  11.149  68.665  1.00  0.00    -0.315 C  
HETATM    5  C   UNL     1     -10.691  11.111  67.499  1.00  0.00    -0.280 C  
HETATM    6  O   UNL     1     -12.739  10.634  68.717  1.00  0.00     0.058 OA 
HETATM    7  C   UNL     1     -10.447   9.825  66.690  1.00  0.00    -0.233 C  
HETATM    8  C   UNL     1      -8.387  12.037  67.135  1.00  0.00    -0.181 C  
HETATM    9  C   UNL     1      -9.127   9.892  65.907  1.00  0.00    -0.201 A  
HETATM   10  C   UNL     1      -8.835   8.875  64.973  1.00  0.00    -0.183 A  
HETATM   11  O   UNL     1      -7.146   7.937  63.484  1.00  0.00    -0.073 OA 
HETATM   12  C   UNL     1      -7.600   8.875  64.358  1.00  0.00    -0.114 A  
HETATM   13  C   UNL     1      -8.159  10.922  66.130  1.00  0.00    -0.160 A  
HETATM   14  C   UNL     1      -6.662   9.846  64.611  1.00  0.00    -0.123 A  
HETATM   15  C   UNL     1      -5.785   8.376  63.298  1.00  0.00    -0.068 C  
HETATM   16  O   UNL     1      -5.495   9.631  63.947  1.00  0.00    -0.068 OA 
HETATM   17  C   UNL     1      -6.915  10.888  65.469  1.00  0.00     0.113 A  
ENDROOT
BRANCH   7  18
HETATM   18  C   UNL     1     -10.600   8.573  67.552  1.00  0.00    -0.284 A  
HETATM   19  O   UNL     1     -10.099   5.092  69.805  1.00  0.00    -0.231 OA 
HETATM   20  C   UNL     1     -10.698   6.164  67.788  1.00  0.00    -0.303 A  
HETATM   21  C   UNL     1     -10.327   8.661  68.925  1.00  0.00    -0.228 A  
HETATM   22  H   UNL     1     -10.194   4.238  69.399  1.00  0.00     0.000 HD 
HETATM   23  C   UNL     1     -10.851   7.308  67.006  1.00  0.00    -0.350 A  
HETATM   24  C   UNL     1     -10.316   6.272  69.136  1.00  0.00    -0.216 A  
HETATM   25  C   UNL     1     -10.176   7.526  69.732  1.00  0.00    -0.211 A  
BRANCH  25  26
HETATM   26  O   UNL     1      -9.885   7.869  71.023  1.00  0.00    -0.170 OA 
HETATM   27  C   UNL     1      -9.903   9.216  71.442  1.00  0.00    -0.284 C  
ENDBRANCH  25  26
BRANCH  20  28
HETATM   28  O   UNL     1     -10.832   4.888  67.277  1.00  0.00     0.066 OA 
HETATM   29  C   UNL     1     -10.774   4.767  65.860  1.00  0.00    -0.173 C  
ENDBRANCH  20  28
ENDBRANCH   7  18
BRANCH   8  30
HETATM   30  O   UNL     1      -8.479  13.325  66.563  1.00  0.00     0.056 OA 
BRANCH  30  31
HETATM   31  C   UNL     1      -8.657  14.546  67.286  1.00  0.00    -0.215 C  
HETATM   32  O   UNL     1      -9.821  15.274  66.873  1.00  0.00    -0.228 OA 
HETATM   33  C   UNL     1      -9.822  16.627  67.356  1.00  0.00    -0.254 C  
HETATM   34  C   UNL     1     -11.124  17.379  67.075  1.00  0.00     0.257 C  
HETATM   35  O   UNL     1     -11.001  18.747  67.470  1.00  0.00    -0.407 OA 
HETATM   36  C   UNL     1      -9.945  19.401  66.773  1.00  0.00    -0.378 C  
HETATM   37  C   UNL     1      -9.821  20.837  67.264  1.00  0.00    -0.433 C  
HETATM   38  O   UNL     1      -8.693  18.781  67.045  1.00  0.00    -0.271 OA 
HETATM   39  C   UNL     1      -8.692  17.399  66.684  1.00  0.00    -0.260 C  
HETATM   40  C   UNL     1      -7.378  16.824  67.179  1.00  0.00    -0.187 C  
HETATM   41  O   UNL     1      -6.295  17.428  66.452  1.00  0.00    -0.200 OA 
HETATM   42  C   UNL     1      -7.315  15.301  67.041  1.00  0.00    -0.037 C  
HETATM   43  H   UNL     1      -5.473  17.069  66.762  1.00  0.00     0.000 HD 
HETATM   44  O   UNL     1      -6.314  14.767  67.943  1.00  0.00    -0.136 OA 
HETATM   45  H   UNL     1      -5.496  15.228  67.794  1.00  0.00     0.000 HD 
ENDBRANCH  30  31
ENDBRANCH   8  30
TORSDOF 5
ENDMDL
MODEL      144
REMARK 921   NORMALIZED FREE ENERGY PREDICTED BY IDOCK:   -4.17 KCAL/MOL
REMARK 922        TOTAL FREE ENERGY PREDICTED BY IDOCK:   -6.63 KCAL/MOL
REMARK 923 INTER-LIGAND FREE ENERGY PREDICTED BY IDOCK:   -8.59 KCAL/MOL
REMARK 924 INTRA-LIGAND FREE ENERGY PREDICTED BY IDOCK:    1.97 KCAL/MOL
REMARK 927      BINDING AFFINITY PREDICTED BY RF-SCORE:    0.00 PKD
ROOT
HETATM    1  C   UNL     1      -7.134  11.025  66.072  1.00  0.00    -0.010 C  
HETATM    2  C   UNL     1      -6.919   9.730  65.344  1.00  0.00    -0.105 C  
HETATM    3  O   UNL     1      -8.251   9.347  64.965  1.00  0.00    -0.125 OA 
HETATM    4  C   UNL     1      -9.161   9.934  65.811  1.00  0.00    -0.179 C  
HETATM    5  C   UNL     1      -8.443  10.806  66.798  1.00  0.00    -0.134 C  
HETATM    6  O   UNL     1     -10.350   9.660  65.819  1.00  0.00    -0.194 OA 
HETATM    7  C   UNL     1      -9.041  12.134  67.297  1.00  0.00    -0.181 C  
HETATM    8  C   UNL     1      -6.056  11.554  67.000  1.00  0.00    -0.131 C  
HETATM    9  C   UNL     1      -7.960  13.058  67.878  1.00  0.00    -0.157 A  
HETATM   10  C   UNL     1      -8.355  14.237  68.544  1.00  0.00    -0.156 A  
HETATM   11  O   UNL     1      -7.600  16.322  69.560  1.00  0.00    -0.190 OA 
HETATM   12  C   UNL     1      -7.381  15.120  68.962  1.00  0.00    -0.155 A  
HETATM   13  C   UNL     1      -6.563  12.788  67.723  1.00  0.00    -0.134 A  
HETATM   14  C   UNL     1      -6.044  14.872  68.771  1.00  0.00    -0.083 A  
HETATM   15  C   UNL     1      -6.255  16.839  69.630  1.00  0.00    -0.228 C  
HETATM   16  O   UNL     1      -5.255  15.891  69.204  1.00  0.00    -0.104 OA 
HETATM   17  C   UNL     1      -5.603  13.714  68.179  1.00  0.00    -0.115 A  
ENDROOT
BRANCH   7  18
HETATM   18  C   UNL     1      -9.923  12.794  66.237  1.00  0.00    -0.269 A  
HETATM   19  O   UNL     1     -12.775  14.949  64.078  1.00  0.00    -0.792 OA 
HETATM   20  C   UNL     1     -11.987  12.912  64.976  1.00  0.00    -0.405 A  
HETATM   21  C   UNL     1      -9.675  14.130  65.888  1.00  0.00    -0.267 A  
HETATM   22  H   UNL     1     -13.582  14.534  63.797  1.00  0.00     0.000 HD 
HETATM   23  C   UNL     1     -11.063  12.173  65.712  1.00  0.00    -0.362 A  
HETATM   24  C   UNL     1     -11.770  14.279  64.731  1.00  0.00    -0.415 A  
HETATM   25  C   UNL     1     -10.585  14.890  65.143  1.00  0.00    -0.428 A  
BRANCH  25  26
HETATM   26  O   UNL     1     -10.132  16.167  64.959  1.00  0.00    -0.478 OA 
HETATM   27  C   UNL     1     -10.321  17.159  65.944  1.00  0.00    -0.284 C  
ENDBRANCH  25  26
BRANCH  20  28
HETATM   28  O   UNL     1     -13.177  12.379  64.521  1.00  0.00    -0.834 OA 
HETATM   29  C   UNL     1     -13.116  11.653  63.298  1.00  0.00     0.394 C  
ENDBRANCH  20  28
ENDBRANCH   7  18
BRANCH   8  30
HETATM   30  O   UNL     1      -5.345  10.650  67.819  1.00  0.00    -0.040 OA 
BRANCH  30  31
HETATM   31  C   UNL     1      -5.926   9.610  68.611  1.00  0.00    -0.042 C  
HETATM   32  O   UNL     1      -6.538   8.583  67.820  1.00  0.00    -0.059 OA 
HETATM   33  C   UNL     1      -7.388   7.726  68.597  1.00  0.00    -0.087 C  
HETATM   34  C   UNL     1      -7.924   6.522  67.820  1.00  0.00    -0.115 C  
HETATM   35  O   UNL     1      -8.857   5.791  68.618  1.00  0.00    -0.111 OA 
HETATM   36  C   UNL     1      -9.961   6.602  69.008  1.00  0.00    -0.153 C  
HETATM   37  C   UNL     1     -10.898   5.795  69.897  1.00  0.00    -0.417 C  
HETATM   38  O   UNL     1      -9.530   7.710  69.791  1.00  0.00    -0.157 OA 
HETATM   39  C   UNL     1      -8.589   8.524  69.089  1.00  0.00    -0.133 C  
HETATM   40  C   UNL     1      -8.086   9.555  70.083  1.00  0.00    -0.174 C  
HETATM   41  O   UNL     1      -9.170  10.423  70.453  1.00  0.00    -0.172 OA 
HETATM   42  C   UNL     1      -6.921  10.380  69.533  1.00  0.00    -0.102 C  
HETATM   43  H   UNL     1      -8.856  11.068  71.075  1.00  0.00     0.000 HD 
HETATM   44  O   UNL     1      -6.175  10.967  70.627  1.00  0.00    -0.308 OA 
HETATM   45  H   UNL     1      -6.781  11.437  71.189  1.00  0.00     0.000 HD 
ENDBRANCH  30  31
ENDBRANCH   8  30
TORSDOF 5
ENDMDL
MODEL      145
REMARK 921   NORMALIZED FREE ENERGY PREDICTED BY IDOCK:   -4.05 KCAL/MOL
REMARK 922        TOTAL FREE ENERGY PREDICTED BY IDOCK:   -6.47 KCAL/MOL
REMARK 923 INTER-LIGAND FREE ENERGY PREDICTED BY IDOCK:   -9.96 KCAL/MOL
REMARK 924 INTRA-LIGAND FREE ENERGY PREDICTED BY IDOCK:    3.50 KCAL/MOL
REMARK 927      BINDING AFFINITY PREDICTED BY RF-SCORE:    0.00 PKD
ROOT
HETATM    1  C   UNL     1     -10.632  10.224  67.178  1.00  0.00    -0.320 C  
HETATM    2  C   UNL     1     -10.609   8.725  67.099  1.00  0.00    -0.233 C  
HETATM    3  O   UNL     1     -10.769   8.326  68.470  1.00  0.00    -0.142 OA 
HETATM    4  C   UNL     1     -10.349   9.337  69.300  1.00  0.00    -0.215 C  
HETATM    5  C   UNL     1      -9.919  10.518  68.480  1.00  0.00    -0.181 C  
HETATM    6  O   UNL     1     -10.226   9.213  70.507  1.00  0.00    -0.202 OA 
HETATM    7  C   UNL     1     -10.164  11.964  68.944  1.00  0.00    -0.095 C  
HETATM    8  C   UNL     1     -10.075  11.047  66.031  1.00  0.00    -0.247 C  
HETATM    9  C   UNL     1     -10.104  12.953  67.770  1.00  0.00    -0.229 A  
HETATM   10  C   UNL     1     -10.127  14.338  68.041  1.00  0.00    -0.227 A  
HETATM   11  O   UNL     1     -10.280  16.573  67.077  1.00  0.00    -0.277 OA 
HETATM   12  C   UNL     1     -10.191  15.219  66.982  1.00  0.00    -0.260 A  
HETATM   13  C   UNL     1     -10.077  12.517  66.407  1.00  0.00    -0.255 A  
HETATM   14  C   UNL     1     -10.207  14.789  65.677  1.00  0.00    -0.358 A  
HETATM   15  C   UNL     1     -10.454  16.931  65.691  1.00  0.00    -0.238 C  
HETATM   16  O   UNL     1     -10.328  15.812  64.791  1.00  0.00    -0.461 OA 
HETATM   17  C   UNL     1     -10.130  13.456  65.357  1.00  0.00    -0.270 A  
ENDROOT
BRANCH   7  18
HETATM   18  C   UNL     1     -11.428  12.081  69.796  1.00  0.00    -0.284 A  
HETATM   19  O   UNL     1     -14.283  12.625  72.795  1.00  0.00    -0.569 OA 
HETATM   20  C   UNL     1     -12.940  11.203  71.472  1.00  0.00    -0.437 A  
HETATM   21  C   UNL     1     -11.979  13.352  70.016  1.00  0.00    -0.407 A  
HETATM   22  H   UNL     1     -14.583  11.888  73.314  1.00  0.00     0.000 HD 
HETATM   23  C   UNL     1     -11.971  10.995  70.492  1.00  0.00    -0.474 A  
HETATM   24  C   UNL     1     -13.398  12.502  71.752  1.00  0.00    -0.286 A  
HETATM   25  C   UNL     1     -12.958  13.585  70.991  1.00  0.00    -0.202 A  
BRANCH  25  26
HETATM   26  O   UNL     1     -13.312  14.905  71.034  1.00  0.00    -0.385 OA 
HETATM   27  C   UNL     1     -13.348  15.611  72.255  1.00  0.00    -0.478 C  
ENDBRANCH  25  26
BRANCH  20  28
HETATM   28  O   UNL     1     -13.436  10.183  72.260  1.00  0.00    -0.398 OA 
HETATM   29  C   UNL     1     -13.359   8.871  71.714  1.00  0.00    -0.386 C  
ENDBRANCH  20  28
ENDBRANCH   7  18
BRANCH   8  30
HETATM   30  O   UNL     1      -8.900  10.615  65.378  1.00  0.00    -0.179 OA 
BRANCH  30  31
HETATM   31  C   UNL     1      -7.776   9.993  66.009  1.00  0.00    -0.110 C  
HETATM   32  O   UNL     1      -8.115   8.764  66.664  1.00  0.00    -0.102 OA 
HETATM   33  C   UNL     1      -7.083   8.315  67.556  1.00  0.00    -0.083 C  
HETATM   34  C   UNL     1      -7.338   6.925  68.142  1.00  0.00    -0.097 C  
HETATM   35  O   UNL     1      -6.337   6.604  69.110  1.00  0.00    -0.032 OA 
HETATM   36  C   UNL     1      -6.321   7.546  70.179  1.00  0.00    -0.034 C  
HETATM   37  C   UNL     1      -5.208   7.192  71.156  1.00  0.00    -0.027 C  
HETATM   38  O   UNL     1      -6.026   8.855  69.701  1.00  0.00    -0.035 OA 
HETATM   39  C   UNL     1      -6.970   9.290  68.722  1.00  0.00    -0.061 C  
HETATM   40  C   UNL     1      -6.449  10.607  68.177  1.00  0.00    -0.062 C  
HETATM   41  O   UNL     1      -6.473  11.593  69.222  1.00  0.00    -0.085 OA 
HETATM   42  C   UNL     1      -7.253  11.102  66.972  1.00  0.00    -0.128 C  
HETATM   43  H   UNL     1      -6.147  12.417  68.882  1.00  0.00     0.000 HD 
HETATM   44  O   UNL     1      -6.460  12.042  66.205  1.00  0.00    -0.414 OA 
HETATM   45  H   UNL     1      -6.141  12.718  66.792  1.00  0.00     0.000 HD 
ENDBRANCH  30  31
ENDBRANCH   8  30
TORSDOF 5
ENDMDL
MODEL      146
REMARK 921   NORMALIZED FREE ENERGY PREDICTED BY IDOCK:   -3.81 KCAL/MOL
REMARK 922        TOTAL FREE ENERGY PREDICTED BY IDOCK:   -6.16 KCAL/MOL
REMARK 923 INTER-LIGAND FREE ENERGY PREDICTED BY IDOCK:   -5.83 KCAL/MOL
REMARK 924 INTRA-LIGAND FREE ENERGY PREDICTED BY IDOCK:   -0.32 KCAL/MOL
REMARK 927      BINDING AFFINITY PREDICTED BY RF-SCORE:    0.00 PKD
ROOT
HETATM    1  C   UNL     1      -8.231   9.540  66.691  1.00  0.00    -0.116 C  
HETATM    2  C   UNL     1      -7.664   9.916  65.353  1.00  0.00    -0.130 C  
HETATM    3  O   UNL     1      -8.678  10.770  64.800  1.00  0.00    -0.174 OA 
HETATM    4  C   UNL     1      -9.891  10.488  65.381  1.00  0.00    -0.274 C  
HETATM    5  C   UNL     1      -9.715   9.422  66.422  1.00  0.00    -0.315 C  
HETATM    6  O   UNL     1     -10.950  10.950  64.992  1.00  0.00    -0.141 OA 
HETATM    7  C   UNL     1     -10.527   9.420  67.730  1.00  0.00    -0.310 C  
HETATM    8  C   UNL     1      -7.691   8.325  67.422  1.00  0.00    -0.102 C  
HETATM    9  C   UNL     1      -9.850   8.568  68.815  1.00  0.00    -0.180 A  
HETATM   10  C   UNL     1     -10.547   8.309  70.014  1.00  0.00    -0.235 A  
HETATM   11  O   UNL     1     -10.403   7.372  72.261  1.00  0.00    -0.201 OA 
HETATM   12  C   UNL     1      -9.893   7.643  71.029  1.00  0.00    -0.174 A  
HETATM   13  C   UNL     1      -8.516   8.070  68.671  1.00  0.00    -0.128 A  
HETATM   14  C   UNL     1      -8.597   7.206  70.897  1.00  0.00    -0.138 A  
HETATM   15  C   UNL     1      -9.248   6.807  72.914  1.00  0.00    -0.134 C  
HETATM   16  O   UNL     1      -8.123   6.626  72.031  1.00  0.00    -0.102 OA 
HETATM   17  C   UNL     1      -7.893   7.383  69.732  1.00  0.00    -0.116 A  
ENDROOT
BRANCH   7  18
HETATM   18  C   UNL     1     -10.884  10.836  68.180  1.00  0.00    -0.284 A  
HETATM   19  O   UNL     1     -11.304  14.508  70.125  1.00  0.00    -0.336 OA 
HETATM   20  C   UNL     1     -12.123  12.356  69.602  1.00  0.00    -0.206 A  
HETATM   21  C   UNL     1      -9.984  11.877  67.912  1.00  0.00    -0.195 A  
HETATM   22  H   UNL     1     -12.021  14.653  70.730  1.00  0.00     0.000 HD 
HETATM   23  C   UNL     1     -11.997  11.113  68.983  1.00  0.00    -0.389 A  
HETATM   24  C   UNL     1     -11.148  13.349  69.405  1.00  0.00    -0.103 A  
HETATM   25  C   UNL     1     -10.094  13.136  68.516  1.00  0.00    -0.200 A  
BRANCH  25  26
HETATM   26  O   UNL     1      -9.084  13.968  68.119  1.00  0.00    -0.179 OA 
HETATM   27  C   UNL     1      -7.831  13.457  67.719  1.00  0.00    -0.158 C  
ENDBRANCH  25  26
BRANCH  20  28
HETATM   28  O   UNL     1     -13.144  12.650  70.484  1.00  0.00     0.195 OA 
HETATM   29  C   UNL     1     -13.198  11.865  71.670  1.00  0.00    -0.262 C  
ENDBRANCH  20  28
ENDBRANCH   7  18
BRANCH   8  30
HETATM   30  O   UNL     1      -7.372   7.162  66.688  1.00  0.00    -0.080 OA 
BRANCH  30  31
HETATM   31  C   UNL     1      -8.134   6.628  65.601  1.00  0.00    -0.125 C  
HETATM   32  O   UNL     1      -9.054   5.609  66.013  1.00  0.00    -0.154 OA 
HETATM   33  C   UNL     1      -9.573   4.858  64.903  1.00  0.00     0.065 C  
HETATM   34  C   UNL     1     -10.681   3.877  65.289  1.00  0.00     0.239 C  
HETATM   35  O   UNL     1     -11.055   3.083  64.161  1.00  0.00    -0.089 OA 
HETATM   36  C   UNL     1      -9.951   2.338  63.656  1.00  0.00    -0.138 C  
HETATM   37  C   UNL     1     -10.386   1.550  62.427  1.00  0.00    -0.095 C  
HETATM   38  O   UNL     1      -8.907   3.203  63.221  1.00  0.00    -0.092 OA 
HETATM   39  C   UNL     1      -8.444   4.051  64.273  1.00  0.00    -0.098 C  
HETATM   40  C   UNL     1      -7.469   5.028  63.643  1.00  0.00    -0.056 C  
HETATM   41  O   UNL     1      -6.318   4.309  63.172  1.00  0.00    -0.021 OA 
HETATM   42  C   UNL     1      -7.037   6.131  64.611  1.00  0.00    -0.057 C  
HETATM   43  H   UNL     1      -5.708   4.920  62.777  1.00  0.00     0.000 HD 
HETATM   44  O   UNL     1      -6.538   7.270  63.866  1.00  0.00    -0.046 OA 
HETATM   45  H   UNL     1      -5.869   6.968  63.263  1.00  0.00     0.000 HD 
ENDBRANCH  30  31
ENDBRANCH   8  30
TORSDOF 5
ENDMDL
MODEL      147
REMARK 921   NORMALIZED FREE ENERGY PREDICTED BY IDOCK:   -3.80 KCAL/MOL
REMARK 922        TOTAL FREE ENERGY PREDICTED BY IDOCK:   -6.15 KCAL/MOL
REMARK 923 INTER-LIGAND FREE ENERGY PREDICTED BY IDOCK:   -6.00 KCAL/MOL
REMARK 924 INTRA-LIGAND FREE ENERGY PREDICTED BY IDOCK:   -0.15 KCAL/MOL
REMARK 927      BINDING AFFINITY PREDICTED BY RF-SCORE:    0.00 PKD
ROOT
HETATM    1  C   UNL     1      -7.397  11.986  67.757  1.00  0.00    -0.113 C  
HETATM    2  C   UNL     1      -6.096  12.143  68.489  1.00  0.00    -0.051 C  
HETATM    3  O   UNL     1      -6.177  11.138  69.512  1.00  0.00    -0.067 OA 
HETATM    4  C   UNL     1      -7.493  10.842  69.770  1.00  0.00    -0.018 C  
HETATM    5  C   UNL     1      -8.378  11.638  68.856  1.00  0.00     0.034 C  
HETATM    6  O   UNL     1      -7.859  10.140  70.698  1.00  0.00    -0.153 OA 
HETATM    7  C   UNL     1      -9.686  11.062  68.283  1.00  0.00    -0.181 C  
HETATM    8  C   UNL     1      -7.909  13.115  66.882  1.00  0.00     0.191 C  
HETATM    9  C   UNL     1     -10.141  11.829  67.032  1.00  0.00    -0.232 A  
HETATM   10  C   UNL     1     -11.412  11.551  66.486  1.00  0.00    -0.178 A  
HETATM   11  O   UNL     1     -12.926  11.947  64.615  1.00  0.00    -0.343 OA 
HETATM   12  C   UNL     1     -11.768  12.155  65.298  1.00  0.00    -0.308 A  
HETATM   13  C   UNL     1      -9.298  12.779  66.371  1.00  0.00    -0.196 A  
HETATM   14  C   UNL     1     -10.935  13.034  64.649  1.00  0.00    -0.342 A  
HETATM   15  C   UNL     1     -12.679  12.716  63.421  1.00  0.00    -0.125 C  
HETATM   16  O   UNL     1     -11.452  13.472  63.471  1.00  0.00    -0.182 OA 
HETATM   17  C   UNL     1      -9.711  13.381  65.166  1.00  0.00     0.036 A  
ENDROOT
BRANCH   7  18
HETATM   18  C   UNL     1      -9.605   9.548  68.094  1.00  0.00    -0.153 A  
HETATM   19  O   UNL     1     -10.173   5.531  67.101  1.00  0.00    -0.172 OA 
HETATM   20  C   UNL     1     -10.324   7.304  68.654  1.00  0.00    -0.193 A  
HETATM   21  C   UNL     1      -9.088   9.044  66.891  1.00  0.00    -0.161 A  
HETATM   22  H   UNL     1     -10.629   4.948  67.697  1.00  0.00     0.000 HD 
HETATM   23  C   UNL     1     -10.167   8.644  69.004  1.00  0.00    -0.218 A  
HETATM   24  C   UNL     1      -9.896   6.843  67.397  1.00  0.00    -0.144 A  
HETATM   25  C   UNL     1      -9.227   7.700  66.522  1.00  0.00    -0.176 A  
BRANCH  25  26
HETATM   26  O   UNL     1      -8.668   7.461  65.297  1.00  0.00    -0.058 OA 
HETATM   27  C   UNL     1      -7.458   6.745  65.175  1.00  0.00    -0.087 C  
ENDBRANCH  25  26
BRANCH  20  28
HETATM   28  O   UNL     1     -10.963   6.390  69.469  1.00  0.00    -0.286 OA 
HETATM   29  C   UNL     1     -11.783   6.930  70.500  1.00  0.00    -0.350 C  
ENDBRANCH  20  28
ENDBRANCH   7  18
BRANCH   8  30
HETATM   30  O   UNL     1      -7.757  14.450  67.315  1.00  0.00    -0.192 OA 
BRANCH  30  31
HETATM   31  C   UNL     1      -8.720  15.198  68.064  1.00  0.00    -0.165 C  
HETATM   32  O   UNL     1      -9.079  14.565  69.299  1.00  0.00    -0.040 OA 
HETATM   33  C   UNL     1     -10.261  15.134  69.883  1.00  0.00    -0.160 C  
HETATM   34  C   UNL     1     -10.577  14.596  71.280  1.00  0.00     1.192 C  
HETATM   35  O   UNL     1     -11.828  15.113  71.739  1.00  0.00    -0.350 OA 
HETATM   36  C   UNL     1     -12.896  14.753  70.867  1.00  0.00    -0.362 C  
HETATM   37  C   UNL     1     -14.195  15.369  71.370  1.00  0.00    -0.519 C  
HETATM   38  O   UNL     1     -12.688  15.280  69.561  1.00  0.00    -0.050 OA 
HETATM   39  C   UNL     1     -11.459  14.826  68.992  1.00  0.00    -0.293 C  
HETATM   40  C   UNL     1     -11.279  15.587  67.692  1.00  0.00    -0.291 C  
HETATM   41  O   UNL     1     -12.313  15.202  66.772  1.00  0.00    -0.027 OA 
HETATM   42  C   UNL     1      -9.904  15.353  67.061  1.00  0.00    -0.232 C  
HETATM   43  H   UNL     1     -12.201  15.678  65.958  1.00  0.00     0.000 HD 
HETATM   44  O   UNL     1      -9.594  16.432  66.145  1.00  0.00    -0.290 OA 
HETATM   45  H   UNL     1     -10.315  16.527  65.534  1.00  0.00     0.000 HD 
ENDBRANCH  30  31
ENDBRANCH   8  30
TORSDOF 5
ENDMDL
MODEL      148
REMARK 921   NORMALIZED FREE ENERGY PREDICTED BY IDOCK:   -3.73 KCAL/MOL
REMARK 922        TOTAL FREE ENERGY PREDICTED BY IDOCK:   -6.06 KCAL/MOL
REMARK 923 INTER-LIGAND FREE ENERGY PREDICTED BY IDOCK:   -8.82 KCAL/MOL
REMARK 924 INTRA-LIGAND FREE ENERGY PREDICTED BY IDOCK:    2.76 KCAL/MOL
REMARK 927      BINDING AFFINITY PREDICTED BY RF-SCORE:    0.00 PKD
ROOT
HETATM    1  C   UNL     1     -11.107  12.138  67.472  1.00  0.00    -0.328 C  
HETATM    2  C   UNL     1     -11.205  13.159  66.377  1.00  0.00    -0.300 C  
HETATM    3  O   UNL     1      -9.926  13.064  65.729  1.00  0.00    -0.279 OA 
HETATM    4  C   UNL     1      -8.998  12.555  66.605  1.00  0.00    -0.174 C  
HETATM    5  C   UNL     1      -9.662  12.234  67.912  1.00  0.00    -0.202 C  
HETATM    6  O   UNL     1      -7.801  12.513  66.374  1.00  0.00     0.285 OA 
HETATM    7  C   UNL     1      -9.248  11.016  68.758  1.00  0.00    -0.167 C  
HETATM    8  C   UNL     1     -12.061  12.204  68.650  1.00  0.00    -0.092 C  
HETATM    9  C   UNL     1     -10.351  10.615  69.749  1.00  0.00    -0.146 A  
HETATM   10  C   UNL     1     -10.069   9.635  70.725  1.00  0.00    -0.293 A  
HETATM   11  O   UNL     1     -10.999   8.217  72.478  1.00  0.00    -0.338 OA 
HETATM   12  C   UNL     1     -11.093   9.194  71.536  1.00  0.00    -0.365 A  
HETATM   13  C   UNL     1     -11.671  11.164  69.684  1.00  0.00    -0.410 A  
HETATM   14  C   UNL     1     -12.368   9.697  71.438  1.00  0.00    -0.378 A  
HETATM   15  C   UNL     1     -12.377   8.099  72.886  1.00  0.00     0.143 C  
HETATM   16  O   UNL     1     -13.237   9.090  72.287  1.00  0.00    -0.401 OA 
HETATM   17  C   UNL     1     -12.683  10.691  70.544  1.00  0.00    -0.395 A  
ENDROOT
BRANCH   7  18
HETATM   18  C   UNL     1      -8.739   9.867  67.889  1.00  0.00    -0.129 A  
HETATM   19  O   UNL     1      -7.512   6.216  66.273  1.00  0.00    -0.083 OA 
HETATM   20  C   UNL     1      -7.002   8.305  67.249  1.00  0.00    -0.075 A  
HETATM   21  C   UNL     1      -9.674   9.028  67.264  1.00  0.00    -0.232 A  
HETATM   22  H   UNL     1      -6.598   5.960  66.302  1.00  0.00     0.000 HD 
HETATM   23  C   UNL     1      -7.385   9.520  67.814  1.00  0.00    -0.083 A  
HETATM   24  C   UNL     1      -7.969   7.430  66.726  1.00  0.00    -0.115 A  
HETATM   25  C   UNL     1      -9.312   7.806  66.682  1.00  0.00    -0.188 A  
BRANCH  25  26
HETATM   26  O   UNL     1     -10.401   7.160  66.165  1.00  0.00     0.188 OA 
HETATM   27  C   UNL     1     -10.893   5.976  66.752  1.00  0.00    -0.279 C  
ENDBRANCH  25  26
BRANCH  20  28
HETATM   28  O   UNL     1      -5.693   7.866  67.240  1.00  0.00    -0.035 OA 
HETATM   29  C   UNL     1      -5.224   7.258  68.439  1.00  0.00    -0.021 C  
ENDBRANCH  20  28
ENDBRANCH   7  18
BRANCH   8  30
HETATM   30  O   UNL     1     -12.405  13.462  69.191  1.00  0.00    -0.224 OA 
BRANCH  30  31
HETATM   31  C   UNL     1     -11.716  14.691  68.946  1.00  0.00    -0.309 C  
HETATM   32  O   UNL     1     -11.507  14.944  67.550  1.00  0.00    -0.336 OA 
HETATM   33  C   UNL     1     -10.549  15.989  67.320  1.00  0.00    -0.313 C  
HETATM   34  C   UNL     1     -10.427  16.398  65.850  1.00  0.00    -0.337 C  
HETATM   35  O   UNL     1      -9.371  17.347  65.686  1.00  0.00    -0.496 OA 
HETATM   36  C   UNL     1      -8.119  16.816  66.110  1.00  0.00    -0.258 C  
HETATM   37  C   UNL     1      -7.038  17.879  65.964  1.00  0.00    -0.340 C  
HETATM   38  O   UNL     1      -8.152  16.473  67.492  1.00  0.00    -0.149 OA 
HETATM   39  C   UNL     1      -9.174  15.519  67.780  1.00  0.00    -0.179 C  
HETATM   40  C   UNL     1      -9.215  15.373  69.290  1.00  0.00    -0.259 C  
HETATM   41  O   UNL     1      -7.982  14.788  69.741  1.00  0.00    -0.404 OA 
HETATM   42  C   UNL     1     -10.399  14.529  69.766  1.00  0.00     0.145 C  
HETATM   43  H   UNL     1      -8.007  14.697  70.686  1.00  0.00     0.000 HD 
HETATM   44  O   UNL     1     -10.684  14.821  71.156  1.00  0.00    -0.468 OA 
HETATM   45  H   UNL     1      -9.882  14.722  71.656  1.00  0.00     0.000 HD 
ENDBRANCH  30  31
ENDBRANCH   8  30
TORSDOF 5
ENDMDL
MODEL      149
REMARK 921   NORMALIZED FREE ENERGY PREDICTED BY IDOCK:   -3.72 KCAL/MOL
REMARK 922        TOTAL FREE ENERGY PREDICTED BY IDOCK:   -6.04 KCAL/MOL
REMARK 923 INTER-LIGAND FREE ENERGY PREDICTED BY IDOCK:   -7.71 KCAL/MOL
REMARK 924 INTRA-LIGAND FREE ENERGY PREDICTED BY IDOCK:    1.66 KCAL/MOL
REMARK 927      BINDING AFFINITY PREDICTED BY RF-SCORE:    0.00 PKD
ROOT
HETATM    1  C   UNL     1      -6.828   9.957  66.875  1.00  0.00    -0.087 C  
HETATM    2  C   UNL     1      -5.494   9.841  66.199  1.00  0.00    -0.047 C  
HETATM    3  O   UNL     1      -5.792  10.172  64.833  1.00  0.00    -0.100 OA 
HETATM    4  C   UNL     1      -7.120   9.930  64.576  1.00  0.00    -0.137 C  
HETATM    5  C   UNL     1      -7.797   9.453  65.828  1.00  0.00    -0.099 C  
HETATM    6  O   UNL     1      -7.611   9.973  63.461  1.00  0.00    -0.140 OA 
HETATM    7  C   UNL     1      -9.248   9.841  66.167  1.00  0.00    -0.221 C  
HETATM    8  C   UNL     1      -7.052   9.289  68.219  1.00  0.00    -0.076 C  
HETATM    9  C   UNL     1      -9.543   9.669  67.665  1.00  0.00    -0.167 A  
HETATM   10  C   UNL     1     -10.872   9.806  68.119  1.00  0.00    -0.264 A  
HETATM   11  O   UNL     1     -12.325   9.943  70.073  1.00  0.00    -0.015 OA 
HETATM   12  C   UNL     1     -11.116   9.767  69.476  1.00  0.00    -0.192 A  
HETATM   13  C   UNL     1      -8.508   9.425  68.623  1.00  0.00    -0.119 A  
HETATM   14  C   UNL     1     -10.110   9.574  70.391  1.00  0.00    -0.271 A  
HETATM   15  C   UNL     1     -11.945   9.937  71.464  1.00  0.00    -0.390 C  
HETATM   16  O   UNL     1     -10.553   9.624  71.675  1.00  0.00    -0.199 OA 
HETATM   17  C   UNL     1      -8.808   9.379  69.999  1.00  0.00    -0.231 A  
ENDROOT
BRANCH   7  18
HETATM   18  C   UNL     1      -9.613  11.217  65.612  1.00  0.00    -0.260 A  
HETATM   19  O   UNL     1     -11.333  14.906  64.672  1.00  0.00    -0.489 OA 
HETATM   20  C   UNL     1     -10.948  12.631  64.167  1.00  0.00    -0.387 A  
HETATM   21  C   UNL     1      -9.275  12.357  66.356  1.00  0.00    -0.192 A  
HETATM   22  H   UNL     1     -11.932  14.984  63.940  1.00  0.00     0.000 HD 
HETATM   23  C   UNL     1     -10.405  11.383  64.470  1.00  0.00    -0.369 A  
HETATM   24  C   UNL     1     -10.683  13.738  64.992  1.00  0.00    -0.382 A  
HETATM   25  C   UNL     1      -9.802  13.623  66.067  1.00  0.00    -0.276 A  
BRANCH  25  26
HETATM   26  O   UNL     1      -9.347  14.564  66.949  1.00  0.00    -0.223 OA 
HETATM   27  C   UNL     1      -8.311  15.454  66.597  1.00  0.00    -0.220 C  
ENDBRANCH  25  26
BRANCH  20  28
HETATM   28  O   UNL     1     -11.818  12.831  63.114  1.00  0.00    -0.493 OA 
HETATM   29  C   UNL     1     -13.032  12.089  63.150  1.00  0.00     0.106 C  
ENDBRANCH  20  28
ENDBRANCH   7  18
BRANCH   8  30
HETATM   30  O   UNL     1      -6.500   8.011  68.456  1.00  0.00    -0.051 OA 
BRANCH  30  31
HETATM   31  C   UNL     1      -7.182   6.908  69.060  1.00  0.00    -0.091 C  
HETATM   32  O   UNL     1      -8.599   7.110  69.149  1.00  0.00    -0.132 OA 
HETATM   33  C   UNL     1      -9.232   6.170  70.031  1.00  0.00    -0.151 C  
HETATM   34  C   UNL     1     -10.760   6.250  70.020  1.00  0.00    -0.285 C  
HETATM   35  O   UNL     1     -11.309   5.377  71.010  1.00  0.00     0.034 OA 
HETATM   36  C   UNL     1     -10.851   5.713  72.316  1.00  0.00    -0.242 C  
HETATM   37  C   UNL     1     -11.421   4.727  73.326  1.00  0.00    -0.361 C  
HETATM   38  O   UNL     1      -9.435   5.598  72.406  1.00  0.00    -0.144 OA 
HETATM   39  C   UNL     1      -8.770   6.434  71.459  1.00  0.00    -0.134 C  
HETATM   40  C   UNL     1      -7.294   6.091  71.541  1.00  0.00    -0.088 C  
HETATM   41  O   UNL     1      -6.792   6.470  72.833  1.00  0.00    -0.071 OA 
HETATM   42  C   UNL     1      -6.473   6.767  70.441  1.00  0.00    -0.043 C  
HETATM   43  H   UNL     1      -5.869   6.255  72.885  1.00  0.00     0.000 HD 
HETATM   44  O   UNL     1      -5.227   6.052  70.249  1.00  0.00    -0.012 OA 
HETATM   45  H   UNL     1      -4.795   5.966  71.091  1.00  0.00     0.000 HD 
ENDBRANCH  30  31
ENDBRANCH   8  30
TORSDOF 5
ENDMDL
MODEL      150
REMARK 921   NORMALIZED FREE ENERGY PREDICTED BY IDOCK:   -3.72 KCAL/MOL
REMARK 922        TOTAL FREE ENERGY PREDICTED BY IDOCK:   -6.04 KCAL/MOL
REMARK 923 INTER-LIGAND FREE ENERGY PREDICTED BY IDOCK:   -8.13 KCAL/MOL
REMARK 924 INTRA-LIGAND FREE ENERGY PREDICTED BY IDOCK:    2.09 KCAL/MOL
REMARK 927      BINDING AFFINITY PREDICTED BY RF-SCORE:    0.00 PKD
ROOT
HETATM    1  C   UNL     1      -9.177  10.712  68.876  1.00  0.00    -0.189 C  
HETATM    2  C   UNL     1      -8.782   9.685  69.897  1.00  0.00    -0.219 C  
HETATM    3  O   UNL     1      -7.377   9.927  70.074  1.00  0.00    -0.121 OA 
HETATM    4  C   UNL     1      -6.867  10.541  68.956  1.00  0.00    -0.068 C  
HETATM    5  C   UNL     1      -7.970  10.785  67.967  1.00  0.00    -0.108 C  
HETATM    6  O   UNL     1      -5.676  10.721  68.768  1.00  0.00    -0.041 OA 
HETATM    7  C   UNL     1      -8.005  12.043  67.081  1.00  0.00    -0.175 C  
HETATM    8  C   UNL     1     -10.464  10.537  68.092  1.00  0.00    -0.186 C  
HETATM    9  C   UNL     1      -9.418  12.315  66.542  1.00  0.00    -0.238 A  
HETATM   10  C   UNL     1      -9.595  13.322  65.570  1.00  0.00     0.036 A  
HETATM   11  O   UNL     1     -11.218  14.624  64.297  1.00  0.00    -0.224 OA 
HETATM   12  C   UNL     1     -10.877  13.642  65.174  1.00  0.00    -0.334 A  
HETATM   13  C   UNL     1     -10.568  11.617  67.030  1.00  0.00    -0.272 A  
HETATM   14  C   UNL     1     -11.978  12.994  65.680  1.00  0.00    -0.429 A  
HETATM   15  C   UNL     1     -12.657  14.582  64.388  1.00  0.00    -0.153 C  
HETATM   16  O   UNL     1     -13.147  13.498  65.203  1.00  0.00    -0.737 OA 
HETATM   17  C   UNL     1     -11.858  11.970  66.586  1.00  0.00    -0.239 A  
ENDROOT
BRANCH   7  18
HETATM   18  C   UNL     1      -7.358  13.243  67.771  1.00  0.00    -0.147 A  
HETATM   19  O   UNL     1      -6.238  16.371  70.302  1.00  0.00    -0.113 OA 
HETATM   20  C   UNL     1      -7.350  15.590  68.370  1.00  0.00    -0.115 A  
HETATM   21  C   UNL     1      -6.438  13.013  68.805  1.00  0.00    -0.085 A  
HETATM   22  H   UNL     1      -6.582  17.246  70.167  1.00  0.00     0.000 HD 
HETATM   23  C   UNL     1      -7.757  14.562  67.522  1.00  0.00    -0.208 A  
HETATM   24  C   UNL     1      -6.515  15.317  69.467  1.00  0.00    -0.152 A  
HETATM   25  C   UNL     1      -6.009  14.031  69.666  1.00  0.00    -0.115 A  
BRANCH  25  26
HETATM   26  O   UNL     1      -5.139  13.553  70.606  1.00  0.00    -0.098 OA 
HETATM   27  C   UNL     1      -5.484  13.527  71.974  1.00  0.00    -0.070 C  
ENDBRANCH  25  26
BRANCH  20  28
HETATM   28  O   UNL     1      -7.794  16.891  68.234  1.00  0.00    -0.191 OA 
HETATM   29  C   UNL     1      -9.199  17.092  68.350  1.00  0.00    -0.259 C  
ENDBRANCH  20  28
ENDBRANCH   7  18
BRANCH   8  30
HETATM   30  O   UNL     1     -10.835   9.249  67.649  1.00  0.00    -0.250 OA 
BRANCH  30  31
HETATM   31  C   UNL     1      -9.970   8.110  67.583  1.00  0.00    -0.185 C  
HETATM   32  O   UNL     1      -8.925   8.260  66.614  1.00  0.00    -0.135 OA 
HETATM   33  C   UNL     1      -8.269   7.016  66.320  1.00  0.00    -0.120 C  
HETATM   34  C   UNL     1      -7.042   7.167  65.418  1.00  0.00    -0.064 C  
HETATM   35  O   UNL     1      -6.522   5.882  65.070  1.00  0.00    -0.039 OA 
HETATM   36  C   UNL     1      -7.490   5.093  64.384  1.00  0.00    -0.065 C  
HETATM   37  C   UNL     1      -6.908   3.719  64.081  1.00  0.00    -0.045 C  
HETATM   38  O   UNL     1      -8.635   4.866  65.200  1.00  0.00    -0.132 OA 
HETATM   39  C   UNL     1      -9.248   6.089  65.610  1.00  0.00     0.045 C  
HETATM   40  C   UNL     1     -10.335   5.715  66.601  1.00  0.00    -0.256 C  
HETATM   41  O   UNL     1     -11.354   4.963  65.923  1.00  0.00    -0.763 OA 
HETATM   42  C   UNL     1     -10.953   6.937  67.283  1.00  0.00    -0.336 C  
HETATM   43  H   UNL     1     -12.034   4.728  66.542  1.00  0.00     0.000 HD 
HETATM   44  O   UNL     1     -11.589   6.540  68.523  1.00  0.00    -0.539 OA 
HETATM   45  H   UNL     1     -12.188   5.825  68.340  1.00  0.00     0.000 HD 
ENDBRANCH  30  31
ENDBRANCH   8  30
TORSDOF 5
ENDMDL
MODEL      151
REMARK 921   NORMALIZED FREE ENERGY PREDICTED BY IDOCK:   -3.71 KCAL/MOL
REMARK 922        TOTAL FREE ENERGY PREDICTED BY IDOCK:   -6.03 KCAL/MOL
REMARK 923 INTER-LIGAND FREE ENERGY PREDICTED BY IDOCK:   -7.28 KCAL/MOL
REMARK 924 INTRA-LIGAND FREE ENERGY PREDICTED BY IDOCK:    1.24 KCAL/MOL
REMARK 927      BINDING AFFINITY PREDICTED BY RF-SCORE:    0.00 PKD
ROOT
HETATM    1  C   UNL     1      -9.322  10.831  69.148  1.00  0.00    -0.141 C  
HETATM    2  C   UNL     1      -8.935   9.752  70.117  1.00  0.00    -0.195 C  
HETATM    3  O   UNL     1      -7.614  10.141  70.525  1.00  0.00    -0.269 OA 
HETATM    4  C   UNL     1      -7.043  10.932  69.558  1.00  0.00    -0.123 C  
HETATM    5  C   UNL     1      -8.022  11.149  68.441  1.00  0.00    -0.137 C  
HETATM    6  O   UNL     1      -5.872  11.275  69.569  1.00  0.00    -0.052 OA 
HETATM    7  C   UNL     1      -8.106  12.485  67.680  1.00  0.00    -0.171 C  
HETATM    8  C   UNL     1     -10.453  10.590  68.165  1.00  0.00    -0.186 C  
HETATM    9  C   UNL     1      -9.455  12.643  66.962  1.00  0.00    -0.220 A  
HETATM   10  C   UNL     1      -9.632  13.723  66.072  1.00  0.00    -0.197 A  
HETATM   11  O   UNL     1     -11.226  14.953  64.695  1.00  0.00    -0.379 OA 
HETATM   12  C   UNL     1     -10.879  13.928  65.519  1.00  0.00    -0.306 A  
HETATM   13  C   UNL     1     -10.555  11.760  67.205  1.00  0.00    -0.267 A  
HETATM   14  C   UNL     1     -11.940  13.099  65.791  1.00  0.00    -0.423 A  
HETATM   15  C   UNL     1     -12.644  14.727  64.564  1.00  0.00    -0.095 C  
HETATM   16  O   UNL     1     -13.090  13.508  65.192  1.00  0.00    -0.737 OA 
HETATM   17  C   UNL     1     -11.808  12.002  66.606  1.00  0.00    -0.239 A  
ENDROOT
BRANCH   7  18
HETATM   18  C   UNL     1      -7.728  13.670  68.568  1.00  0.00    -0.129 A  
HETATM   19  O   UNL     1      -6.081  17.084  70.324  1.00  0.00    -0.140 OA 
HETATM   20  C   UNL     1      -6.246  14.733  70.162  1.00  0.00    -0.166 A  
HETATM   21  C   UNL     1      -8.252  14.935  68.266  1.00  0.00    -0.145 A  
HETATM   22  H   UNL     1      -5.370  17.008  70.948  1.00  0.00     0.000 HD 
HETATM   23  C   UNL     1      -6.762  13.578  69.578  1.00  0.00    -0.011 A  
HETATM   24  C   UNL     1      -6.710  15.998  69.763  1.00  0.00    -0.116 A  
HETATM   25  C   UNL     1      -7.755  16.110  68.845  1.00  0.00    -0.207 A  
BRANCH  25  26
HETATM   26  O   UNL     1      -8.407  17.213  68.369  1.00  0.00    -0.233 OA 
HETATM   27  C   UNL     1      -9.643  17.622  68.912  1.00  0.00    -0.217 C  
ENDBRANCH  25  26
BRANCH  20  28
HETATM   28  O   UNL     1      -5.220  14.708  71.087  1.00  0.00    -0.123 OA 
HETATM   29  C   UNL     1      -5.577  14.331  72.413  1.00  0.00    -0.080 C  
ENDBRANCH  20  28
ENDBRANCH   7  18
BRANCH   8  30
HETATM   30  O   UNL     1     -10.580   9.323  67.555  1.00  0.00    -0.268 OA 
BRANCH  30  31
HETATM   31  C   UNL     1      -9.498   8.467  67.177  1.00  0.00    -0.162 C  
HETATM   32  O   UNL     1      -8.977   8.768  65.876  1.00  0.00    -0.171 OA 
HETATM   33  C   UNL     1      -8.129   7.725  65.371  1.00  0.00    -0.131 C  
HETATM   34  C   UNL     1      -7.425   8.085  64.061  1.00  0.00    -0.109 C  
HETATM   35  O   UNL     1      -6.703   6.957  63.560  1.00  0.00    -0.042 OA 
HETATM   36  C   UNL     1      -7.566   5.849  63.317  1.00  0.00    -0.087 C  
HETATM   37  C   UNL     1      -6.745   4.661  62.834  1.00  0.00    -0.030 C  
HETATM   38  O   UNL     1      -8.205   5.428  64.517  1.00  0.00    -0.124 OA 
HETATM   39  C   UNL     1      -8.967   6.478  65.113  1.00  0.00     0.313 C  
HETATM   40  C   UNL     1      -9.448   5.956  66.454  1.00  0.00    -0.155 C  
HETATM   41  O   UNL     1     -10.363   4.870  66.237  1.00  0.00    -0.255 OA 
HETATM   42  C   UNL     1     -10.115   7.041  67.302  1.00  0.00    -0.204 C  
HETATM   43  H   UNL     1     -10.664   4.542  67.076  1.00  0.00     0.000 HD 
HETATM   44  O   UNL     1     -10.100   6.652  68.698  1.00  0.00    -0.150 OA 
HETATM   45  H   UNL     1     -10.476   5.783  68.773  1.00  0.00     0.000 HD 
ENDBRANCH  30  31
ENDBRANCH   8  30
TORSDOF 5
ENDMDL
MODEL      152
REMARK 921   NORMALIZED FREE ENERGY PREDICTED BY IDOCK:   -3.59 KCAL/MOL
REMARK 922        TOTAL FREE ENERGY PREDICTED BY IDOCK:   -5.87 KCAL/MOL
REMARK 923 INTER-LIGAND FREE ENERGY PREDICTED BY IDOCK:   -6.51 KCAL/MOL
REMARK 924 INTRA-LIGAND FREE ENERGY PREDICTED BY IDOCK:    0.64 KCAL/MOL
REMARK 927      BINDING AFFINITY PREDICTED BY RF-SCORE:    0.00 PKD
ROOT
HETATM    1  C   UNL     1      -9.573  12.968  68.269  1.00  0.00    -0.213 C  
HETATM    2  C   UNL     1      -8.545  12.147  67.546  1.00  0.00    -0.171 C  
HETATM    3  O   UNL     1      -8.223  12.962  66.407  1.00  0.00     0.240 OA 
HETATM    4  C   UNL     1      -9.269  13.809  66.131  1.00  0.00     0.005 C  
HETATM    5  C   UNL     1     -10.355  13.616  67.148  1.00  0.00    -0.250 C  
HETATM    6  O   UNL     1      -9.332  14.500  65.128  1.00  0.00     0.273 OA 
HETATM    7  C   UNL     1     -11.207  14.791  67.661  1.00  0.00    -0.332 C  
HETATM    8  C   UNL     1     -10.485  12.305  69.284  1.00  0.00     0.191 C  
HETATM    9  C   UNL     1     -11.877  14.460  69.004  1.00  0.00    -0.358 A  
HETATM   10  C   UNL     1     -12.836  15.353  69.527  1.00  0.00     0.280 A  
HETATM   11  O   UNL     1     -14.229  15.905  71.451  1.00  0.00    -0.350 OA 
HETATM   12  C   UNL     1     -13.348  15.112  70.785  1.00  0.00    -0.341 A  
HETATM   13  C   UNL     1     -11.524  13.301  69.766  1.00  0.00    -0.228 A  
HETATM   14  C   UNL     1     -12.971  14.019  71.527  1.00  0.00    -0.351 A  
HETATM   15  C   UNL     1     -14.283  15.238  72.729  1.00  0.00    -0.055 C  
HETATM   16  O   UNL     1     -13.549  13.997  72.757  1.00  0.00    -0.629 OA 
HETATM   17  C   UNL     1     -12.084  13.089  71.042  1.00  0.00    -0.078 A  
ENDROOT
BRANCH   7  18
HETATM   18  C   UNL     1     -10.426  16.104  67.660  1.00  0.00    -0.292 A  
HETATM   19  O   UNL     1      -8.739  19.842  68.454  1.00  0.00    -0.319 OA 
HETATM   20  C   UNL     1     -10.309  18.498  67.311  1.00  0.00    -0.398 A  
HETATM   21  C   UNL     1      -9.258  16.196  68.432  1.00  0.00    -0.203 A  
HETATM   22  H   UNL     1      -9.125  20.631  68.093  1.00  0.00     0.000 HD 
HETATM   23  C   UNL     1     -10.906  17.267  67.045  1.00  0.00    -0.045 A  
HETATM   24  C   UNL     1      -9.205  18.580  68.177  1.00  0.00    -0.309 A  
HETATM   25  C   UNL     1      -8.637  17.421  68.707  1.00  0.00    -0.221 A  
BRANCH  25  26
HETATM   26  O   UNL     1      -7.536  17.253  69.502  1.00  0.00     0.028 OA 
HETATM   27  C   UNL     1      -6.681  16.143  69.339  1.00  0.00    -0.205 C  
ENDBRANCH  25  26
BRANCH  20  28
HETATM   28  O   UNL     1     -10.802  19.689  66.815  1.00  0.00    -0.474 OA 
HETATM   29  C   UNL     1     -10.192  20.877  67.308  1.00  0.00     0.280 C  
ENDBRANCH  20  28
ENDBRANCH   7  18
BRANCH   8  30
HETATM   30  O   UNL     1     -10.996  11.016  69.018  1.00  0.00    -0.201 OA 
BRANCH  30  31
HETATM   31  C   UNL     1     -10.254   9.795  69.092  1.00  0.00    -0.199 C  
HETATM   32  O   UNL     1     -10.357   9.007  67.899  1.00  0.00    -0.212 OA 
HETATM   33  C   UNL     1      -9.893   7.661  68.090  1.00  0.00    -0.164 C  
HETATM   34  C   UNL     1      -9.832   6.843  66.798  1.00  0.00    -0.181 C  
HETATM   35  O   UNL     1      -9.485   5.487  67.086  1.00  0.00    -0.116 OA 
HETATM   36  C   UNL     1     -10.433   4.878  67.959  1.00  0.00     0.114 C  
HETATM   37  C   UNL     1      -9.993   3.455  68.276  1.00  0.00     0.359 C  
HETATM   38  O   UNL     1     -10.490   5.561  69.207  1.00  0.00    -0.249 OA 
HETATM   39  C   UNL     1     -10.835   6.938  69.045  1.00  0.00    -0.212 C  
HETATM   40  C   UNL     1     -10.693   7.581  70.413  1.00  0.00    -0.239 C  
HETATM   41  O   UNL     1     -11.675   7.023  71.301  1.00  0.00    -0.282 OA 
HETATM   42  C   UNL     1     -10.838   9.103  70.362  1.00  0.00    -0.242 C  
HETATM   43  H   UNL     1     -11.587   7.425  72.157  1.00  0.00     0.000 HD 
HETATM   44  O   UNL     1     -10.223   9.695  71.533  1.00  0.00    -0.161 OA 
HETATM   45  H   UNL     1     -10.579   9.273  72.307  1.00  0.00     0.000 HD 
ENDBRANCH  30  31
ENDBRANCH   8  30
TORSDOF 5
ENDMDL
MODEL      153
REMARK 921   NORMALIZED FREE ENERGY PREDICTED BY IDOCK:   -3.55 KCAL/MOL
REMARK 922        TOTAL FREE ENERGY PREDICTED BY IDOCK:   -5.82 KCAL/MOL
REMARK 923 INTER-LIGAND FREE ENERGY PREDICTED BY IDOCK:   -5.14 KCAL/MOL
REMARK 924 INTRA-LIGAND FREE ENERGY PREDICTED BY IDOCK:   -0.68 KCAL/MOL
REMARK 927      BINDING AFFINITY PREDICTED BY RF-SCORE:    0.00 PKD
ROOT
HETATM    1  C   UNL     1     -10.357   7.732  67.738  1.00  0.00    -0.284 C  
HETATM    2  C   UNL     1     -11.647   7.018  67.462  1.00  0.00     0.770 C  
HETATM    3  O   UNL     1     -11.213   5.708  67.063  1.00  0.00    -0.005 OA 
HETATM    4  C   UNL     1      -9.928   5.771  66.581  1.00  0.00    -0.176 C  
HETATM    5  C   UNL     1      -9.417   7.178  66.689  1.00  0.00    -0.219 C  
HETATM    6  O   UNL     1      -9.367   4.839  66.030  1.00  0.00    -0.139 OA 
HETATM    7  C   UNL     1      -7.948   7.486  67.028  1.00  0.00    -0.116 C  
HETATM    8  C   UNL     1     -10.329   9.249  67.774  1.00  0.00    -0.237 C  
HETATM    9  C   UNL     1      -7.779   8.917  67.562  1.00  0.00    -0.100 A  
HETATM   10  C   UNL     1      -6.477   9.426  67.750  1.00  0.00    -0.059 A  
HETATM   11  O   UNL     1      -5.147  11.266  68.642  1.00  0.00    -0.041 OA 
HETATM   12  C   UNL     1      -6.329  10.665  68.338  1.00  0.00    -0.054 A  
HETATM   13  C   UNL     1      -8.898   9.732  67.924  1.00  0.00    -0.122 A  
HETATM   14  C   UNL     1      -7.409  11.423  68.721  1.00  0.00    -0.114 A  
HETATM   15  C   UNL     1      -5.611  12.436  69.346  1.00  0.00    -0.079 C  
HETATM   16  O   UNL     1      -7.046  12.582  69.330  1.00  0.00    -0.034 OA 
HETATM   17  C   UNL     1      -8.698  10.998  68.509  1.00  0.00    -0.159 A  
ENDROOT
BRANCH   7  18
HETATM   18  C   UNL     1      -7.332   6.409  67.920  1.00  0.00    -0.089 A  
HETATM   19  O   UNL     1      -6.307   2.929  69.989  1.00  0.00    -0.027 OA 
HETATM   20  C   UNL     1      -7.369   5.037  69.916  1.00  0.00    -0.059 A  
HETATM   21  C   UNL     1      -6.430   5.497  67.352  1.00  0.00    -0.051 A  
HETATM   22  H   UNL     1      -6.660   2.762  70.855  1.00  0.00     0.000 HD 
HETATM   23  C   UNL     1      -7.744   6.198  69.241  1.00  0.00    -0.099 A  
HETATM   24  C   UNL     1      -6.552   4.083  69.286  1.00  0.00    -0.040 A  
HETATM   25  C   UNL     1      -6.032   4.328  68.014  1.00  0.00    -0.027 A  
BRANCH  25  26
HETATM   26  O   UNL     1      -5.174   3.590  67.246  1.00  0.00    -0.010 OA 
HETATM   27  C   UNL     1      -5.577   2.364  66.675  1.00  0.00    -0.018 C  
ENDBRANCH  25  26
BRANCH  20  28
HETATM   28  O   UNL     1      -7.828   4.727  71.181  1.00  0.00    -0.079 OA 
HETATM   29  C   UNL     1      -7.124   5.316  72.269  1.00  0.00    -0.085 C  
ENDBRANCH  20  28
ENDBRANCH   7  18
BRANCH   8  30
HETATM   30  O   UNL     1     -11.094   9.977  66.836  1.00  0.00    -0.094 OA 
BRANCH  30  31
HETATM   31  C   UNL     1     -11.653  11.277  67.047  1.00  0.00     0.027 C  
HETATM   32  O   UNL     1     -10.895  12.318  66.417  1.00  0.00    -0.248 OA 
HETATM   33  C   UNL     1     -11.261  13.624  66.891  1.00  0.00    -0.312 C  
HETATM   34  C   UNL     1     -10.592  14.766  66.122  1.00  0.00    -0.311 C  
HETATM   35  O   UNL     1     -10.904  16.022  66.728  1.00  0.00    -0.294 OA 
HETATM   36  C   UNL     1     -10.464  16.073  68.082  1.00  0.00    -0.269 C  
HETATM   37  C   UNL     1     -10.864  17.407  68.699  1.00  0.00    -0.146 C  
HETATM   38  O   UNL     1     -11.101  15.069  68.865  1.00  0.00    -0.242 OA 
HETATM   39  C   UNL     1     -10.855  13.759  68.354  1.00  0.00    -0.252 C  
HETATM   40  C   UNL     1     -11.720  12.810  69.164  1.00  0.00    -0.322 C  
HETATM   41  O   UNL     1     -11.262  12.801  70.526  1.00  0.00    -0.040 OA 
HETATM   42  C   UNL     1     -11.715  11.387  68.601  1.00  0.00    -0.329 C  
HETATM   43  H   UNL     1     -11.803  12.208  71.033  1.00  0.00     0.000 HD 
HETATM   44  O   UNL     1     -12.886  10.671  69.068  1.00  0.00    -0.555 OA 
HETATM   45  H   UNL     1     -12.924  10.738  70.015  1.00  0.00     0.000 HD 
ENDBRANCH  30  31
ENDBRANCH   8  30
TORSDOF 5
ENDMDL
MODEL      154
REMARK 921   NORMALIZED FREE ENERGY PREDICTED BY IDOCK:   -3.49 KCAL/MOL
REMARK 922        TOTAL FREE ENERGY PREDICTED BY IDOCK:   -5.74 KCAL/MOL
REMARK 923 INTER-LIGAND FREE ENERGY PREDICTED BY IDOCK:   -6.76 KCAL/MOL
REMARK 924 INTRA-LIGAND FREE ENERGY PREDICTED BY IDOCK:    1.02 KCAL/MOL
REMARK 927      BINDING AFFINITY PREDICTED BY RF-SCORE:    0.00 PKD
ROOT
HETATM    1  C   UNL     1      -7.829  11.145  68.983  1.00  0.00    -0.103 C  
HETATM    2  C   UNL     1      -6.463  11.274  68.374  1.00  0.00    -0.057 C  
HETATM    3  O   UNL     1      -6.633  12.329  67.414  1.00  0.00    -0.126 OA 
HETATM    4  C   UNL     1      -7.955  12.413  67.047  1.00  0.00    -0.106 C  
HETATM    5  C   UNL     1      -8.758  11.406  67.817  1.00  0.00    -0.136 C  
HETATM    6  O   UNL     1      -8.359  13.114  66.134  1.00  0.00     0.575 OA 
HETATM    7  C   UNL     1     -10.192  11.700  68.293  1.00  0.00    -0.206 C  
HETATM    8  C   UNL     1      -8.203   9.879  69.730  1.00  0.00    -0.180 C  
HETATM    9  C   UNL     1     -10.608  10.769  69.442  1.00  0.00    -0.254 A  
HETATM   10  C   UNL     1     -11.950  10.779  69.877  1.00  0.00    -0.418 A  
HETATM   11  O   UNL     1     -13.524   9.980  71.560  1.00  0.00    -0.351 OA 
HETATM   12  C   UNL     1     -12.294  10.030  70.982  1.00  0.00    -0.360 A  
HETATM   13  C   UNL     1      -9.669   9.929  70.121  1.00  0.00    -0.255 A  
HETATM   14  C   UNL     1     -11.376   9.259  71.653  1.00  0.00    -0.397 A  
HETATM   15  C   UNL     1     -13.247   9.172  72.721  1.00  0.00    -0.146 C  
HETATM   16  O   UNL     1     -11.905   8.645  72.744  1.00  0.00    -0.270 OA 
HETATM   17  C   UNL     1     -10.069   9.170  71.238  1.00  0.00    -0.388 A  
ENDROOT
BRANCH   7  18
HETATM   18  C   UNL     1     -10.400  13.185  68.585  1.00  0.00    -0.207 A  
HETATM   19  O   UNL     1     -11.813  17.091  69.027  1.00  0.00     0.205 OA 
HETATM   20  C   UNL     1     -10.541  15.489  67.848  1.00  0.00    -0.274 A  
HETATM   21  C   UNL     1     -11.084  13.555  69.753  1.00  0.00     0.037 A  
HETATM   22  H   UNL     1     -11.652  17.741  68.354  1.00  0.00     0.000 HD 
HETATM   23  C   UNL     1     -10.075  14.188  67.664  1.00  0.00    -0.236 A  
HETATM   24  C   UNL     1     -11.319  15.811  68.973  1.00  0.00    -0.354 A  
HETATM   25  C   UNL     1     -11.556  14.857  69.964  1.00  0.00    -0.289 A  
BRANCH  25  26
HETATM   26  O   UNL     1     -12.215  14.959  71.158  1.00  0.00    -0.281 OA 
HETATM   27  C   UNL     1     -11.671  15.697  72.230  1.00  0.00    -0.481 C  
ENDBRANCH  25  26
BRANCH  20  28
HETATM   28  O   UNL     1     -10.338  16.493  66.922  1.00  0.00    -0.295 OA 
HETATM   29  C   UNL     1     -10.631  16.169  65.567  1.00  0.00    -0.377 C  
ENDBRANCH  20  28
ENDBRANCH   7  18
BRANCH   8  30
HETATM   30  O   UNL     1      -7.778   8.629  69.229  1.00  0.00    -0.091 OA 
BRANCH  30  31
HETATM   31  C   UNL     1      -8.220   7.350  69.696  1.00  0.00    -0.130 C  
HETATM   32  O   UNL     1      -7.538   6.924  70.883  1.00  0.00    -0.084 OA 
HETATM   33  C   UNL     1      -7.741   5.530  71.160  1.00  0.00    -0.104 C  
HETATM   34  C   UNL     1      -7.168   5.081  72.506  1.00  0.00    -0.087 C  
HETATM   35  O   UNL     1      -7.297   3.665  72.652  1.00  0.00    -0.051 OA 
HETATM   36  C   UNL     1      -6.612   2.967  71.616  1.00  0.00    -0.019 C  
HETATM   37  C   UNL     1      -6.821   1.468  71.786  1.00  0.00    -0.019 C  
HETATM   38  O   UNL     1      -7.145   3.298  70.338  1.00  0.00    -0.033 OA 
HETATM   39  C   UNL     1      -7.066   4.700  70.075  1.00  0.00    -0.049 C  
HETATM   40  C   UNL     1      -7.814   4.937  68.776  1.00  0.00    -0.077 C  
HETATM   41  O   UNL     1      -7.114   4.288  67.702  1.00  0.00    -0.062 OA 
HETATM   42  C   UNL     1      -7.988   6.424  68.463  1.00  0.00    -0.106 C  
HETATM   43  H   UNL     1      -7.582   4.435  66.890  1.00  0.00     0.000 HD 
HETATM   44  O   UNL     1      -9.088   6.606  67.537  1.00  0.00    -0.117 OA 
HETATM   45  H   UNL     1      -8.947   6.042  66.785  1.00  0.00     0.000 HD 
ENDBRANCH  30  31
ENDBRANCH   8  30
TORSDOF 5
ENDMDL
MODEL      155
REMARK 921   NORMALIZED FREE ENERGY PREDICTED BY IDOCK:   -3.48 KCAL/MOL
REMARK 922        TOTAL FREE ENERGY PREDICTED BY IDOCK:   -5.73 KCAL/MOL
REMARK 923 INTER-LIGAND FREE ENERGY PREDICTED BY IDOCK:   -5.31 KCAL/MOL
REMARK 924 INTRA-LIGAND FREE ENERGY PREDICTED BY IDOCK:   -0.42 KCAL/MOL
REMARK 927      BINDING AFFINITY PREDICTED BY RF-SCORE:    0.00 PKD
ROOT
HETATM    1  C   UNL     1     -10.099  11.403  68.534  1.00  0.00    -0.211 C  
HETATM    2  C   UNL     1     -11.179  10.392  68.788  1.00  0.00    -0.241 C  
HETATM    3  O   UNL     1     -11.010   9.459  67.708  1.00  0.00    -0.219 OA 
HETATM    4  C   UNL     1     -10.383  10.078  66.654  1.00  0.00    -0.213 C  
HETATM    5  C   UNL     1     -10.052  11.494  67.024  1.00  0.00    -0.237 C  
HETATM    6  O   UNL     1     -10.252   9.570  65.553  1.00  0.00    -0.174 OA 
HETATM    7  C   UNL     1      -8.763  12.182  66.540  1.00  0.00    -0.114 C  
HETATM    8  C   UNL     1     -10.185  12.773  69.179  1.00  0.00     0.260 C  
HETATM    9  C   UNL     1      -8.406  13.393  67.416  1.00  0.00    -0.193 A  
HETATM   10  C   UNL     1      -7.358  14.245  67.008  1.00  0.00     0.343 A  
HETATM   11  O   UNL     1      -5.937  16.126  67.634  1.00  0.00    -0.129 OA 
HETATM   12  C   UNL     1      -6.964  15.261  67.853  1.00  0.00    -0.146 A  
HETATM   13  C   UNL     1      -9.066  13.656  68.659  1.00  0.00    -0.035 A  
HETATM   14  C   UNL     1      -7.576  15.480  69.064  1.00  0.00    -0.180 A  
HETATM   15  C   UNL     1      -5.913  16.842  68.885  1.00  0.00    -0.159 C  
HETATM   16  O   UNL     1      -7.001  16.492  69.765  1.00  0.00    -0.127 OA 
HETATM   17  C   UNL     1      -8.636  14.715  69.483  1.00  0.00     0.198 A  
ENDROOT
BRANCH   7  18
HETATM   18  C   UNL     1      -7.621  11.185  66.356  1.00  0.00    -0.109 A  
HETATM   19  O   UNL     1      -5.185   7.842  65.776  1.00  0.00    -0.027 OA 
HETATM   20  C   UNL     1      -6.182   9.432  67.209  1.00  0.00    -0.057 A  
HETATM   21  C   UNL     1      -7.272  10.789  65.056  1.00  0.00     0.205 A  
HETATM   22  H   UNL     1      -4.843   7.361  66.520  1.00  0.00     0.000 HD 
HETATM   23  C   UNL     1      -7.009  10.532  67.433  1.00  0.00    -0.085 A  
HETATM   24  C   UNL     1      -5.935   8.986  65.900  1.00  0.00    -0.051 A  
HETATM   25  C   UNL     1      -6.438   9.692  64.806  1.00  0.00    -0.090 A  
BRANCH  25  26
HETATM   26  O   UNL     1      -6.272   9.490  63.464  1.00  0.00    -0.091 OA 
HETATM   27  C   UNL     1      -5.916  10.550  62.604  1.00  0.00    -0.141 C  
ENDBRANCH  25  26
BRANCH  20  28
HETATM   28  O   UNL     1      -5.635   8.688  68.235  1.00  0.00    -0.037 OA 
HETATM   29  C   UNL     1      -6.550   7.936  69.026  1.00  0.00    -0.044 C  
ENDBRANCH  20  28
ENDBRANCH   7  18
BRANCH   8  30
HETATM   30  O   UNL     1     -11.438  13.417  69.270  1.00  0.00    -0.267 OA 
BRANCH  30  31
HETATM   31  C   UNL     1     -11.817  14.607  68.570  1.00  0.00    -0.311 C  
HETATM   32  O   UNL     1     -11.084  14.793  67.352  1.00  0.00    -0.303 OA 
HETATM   33  C   UNL     1     -11.225  16.122  66.826  1.00  0.00     0.154 C  
HETATM   34  C   UNL     1     -10.595  16.306  65.444  1.00  0.00    -0.352 C  
HETATM   35  O   UNL     1     -10.665  17.677  65.046  1.00  0.00    -0.662 OA 
HETATM   36  C   UNL     1      -9.984  18.525  65.966  1.00  0.00    -0.222 C  
HETATM   37  C   UNL     1     -10.131  19.976  65.528  1.00  0.00    -0.165 C  
HETATM   38  O   UNL     1     -10.568  18.443  67.262  1.00  0.00    -0.406 OA 
HETATM   39  C   UNL     1     -10.551  17.109  67.772  1.00  0.00    -0.360 C  
HETATM   40  C   UNL     1     -11.346  17.130  69.064  1.00  0.00     0.487 C  
HETATM   41  O   UNL     1     -10.654  17.937  70.031  1.00  0.00    -0.008 OA 
HETATM   42  C   UNL     1     -11.587  15.729  69.628  1.00  0.00    -0.358 C  
HETATM   43  H   UNL     1     -11.151  17.951  70.840  1.00  0.00     0.000 HD 
HETATM   44  O   UNL     1     -12.720  15.750  70.531  1.00  0.00    -0.432 OA 
HETATM   45  H   UNL     1     -12.580  16.434  71.176  1.00  0.00     0.000 HD 
ENDBRANCH  30  31
ENDBRANCH   8  30
TORSDOF 5
ENDMDL
MODEL      156
REMARK 921   NORMALIZED FREE ENERGY PREDICTED BY IDOCK:   -3.46 KCAL/MOL
REMARK 922        TOTAL FREE ENERGY PREDICTED BY IDOCK:   -5.70 KCAL/MOL
REMARK 923 INTER-LIGAND FREE ENERGY PREDICTED BY IDOCK:   -6.66 KCAL/MOL
REMARK 924 INTRA-LIGAND FREE ENERGY PREDICTED BY IDOCK:    0.95 KCAL/MOL
REMARK 927      BINDING AFFINITY PREDICTED BY RF-SCORE:    0.00 PKD
ROOT
HETATM    1  C   UNL     1      -8.636   9.014  68.764  1.00  0.00    -0.132 C  
HETATM    2  C   UNL     1      -7.771   7.861  68.345  1.00  0.00    -0.114 C  
HETATM    3  O   UNL     1      -6.852   8.464  67.420  1.00  0.00    -0.068 OA 
HETATM    4  C   UNL     1      -7.408   9.602  66.888  1.00  0.00    -0.091 C  
HETATM    5  C   UNL     1      -8.758   9.837  67.500  1.00  0.00    -0.125 C  
HETATM    6  O   UNL     1      -6.915  10.225  65.963  1.00  0.00    -0.105 OA 
HETATM    7  C   UNL     1      -9.281  11.254  67.797  1.00  0.00    -0.156 C  
HETATM    8  C   UNL     1      -9.989   8.749  69.397  1.00  0.00    -0.196 C  
HETATM    9  C   UNL     1     -10.410  11.233  68.838  1.00  0.00    -0.214 A  
HETATM   10  C   UNL     1     -11.126  12.422  69.094  1.00  0.00    -0.260 A  
HETATM   11  O   UNL     1     -12.784  13.504  70.518  1.00  0.00    -0.254 OA 
HETATM   12  C   UNL     1     -12.059  12.428  70.110  1.00  0.00    -0.290 A  
HETATM   13  C   UNL     1     -10.727  10.060  69.595  1.00  0.00    -0.282 A  
HETATM   14  C   UNL     1     -12.326  11.308  70.859  1.00  0.00    -0.388 A  
HETATM   15  C   UNL     1     -13.459  12.955  71.669  1.00  0.00    -0.174 C  
HETATM   16  O   UNL     1     -13.235  11.541  71.843  1.00  0.00    -0.485 OA 
HETATM   17  C   UNL     1     -11.698  10.111  70.615  1.00  0.00    -0.425 A  
ENDROOT
BRANCH   7  18
HETATM   18  C   UNL     1      -8.145  12.222  68.127  1.00  0.00    -0.158 A  
HETATM   19  O   UNL     1      -5.509  14.985  69.820  1.00  0.00    -0.095 OA 
HETATM   20  C   UNL     1      -7.277  14.473  68.339  1.00  0.00    -0.116 A  
HETATM   21  C   UNL     1      -7.095  11.778  68.944  1.00  0.00    -0.114 A  
HETATM   22  H   UNL     1      -5.599  15.912  69.634  1.00  0.00     0.000 HD 
HETATM   23  C   UNL     1      -8.184  13.577  67.776  1.00  0.00    -0.176 A  
HETATM   24  C   UNL     1      -6.300  14.021  69.243  1.00  0.00    -0.110 A  
HETATM   25  C   UNL     1      -6.167  12.659  69.515  1.00  0.00    -0.121 A  
BRANCH  25  26
HETATM   26  O   UNL     1      -5.261  11.991  70.292  1.00  0.00    -0.083 OA 
HETATM   27  C   UNL     1      -5.159  12.245  71.676  1.00  0.00    -0.041 C  
ENDBRANCH  25  26
BRANCH  20  28
HETATM   28  O   UNL     1      -7.332  15.834  68.111  1.00  0.00    -0.118 OA 
HETATM   29  C   UNL     1      -7.591  16.237  66.770  1.00  0.00    -0.250 C  
ENDBRANCH  20  28
ENDBRANCH   7  18
BRANCH   8  30
HETATM   30  O   UNL     1     -10.791   7.699  68.900  1.00  0.00    -0.146 OA 
BRANCH  30  31
HETATM   31  C   UNL     1     -10.428   6.315  68.871  1.00  0.00    -0.232 C  
HETATM   32  O   UNL     1      -9.245   6.034  69.630  1.00  0.00    -0.136 OA 
HETATM   33  C   UNL     1      -8.704   4.735  69.340  1.00  0.00    -0.083 C  
HETATM   34  C   UNL     1      -7.542   4.336  70.252  1.00  0.00    -0.046 C  
HETATM   35  O   UNL     1      -6.980   3.094  69.823  1.00  0.00    -0.040 OA 
HETATM   36  C   UNL     1      -6.495   3.172  68.485  1.00  0.00    -0.033 C  
HETATM   37  C   UNL     1      -5.954   1.815  68.057  1.00  0.00    -0.024 C  
HETATM   38  O   UNL     1      -7.549   3.482  67.578  1.00  0.00    -0.069 OA 
HETATM   39  C   UNL     1      -8.190   4.715  67.906  1.00  0.00    -0.099 C  
HETATM   40  C   UNL     1      -9.386   4.839  66.981  1.00  0.00    -0.134 C  
HETATM   41  O   UNL     1      -8.925   4.974  65.627  1.00  0.00    -0.140 OA 
HETATM   42  C   UNL     1     -10.290   6.018  67.346  1.00  0.00    -0.216 C  
HETATM   43  H   UNL     1      -9.673   5.051  65.048  1.00  0.00     0.000 HD 
HETATM   44  O   UNL     1     -11.615   5.811  66.796  1.00  0.00    -0.117 OA 
HETATM   45  H   UNL     1     -11.531   5.629  65.867  1.00  0.00     0.000 HD 
ENDBRANCH  30  31
ENDBRANCH   8  30
TORSDOF 5
ENDMDL
MODEL      157
REMARK 921   NORMALIZED FREE ENERGY PREDICTED BY IDOCK:   -3.39 KCAL/MOL
REMARK 922        TOTAL FREE ENERGY PREDICTED BY IDOCK:   -5.62 KCAL/MOL
REMARK 923 INTER-LIGAND FREE ENERGY PREDICTED BY IDOCK:   -4.67 KCAL/MOL
REMARK 924 INTRA-LIGAND FREE ENERGY PREDICTED BY IDOCK:   -0.95 KCAL/MOL
REMARK 927      BINDING AFFINITY PREDICTED BY RF-SCORE:    0.00 PKD
ROOT
HETATM    1  C   UNL     1     -11.075  10.773  68.219  1.00  0.00    -0.327 C  
HETATM    2  C   UNL     1     -12.332  10.740  69.039  1.00  0.00     0.197 C  
HETATM    3  O   UNL     1     -12.285  11.986  69.753  1.00  0.00    -0.244 OA 
HETATM    4  C   UNL     1     -10.985  12.419  69.847  1.00  0.00     0.470 C  
HETATM    5  C   UNL     1     -10.081  11.462  69.128  1.00  0.00    -0.044 C  
HETATM    6  O   UNL     1     -10.636  13.366  70.533  1.00  0.00     1.559 OA 
HETATM    7  C   UNL     1      -8.842  11.940  68.349  1.00  0.00    -0.159 C  
HETATM    8  C   UNL     1     -10.517   9.483  67.646  1.00  0.00    -0.263 C  
HETATM    9  C   UNL     1      -8.381  10.895  67.322  1.00  0.00    -0.123 A  
HETATM   10  C   UNL     1      -7.156  11.091  66.650  1.00  0.00    -0.139 A  
HETATM   11  O   UNL     1      -5.691  10.300  64.869  1.00  0.00    -0.105 OA 
HETATM   12  C   UNL     1      -6.802  10.213  65.648  1.00  0.00    -0.124 A  
HETATM   13  C   UNL     1      -9.177   9.753  66.987  1.00  0.00    -0.166 A  
HETATM   14  C   UNL     1      -7.594   9.144  65.304  1.00  0.00    -0.098 A  
HETATM   15  C   UNL     1      -5.927   9.225  63.937  1.00  0.00    -0.080 C  
HETATM   16  O   UNL     1      -7.093   8.438  64.256  1.00  0.00    -0.079 OA 
HETATM   17  C   UNL     1      -8.768   8.875  65.963  1.00  0.00    -0.185 A  
ENDROOT
BRANCH   7  18
HETATM   18  C   UNL     1      -9.040  13.340  67.770  1.00  0.00    -0.202 A  
HETATM   19  O   UNL     1      -9.323  16.763  65.393  1.00  0.00    -0.343 OA 
HETATM   20  C   UNL     1      -8.148  15.441  66.958  1.00  0.00    -0.230 A  
HETATM   21  C   UNL     1     -10.238  13.632  67.102  1.00  0.00    -0.244 A  
HETATM   22  H   UNL     1      -8.589  17.361  65.322  1.00  0.00     0.000 HD 
HETATM   23  C   UNL     1      -8.017  14.296  67.742  1.00  0.00    -0.174 A  
HETATM   24  C   UNL     1      -9.317  15.658  66.209  1.00  0.00    -0.323 A  
HETATM   25  C   UNL     1     -10.396  14.779  66.313  1.00  0.00    -0.297 A  
BRANCH  25  26
HETATM   26  O   UNL     1     -11.639  14.824  65.744  1.00  0.00    -0.347 OA 
HETATM   27  C   UNL     1     -12.311  13.643  65.365  1.00  0.00    -0.476 C  
ENDBRANCH  25  26
BRANCH  20  28
HETATM   28  O   UNL     1      -7.133  16.366  66.812  1.00  0.00    -0.214 OA 
HETATM   29  C   UNL     1      -7.042  17.366  67.820  1.00  0.00    -0.171 C  
ENDBRANCH  20  28
ENDBRANCH   7  18
BRANCH   8  30
HETATM   30  O   UNL     1     -10.554   8.307  68.426  1.00  0.00    -0.186 OA 
BRANCH  30  31
HETATM   31  C   UNL     1      -9.931   8.134  69.703  1.00  0.00    -0.193 C  
HETATM   32  O   UNL     1      -8.527   8.425  69.682  1.00  0.00    -0.123 OA 
HETATM   33  C   UNL     1      -7.851   7.946  70.855  1.00  0.00    -0.088 C  
HETATM   34  C   UNL     1      -6.388   8.385  70.943  1.00  0.00    -0.038 C  
HETATM   35  O   UNL     1      -5.753   7.769  72.065  1.00  0.00    -0.036 OA 
HETATM   36  C   UNL     1      -5.791   6.348  71.975  1.00  0.00    -0.037 C  
HETATM   37  C   UNL     1      -5.150   5.740  73.215  1.00  0.00    -0.022 C  
HETATM   38  O   UNL     1      -7.134   5.874  71.952  1.00  0.00    -0.078 OA 
HETATM   39  C   UNL     1      -7.874   6.423  70.861  1.00  0.00    -0.107 C  
HETATM   40  C   UNL     1      -9.313   5.980  71.050  1.00  0.00    -0.161 C  
HETATM   41  O   UNL     1      -9.391   4.552  70.910  1.00  0.00    -0.133 OA 
HETATM   42  C   UNL     1     -10.269   6.655  70.064  1.00  0.00    -0.187 C  
HETATM   43  H   UNL     1     -10.291   4.275  71.028  1.00  0.00     0.000 HD 
HETATM   44  O   UNL     1     -11.622   6.604  70.578  1.00  0.00    -0.345 OA 
HETATM   45  H   UNL     1     -11.829   5.703  70.798  1.00  0.00     0.000 HD 
ENDBRANCH  30  31
ENDBRANCH   8  30
TORSDOF 5
ENDMDL
MODEL      158
REMARK 921   NORMALIZED FREE ENERGY PREDICTED BY IDOCK:   -3.13 KCAL/MOL
REMARK 922        TOTAL FREE ENERGY PREDICTED BY IDOCK:   -5.27 KCAL/MOL
REMARK 923 INTER-LIGAND FREE ENERGY PREDICTED BY IDOCK:   -6.26 KCAL/MOL
REMARK 924 INTRA-LIGAND FREE ENERGY PREDICTED BY IDOCK:    0.99 KCAL/MOL
REMARK 927      BINDING AFFINITY PREDICTED BY RF-SCORE:    0.00 PKD
ROOT
HETATM    1  C   UNL     1     -10.707  10.186  69.987  1.00  0.00    -0.356 C  
HETATM    2  C   UNL     1     -11.901   9.463  70.537  1.00  0.00    -0.151 C  
HETATM    3  O   UNL     1     -11.616   8.088  70.232  1.00  0.00    -0.156 OA 
HETATM    4  C   UNL     1     -10.749   8.018  69.169  1.00  0.00    -0.106 C  
HETATM    5  C   UNL     1     -10.369   9.404  68.736  1.00  0.00    -0.230 C  
HETATM    6  O   UNL     1     -10.460   6.979  68.600  1.00  0.00    -0.190 OA 
HETATM    7  C   UNL     1      -8.956   9.739  68.226  1.00  0.00    -0.119 C  
HETATM    8  C   UNL     1     -10.790  11.677  69.714  1.00  0.00     0.176 C  
HETATM    9  C   UNL     1      -8.662  11.244  68.320  1.00  0.00    -0.158 A  
HETATM   10  C   UNL     1      -7.485  11.748  67.728  1.00  0.00    -0.117 A  
HETATM   11  O   UNL     1      -6.044  13.698  67.464  1.00  0.00    -0.294 OA 
HETATM   12  C   UNL     1      -7.167  13.077  67.914  1.00  0.00    -0.129 A  
HETATM   13  C   UNL     1      -9.518  12.144  69.031  1.00  0.00     0.309 A  
HETATM   14  C   UNL     1      -7.974  13.925  68.635  1.00  0.00    -0.109 A  
HETATM   15  C   UNL     1      -6.193  15.000  68.067  1.00  0.00    -0.150 C  
HETATM   16  O   UNL     1      -7.453  15.175  68.745  1.00  0.00    -0.116 OA 
HETATM   17  C   UNL     1      -9.159  13.498  69.184  1.00  0.00     0.530 A  
ENDROOT
BRANCH   7  18
HETATM   18  C   UNL     1      -7.892   8.853  68.874  1.00  0.00    -0.096 A  
HETATM   19  O   UNL     1      -5.661   5.797  70.642  1.00  0.00    -0.012 OA 
HETATM   20  C   UNL     1      -6.932   7.780  70.822  1.00  0.00    -0.046 A  
HETATM   21  C   UNL     1      -7.186   7.947  68.070  1.00  0.00    -0.090 A  
HETATM   22  H   UNL     1      -5.606   5.726  71.588  1.00  0.00     0.000 HD 
HETATM   23  C   UNL     1      -7.700   8.798  70.260  1.00  0.00    -0.085 A  
HETATM   24  C   UNL     1      -6.322   6.816  70.001  1.00  0.00    -0.039 A  
HETATM   25  C   UNL     1      -6.402   6.920  68.611  1.00  0.00    -0.032 A  
BRANCH  25  26
HETATM   26  O   UNL     1      -5.840   6.153  67.628  1.00  0.00    -0.015 OA 
HETATM   27  C   UNL     1      -6.641   5.440  66.711  1.00  0.00    -0.056 C  
ENDBRANCH  25  26
BRANCH  20  28
HETATM   28  O   UNL     1      -6.792   7.615  72.186  1.00  0.00    -0.057 OA 
HETATM   29  C   UNL     1      -7.724   8.315  73.003  1.00  0.00    -0.125 C  
ENDBRANCH  20  28
ENDBRANCH   7  18
BRANCH   8  30
HETATM   30  O   UNL     1     -11.975  12.215  69.168  1.00  0.00    -0.299 OA 
BRANCH  30  31
HETATM   31  C   UNL     1     -12.214  13.600  68.898  1.00  0.00    -0.186 C  
HETATM   32  O   UNL     1     -11.202  14.189  68.071  1.00  0.00    -0.261 OA 
HETATM   33  C   UNL     1     -11.263  15.624  68.069  1.00  0.00    -0.339 C  
HETATM   34  C   UNL     1     -10.307  16.278  67.069  1.00  0.00    -0.292 C  
HETATM   35  O   UNL     1     -10.334  17.699  67.215  1.00  0.00    -0.334 OA 
HETATM   36  C   UNL     1      -9.952  18.098  68.529  1.00  0.00    -0.395 C  
HETATM   37  C   UNL     1     -10.045  19.613  68.650  1.00  0.00    -0.547 C  
HETATM   38  O   UNL     1     -10.844  17.568  69.503  1.00  0.00     0.064 OA 
HETATM   39  C   UNL     1     -10.899  16.142  69.456  1.00  0.00    -0.329 C  
HETATM   40  C   UNL     1     -12.000  15.720  70.412  1.00  0.00    -0.359 C  
HETATM   41  O   UNL     1     -11.616  16.062  71.754  1.00  0.00    -0.444 OA 
HETATM   42  C   UNL     1     -12.314  14.226  70.323  1.00  0.00    -0.354 C  
HETATM   43  H   UNL     1     -12.305  15.799  72.352  1.00  0.00     0.000 HD 
HETATM   44  O   UNL     1     -13.641  13.970  70.846  1.00  0.00    -0.166 OA 
HETATM   45  H   UNL     1     -13.702  14.351  71.715  1.00  0.00     0.000 HD 
ENDBRANCH  30  31
ENDBRANCH   8  30
TORSDOF 5
ENDMDL
MODEL      159
REMARK 921   NORMALIZED FREE ENERGY PREDICTED BY IDOCK:   -3.08 KCAL/MOL
REMARK 922        TOTAL FREE ENERGY PREDICTED BY IDOCK:   -5.21 KCAL/MOL
REMARK 923 INTER-LIGAND FREE ENERGY PREDICTED BY IDOCK:   -5.07 KCAL/MOL
REMARK 924 INTRA-LIGAND FREE ENERGY PREDICTED BY IDOCK:   -0.14 KCAL/MOL
REMARK 927      BINDING AFFINITY PREDICTED BY RF-SCORE:    0.00 PKD
ROOT
HETATM    1  C   UNL     1      -6.710   8.411  68.964  1.00  0.00    -0.052 C  
HETATM    2  C   UNL     1      -6.260   8.261  70.388  1.00  0.00    -0.035 C  
HETATM    3  O   UNL     1      -7.300   7.462  70.974  1.00  0.00    -0.071 OA 
HETATM    4  C   UNL     1      -8.461   7.609  70.253  1.00  0.00    -0.134 C  
HETATM    5  C   UNL     1      -8.215   8.513  69.081  1.00  0.00    -0.119 C  
HETATM    6  O   UNL     1      -9.540   7.171  70.614  1.00  0.00    -0.166 OA 
HETATM    7  C   UNL     1      -8.903   8.288  67.722  1.00  0.00    -0.137 C  
HETATM    8  C   UNL     1      -6.134   9.522  68.106  1.00  0.00    -0.055 C  
HETATM    9  C   UNL     1      -8.149   8.993  66.583  1.00  0.00    -0.107 A  
HETATM   10  C   UNL     1      -8.739   9.043  65.303  1.00  0.00    -0.226 A  
HETATM   11  O   UNL     1      -8.410   9.637  62.960  1.00  0.00    -0.144 OA 
HETATM   12  C   UNL     1      -8.010   9.572  64.258  1.00  0.00    -0.136 A  
HETATM   13  C   UNL     1      -6.846   9.556  66.766  1.00  0.00    -0.080 A  
HETATM   14  C   UNL     1      -6.742  10.072  64.435  1.00  0.00    -0.128 A  
HETATM   15  C   UNL     1      -7.214  10.140  62.332  1.00  0.00    -0.129 C  
HETATM   16  O   UNL     1      -6.179  10.494  63.272  1.00  0.00    -0.133 OA 
HETATM   17  C   UNL     1      -6.144  10.099  65.671  1.00  0.00    -0.095 A  
ENDROOT
BRANCH   7  18
HETATM   18  C   UNL     1      -9.183   6.809  67.464  1.00  0.00    -0.122 A  
HETATM   19  O   UNL     1      -9.446   2.908  65.993  1.00  0.00    -0.342 OA 
HETATM   20  C   UNL     1     -10.386   5.052  66.307  1.00  0.00    -0.291 A  
HETATM   21  C   UNL     1      -8.200   5.866  67.799  1.00  0.00    -0.105 A  
HETATM   22  H   UNL     1     -10.182   2.646  65.454  1.00  0.00     0.000 HD 
HETATM   23  C   UNL     1     -10.314   6.366  66.767  1.00  0.00    -0.279 A  
HETATM   24  C   UNL     1      -9.335   4.154  66.561  1.00  0.00    -0.174 A  
HETATM   25  C   UNL     1      -8.253   4.539  67.355  1.00  0.00    -0.101 A  
BRANCH  25  26
HETATM   26  O   UNL     1      -7.169   3.826  67.787  1.00  0.00    -0.060 OA 
HETATM   27  C   UNL     1      -6.158   4.433  68.562  1.00  0.00    -0.031 C  
ENDBRANCH  25  26
BRANCH  20  28
HETATM   28  O   UNL     1     -11.428   4.589  65.528  1.00  0.00     0.198 OA 
HETATM   29  C   UNL     1     -11.074   4.051  64.259  1.00  0.00     0.130 C  
ENDBRANCH  20  28
ENDBRANCH   7  18
BRANCH   8  30
HETATM   30  O   UNL     1      -5.912  10.793  68.678  1.00  0.00    -0.041 OA 
BRANCH  30  31
HETATM   31  C   UNL     1      -6.920  11.646  69.230  1.00  0.00    -0.083 C  
HETATM   32  O   UNL     1      -7.888  12.065  68.260  1.00  0.00    -0.130 OA 
HETATM   33  C   UNL     1      -8.694  13.159  68.726  1.00  0.00     0.162 C  
HETATM   34  C   UNL     1      -9.844  13.520  67.784  1.00  0.00    -0.233 C  
HETATM   35  O   UNL     1     -10.518  14.690  68.251  1.00  0.00    -0.228 OA 
HETATM   36  C   UNL     1      -9.636  15.806  68.331  1.00  0.00    -0.200 C  
HETATM   37  C   UNL     1     -10.386  17.012  68.881  1.00  0.00    -0.337 C  
HETATM   38  O   UNL     1      -8.573  15.552  69.244  1.00  0.00    -0.234 OA 
HETATM   39  C   UNL     1      -7.818  14.397  68.875  1.00  0.00    -0.118 C  
HETATM   40  C   UNL     1      -6.841  14.141  70.008  1.00  0.00     0.072 C  
HETATM   41  O   UNL     1      -5.903  15.228  70.077  1.00  0.00    -0.124 OA 
HETATM   42  C   UNL     1      -6.094  12.815  69.849  1.00  0.00    -0.122 C  
HETATM   43  H   UNL     1      -5.291  15.068  70.786  1.00  0.00     0.000 HD 
HETATM   44  O   UNL     1      -5.578  12.385  71.133  1.00  0.00    -0.334 OA 
HETATM   45  H   UNL     1      -5.074  13.097  71.511  1.00  0.00     0.000 HD 
ENDBRANCH  30  31
ENDBRANCH   8  30
TORSDOF 5
ENDMDL
MODEL      160
REMARK 921   NORMALIZED FREE ENERGY PREDICTED BY IDOCK:   -3.08 KCAL/MOL
REMARK 922        TOTAL FREE ENERGY PREDICTED BY IDOCK:   -5.21 KCAL/MOL
REMARK 923 INTER-LIGAND FREE ENERGY PREDICTED BY IDOCK:   -5.38 KCAL/MOL
REMARK 924 INTRA-LIGAND FREE ENERGY PREDICTED BY IDOCK:    0.17 KCAL/MOL
REMARK 927      BINDING AFFINITY PREDICTED BY RF-SCORE:    0.00 PKD
ROOT
HETATM    1  C   UNL     1     -10.757   8.471  67.691  1.00  0.00    -0.189 C  
HETATM    2  C   UNL     1     -11.535   9.561  68.368  1.00  0.00     0.450 C  
HETATM    3  O   UNL     1     -10.736  10.730  68.125  1.00  0.00    -0.184 OA 
HETATM    4  C   UNL     1      -9.432  10.361  67.897  1.00  0.00    -0.138 C  
HETATM    5  C   UNL     1      -9.316   8.866  67.935  1.00  0.00    -0.155 C  
HETATM    6  O   UNL     1      -8.510  11.155  67.817  1.00  0.00    -0.120 OA 
HETATM    7  C   UNL     1      -8.357   8.099  67.006  1.00  0.00    -0.116 C  
HETATM    8  C   UNL     1     -11.015   7.022  68.059  1.00  0.00    -0.113 C  
HETATM    9  C   UNL     1      -8.759   6.623  66.871  1.00  0.00    -0.116 A  
HETATM   10  C   UNL     1      -7.888   5.736  66.204  1.00  0.00    -0.101 A  
HETATM   11  O   UNL     1      -7.611   3.485  65.306  1.00  0.00    -0.076 OA 
HETATM   12  C   UNL     1      -8.304   4.440  65.983  1.00  0.00    -0.113 A  
HETATM   13  C   UNL     1     -10.012   6.127  67.353  1.00  0.00    -0.166 A  
HETATM   14  C   UNL     1      -9.527   3.985  66.413  1.00  0.00    -0.191 A  
HETATM   15  C   UNL     1      -8.579   2.417  65.276  1.00  0.00    -0.111 C  
HETATM   16  O   UNL     1      -9.765   2.698  66.045  1.00  0.00     0.145 OA 
HETATM   17  C   UNL     1     -10.390   4.791  67.115  1.00  0.00    -0.140 A  
ENDROOT
BRANCH   7  18
HETATM   18  C   UNL     1      -8.160   8.819  65.673  1.00  0.00    -0.108 A  
HETATM   19  O   UNL     1      -7.177  11.409  62.547  1.00  0.00    -0.340 OA 
HETATM   20  C   UNL     1      -8.739  10.578  64.111  1.00  0.00    -0.172 A  
HETATM   21  C   UNL     1      -6.939   8.671  64.998  1.00  0.00    -0.076 A  
HETATM   22  H   UNL     1      -7.786  12.083  62.270  1.00  0.00     0.000 HD 
HETATM   23  C   UNL     1      -9.087   9.741  65.170  1.00  0.00    -0.270 A  
HETATM   24  C   UNL     1      -7.467  10.485  63.521  1.00  0.00     0.050 A  
HETATM   25  C   UNL     1      -6.571   9.495  63.927  1.00  0.00    -0.101 A  
BRANCH  25  26
HETATM   26  O   UNL     1      -5.327   9.174  63.458  1.00  0.00    -0.065 OA 
HETATM   27  C   UNL     1      -5.150   8.164  62.490  1.00  0.00    -0.063 C  
ENDBRANCH  25  26
BRANCH  20  28
HETATM   28  O   UNL     1      -9.573  11.573  63.641  1.00  0.00    -0.268 OA 
HETATM   29  C   UNL     1     -10.965  11.396  63.884  1.00  0.00    -0.366 C  
ENDBRANCH  20  28
ENDBRANCH   7  18
BRANCH   8  30
HETATM   30  O   UNL     1     -11.246   6.682  69.410  1.00  0.00    -0.306 OA 
BRANCH  30  31
HETATM   31  C   UNL     1     -10.434   7.078  70.519  1.00  0.00    -0.208 C  
HETATM   32  O   UNL     1      -9.034   7.086  70.210  1.00  0.00    -0.147 OA 
HETATM   33  C   UNL     1      -8.213   7.162  71.386  1.00  0.00    -0.107 C  
HETATM   34  C   UNL     1      -6.724   7.341  71.085  1.00  0.00    -0.044 C  
HETATM   35  O   UNL     1      -5.963   7.281  72.294  1.00  0.00    -0.040 OA 
HETATM   36  C   UNL     1      -6.140   6.036  72.964  1.00  0.00    -0.053 C  
HETATM   37  C   UNL     1      -5.354   6.041  74.267  1.00  0.00    -0.037 C  
HETATM   38  O   UNL     1      -7.503   5.840  73.325  1.00  0.00    -0.093 OA 
HETATM   39  C   UNL     1      -8.367   5.876  72.188  1.00  0.00    -0.118 C  
HETATM   40  C   UNL     1      -9.787   5.829  72.723  1.00  0.00    -0.160 C  
HETATM   41  O   UNL     1     -10.011   4.559  73.358  1.00  0.00    -0.142 OA 
HETATM   42  C   UNL     1     -10.833   6.060  71.631  1.00  0.00    -0.260 C  
HETATM   43  H   UNL     1     -10.899   4.530  73.693  1.00  0.00     0.000 HD 
HETATM   44  O   UNL     1     -12.079   6.495  72.228  1.00  0.00    -0.447 OA 
HETATM   45  H   UNL     1     -12.323   5.874  72.906  1.00  0.00     0.000 HD 
ENDBRANCH  30  31
ENDBRANCH   8  30
TORSDOF 5
ENDMDL
MODEL      161
REMARK 921   NORMALIZED FREE ENERGY PREDICTED BY IDOCK:   -2.97 KCAL/MOL
REMARK 922        TOTAL FREE ENERGY PREDICTED BY IDOCK:   -5.07 KCAL/MOL
REMARK 923 INTER-LIGAND FREE ENERGY PREDICTED BY IDOCK:   -5.19 KCAL/MOL
REMARK 924 INTRA-LIGAND FREE ENERGY PREDICTED BY IDOCK:    0.13 KCAL/MOL
REMARK 927      BINDING AFFINITY PREDICTED BY RF-SCORE:    0.00 PKD
ROOT
HETATM    1  C   UNL     1     -10.337   7.499  69.103  1.00  0.00    -0.215 C  
HETATM    2  C   UNL     1     -11.592   6.690  68.947  1.00  0.00     0.150 C  
HETATM    3  O   UNL     1     -11.156   5.355  69.247  1.00  0.00    -0.053 OA 
HETATM    4  C   UNL     1      -9.805   5.245  69.021  1.00  0.00    -0.167 C  
HETATM    5  C   UNL     1      -9.257   6.573  68.588  1.00  0.00    -0.127 C  
HETATM    6  O   UNL     1      -9.200   4.187  69.044  1.00  0.00    -0.124 OA 
HETATM    7  C   UNL     1      -7.856   7.052  69.010  1.00  0.00    -0.115 C  
HETATM    8  C   UNL     1     -10.247   8.877  68.473  1.00  0.00    -0.197 C  
HETATM    9  C   UNL     1      -7.717   8.576  68.881  1.00  0.00    -0.100 A  
HETATM   10  C   UNL     1      -6.445   9.163  69.053  1.00  0.00    -0.047 A  
HETATM   11  O   UNL     1      -5.207  11.254  69.264  1.00  0.00    -0.044 OA 
HETATM   12  C   UNL     1      -6.344  10.538  69.052  1.00  0.00    -0.045 A  
HETATM   13  C   UNL     1      -8.843   9.427  68.644  1.00  0.00    -0.132 A  
HETATM   14  C   UNL     1      -7.439  11.348  68.866  1.00  0.00    -0.113 A  
HETATM   15  C   UNL     1      -5.732  12.597  69.288  1.00  0.00    -0.081 C  
HETATM   16  O   UNL     1      -7.133  12.669  68.957  1.00  0.00    -0.094 OA 
HETATM   17  C   UNL     1      -8.689  10.828  68.639  1.00  0.00    -0.152 A  
ENDROOT
BRANCH   7  18
HETATM   18  C   UNL     1      -7.454   6.500  70.377  1.00  0.00    -0.094 A  
HETATM   19  O   UNL     1      -5.538   5.383  73.916  1.00  0.00    -0.022 OA 
HETATM   20  C   UNL     1      -6.309   4.862  71.746  1.00  0.00    -0.030 A  
HETATM   21  C   UNL     1      -7.470   7.361  71.484  1.00  0.00    -0.080 A  
HETATM   22  H   UNL     1      -5.112   4.537  73.987  1.00  0.00     0.000 HD 
HETATM   23  C   UNL     1      -6.923   5.215  70.545  1.00  0.00    -0.045 A  
HETATM   24  C   UNL     1      -6.241   5.782  72.806  1.00  0.00    -0.052 A  
HETATM   25  C   UNL     1      -6.866   7.026  72.703  1.00  0.00    -0.068 A  
BRANCH  25  26
HETATM   26  O   UNL     1      -6.990   8.038  73.614  1.00  0.00    -0.109 OA 
HETATM   27  C   UNL     1      -8.060   8.065  74.533  1.00  0.00    -0.225 C  
ENDBRANCH  25  26
BRANCH  20  28
HETATM   28  O   UNL     1      -5.679   3.647  71.933  1.00  0.00    -0.008 OA 
HETATM   29  C   UNL     1      -6.440   2.638  72.588  1.00  0.00    -0.014 C  
ENDBRANCH  20  28
ENDBRANCH   7  18
BRANCH   8  30
HETATM   30  O   UNL     1     -10.802   9.089  67.192  1.00  0.00    -0.210 OA 
BRANCH  30  31
HETATM   31  C   UNL     1     -11.492  10.270  66.769  1.00  0.00     0.872 C  
HETATM   32  O   UNL     1     -10.830  10.945  65.691  1.00  0.00    -0.165 OA 
HETATM   33  C   UNL     1     -11.332  12.276  65.489  1.00  0.00    -0.349 C  
HETATM   34  C   UNL     1     -10.766  12.962  64.244  1.00  0.00    -0.406 C  
HETATM   35  O   UNL     1     -11.212  14.319  64.181  1.00  0.00    -0.206 OA 
HETATM   36  C   UNL     1     -10.804  15.059  65.327  1.00  0.00    -0.386 C  
HETATM   37  C   UNL     1     -11.345  16.479  65.238  1.00  0.00     0.211 C  
HETATM   38  O   UNL     1     -11.352  14.501  66.517  1.00  0.00    -0.337 OA 
HETATM   39  C   UNL     1     -10.968  13.137  66.692  1.00  0.00    -0.283 C  
HETATM   40  C   UNL     1     -11.748  12.619  67.887  1.00  0.00    -0.358 C  
HETATM   41  O   UNL     1     -11.316  13.312  69.069  1.00  0.00    -0.256 OA 
HETATM   42  C   UNL     1     -11.593  11.109  68.079  1.00  0.00    -0.263 C  
HETATM   43  H   UNL     1     -11.805  12.989  69.816  1.00  0.00     0.000 HD 
HETATM   44  O   UNL     1     -12.694  10.599  68.870  1.00  0.00    -0.657 OA 
HETATM   45  H   UNL     1     -12.756  11.110  69.669  1.00  0.00     0.000 HD 
ENDBRANCH  30  31
ENDBRANCH   8  30
TORSDOF 5
ENDMDL
MODEL      162
REMARK 921   NORMALIZED FREE ENERGY PREDICTED BY IDOCK:   -2.79 KCAL/MOL
REMARK 922        TOTAL FREE ENERGY PREDICTED BY IDOCK:   -4.83 KCAL/MOL
REMARK 923 INTER-LIGAND FREE ENERGY PREDICTED BY IDOCK:   -9.36 KCAL/MOL
REMARK 924 INTRA-LIGAND FREE ENERGY PREDICTED BY IDOCK:    4.53 KCAL/MOL
REMARK 927      BINDING AFFINITY PREDICTED BY RF-SCORE:    0.00 PKD
ROOT
HETATM    1  C   UNL     1     -11.761  13.762  67.149  1.00  0.00    -0.417 C  
HETATM    2  C   UNL     1     -12.160  12.400  66.660  1.00  0.00    -0.075 C  
HETATM    3  O   UNL     1     -12.177  11.615  67.863  1.00  0.00    -0.560 OA 
HETATM    4  C   UNL     1     -11.358  12.191  68.804  1.00  0.00    -0.288 C  
HETATM    5  C   UNL     1     -10.776  13.461  68.258  1.00  0.00    -0.273 C  
HETATM    6  O   UNL     1     -11.062  11.656  69.860  1.00  0.00    -0.133 OA 
HETATM    7  C   UNL     1     -10.534  14.695  69.147  1.00  0.00    -0.239 C  
HETATM    8  C   UNL     1     -11.214  14.782  66.169  1.00  0.00    -0.337 C  
HETATM    9  C   UNL     1     -10.417  15.979  68.312  1.00  0.00    -0.269 A  
HETATM   10  C   UNL     1     -10.016  17.173  68.948  1.00  0.00    -0.304 A  
HETATM   11  O   UNL     1      -9.724  19.582  68.703  1.00  0.00    -0.389 OA 
HETATM   12  C   UNL     1     -10.024  18.345  68.222  1.00  0.00    -0.369 A  
HETATM   13  C   UNL     1     -10.751  16.017  66.921  1.00  0.00    -0.262 A  
HETATM   14  C   UNL     1     -10.386  18.379  66.897  1.00  0.00    -0.390 A  
HETATM   15  C   UNL     1     -10.037  20.401  67.559  1.00  0.00    -0.355 C  
HETATM   16  O   UNL     1     -10.381  19.637  66.385  1.00  0.00    -0.425 OA 
HETATM   17  C   UNL     1     -10.732  17.237  66.216  1.00  0.00    -0.077 A  
ENDROOT
BRANCH   7  18
HETATM   18  C   UNL     1     -11.547  14.781  70.287  1.00  0.00    -0.333 A  
HETATM   19  O   UNL     1     -13.604  14.724  73.922  1.00  0.00     0.036 OA 
HETATM   20  C   UNL     1     -13.074  13.729  71.847  1.00  0.00    -0.388 A  
HETATM   21  C   UNL     1     -11.538  15.913  71.115  1.00  0.00    -0.481 A  
HETATM   22  H   UNL     1     -14.101  13.958  74.182  1.00  0.00     0.000 HD 
HETATM   23  C   UNL     1     -12.381  13.712  70.637  1.00  0.00    -0.440 A  
HETATM   24  C   UNL     1     -12.962  14.831  72.713  1.00  0.00    -0.459 A  
HETATM   25  C   UNL     1     -12.231  15.957  72.331  1.00  0.00    -0.498 A  
BRANCH  25  26
HETATM   26  O   UNL     1     -12.043  17.153  72.968  1.00  0.00     0.097 OA 
HETATM   27  C   UNL     1     -11.953  17.225  74.374  1.00  0.00     0.192 C  
ENDBRANCH  25  26
BRANCH  20  28
HETATM   28  O   UNL     1     -13.829  12.661  72.290  1.00  0.00    -0.446 OA 
HETATM   29  C   UNL     1     -13.282  11.367  72.065  1.00  0.00    -0.327 C  
ENDBRANCH  20  28
ENDBRANCH   7  18
BRANCH   8  30
HETATM   30  O   UNL     1     -10.334  14.359  65.149  1.00  0.00    -0.377 OA 
BRANCH  30  31
HETATM   31  C   UNL     1      -9.275  13.410  65.303  1.00  0.00     0.798 C  
HETATM   32  O   UNL     1      -9.739  12.054  65.318  1.00  0.00    -0.235 OA 
HETATM   33  C   UNL     1      -8.740  11.138  65.791  1.00  0.00    -0.150 C  
HETATM   34  C   UNL     1      -9.143   9.668  65.663  1.00  0.00    -0.189 C  
HETATM   35  O   UNL     1      -8.157   8.828  66.266  1.00  0.00    -0.103 OA 
HETATM   36  C   UNL     1      -7.988   9.129  67.649  1.00  0.00    -0.100 C  
HETATM   37  C   UNL     1      -6.894   8.246  68.233  1.00  0.00    -0.065 C  
HETATM   38  O   UNL     1      -7.552  10.471  67.830  1.00  0.00    -0.088 OA 
HETATM   39  C   UNL     1      -8.468  11.411  67.265  1.00  0.00    -0.148 C  
HETATM   40  C   UNL     1      -7.808  12.773  67.372  1.00  0.00    -0.172 C  
HETATM   41  O   UNL     1      -7.675  13.127  68.758  1.00  0.00    -0.247 OA 
HETATM   42  C   UNL     1      -8.586  13.861  66.627  1.00  0.00     0.068 C  
HETATM   43  H   UNL     1      -7.262  13.979  68.825  1.00  0.00     0.000 HD 
HETATM   44  O   UNL     1      -7.711  14.978  66.334  1.00  0.00    -0.150 OA 
HETATM   45  H   UNL     1      -7.291  15.253  67.142  1.00  0.00     0.000 HD 
ENDBRANCH  30  31
ENDBRANCH   8  30
TORSDOF 5
ENDMDL
MODEL      163
REMARK 921   NORMALIZED FREE ENERGY PREDICTED BY IDOCK:   -2.70 KCAL/MOL
REMARK 922        TOTAL FREE ENERGY PREDICTED BY IDOCK:   -4.73 KCAL/MOL
REMARK 923 INTER-LIGAND FREE ENERGY PREDICTED BY IDOCK:   -6.28 KCAL/MOL
REMARK 924 INTRA-LIGAND FREE ENERGY PREDICTED BY IDOCK:    1.55 KCAL/MOL
REMARK 927      BINDING AFFINITY PREDICTED BY RF-SCORE:    0.00 PKD
ROOT
HETATM    1  C   UNL     1      -9.973  10.317  67.597  1.00  0.00    -0.212 C  
HETATM    2  C   UNL     1      -9.883  11.485  66.659  1.00  0.00    -0.202 C  
HETATM    3  O   UNL     1      -8.572  11.342  66.088  1.00  0.00    -0.177 OA 
HETATM    4  C   UNL     1      -7.771  10.619  66.938  1.00  0.00    -0.122 C  
HETATM    5  C   UNL     1      -8.565  10.194  68.139  1.00  0.00    -0.118 C  
HETATM    6  O   UNL     1      -6.570  10.480  66.780  1.00  0.00    -0.075 OA 
HETATM    7  C   UNL     1      -8.341   8.833  68.822  1.00  0.00    -0.124 C  
HETATM    8  C   UNL     1     -11.006  10.322  68.708  1.00  0.00    -0.243 C  
HETATM    9  C   UNL     1      -9.553   8.420  69.671  1.00  0.00    -0.163 A  
HETATM   10  C   UNL     1      -9.446   7.290  70.509  1.00  0.00    -0.165 A  
HETATM   11  O   UNL     1     -10.647   5.752  71.973  1.00  0.00    -0.211 OA 
HETATM   12  C   UNL     1     -10.570   6.854  71.180  1.00  0.00    -0.222 A  
HETATM   13  C   UNL     1     -10.803   9.113  69.603  1.00  0.00    -0.210 A  
HETATM   14  C   UNL     1     -11.777   7.502  71.074  1.00  0.00    -0.292 A  
HETATM   15  C   UNL     1     -12.058   5.729  72.269  1.00  0.00     0.002 C  
HETATM   16  O   UNL     1     -12.767   6.880  71.768  1.00  0.00    -0.357 OA 
HETATM   17  C   UNL     1     -11.921   8.638  70.317  1.00  0.00     0.271 A  
ENDROOT
BRANCH   7  18
HETATM   18  C   UNL     1      -7.881   7.767  67.829  1.00  0.00    -0.123 A  
HETATM   19  O   UNL     1      -6.995   4.266  65.729  1.00  0.00    -0.059 OA 
HETATM   20  C   UNL     1      -6.333   6.031  67.153  1.00  0.00    -0.041 A  
HETATM   21  C   UNL     1      -8.815   7.235  66.927  1.00  0.00    -0.138 A  
HETATM   22  H   UNL     1      -6.154   3.840  65.838  1.00  0.00     0.000 HD 
HETATM   23  C   UNL     1      -6.607   7.186  67.882  1.00  0.00    -0.053 A  
HETATM   24  C   UNL     1      -7.322   5.453  66.339  1.00  0.00    -0.082 A  
HETATM   25  C   UNL     1      -8.559   6.079  66.179  1.00  0.00    -0.142 A  
BRANCH  25  26
HETATM   26  O   UNL     1      -9.631   5.746  65.398  1.00  0.00     0.129 OA 
HETATM   27  C   UNL     1     -10.637   4.877  65.871  1.00  0.00    -0.230 C  
ENDBRANCH  25  26
BRANCH  20  28
HETATM   28  O   UNL     1      -5.130   5.358  67.245  1.00  0.00    -0.004 OA 
HETATM   29  C   UNL     1      -5.200   3.995  67.650  1.00  0.00    -0.011 C  
ENDBRANCH  20  28
ENDBRANCH   7  18
BRANCH   8  30
HETATM   30  O   UNL     1     -11.266  11.523  69.405  1.00  0.00    -0.248 OA 
BRANCH  30  31
HETATM   31  C   UNL     1     -11.784  12.725  68.827  1.00  0.00    -0.323 C  
HETATM   32  O   UNL     1     -11.543  12.814  67.417  1.00  0.00    -0.315 OA 
HETATM   33  C   UNL     1     -11.766  14.138  66.906  1.00  0.00    -0.414 C  
HETATM   34  C   UNL     1     -11.681  14.231  65.381  1.00  0.00    -0.354 C  
HETATM   35  O   UNL     1     -11.787  15.592  64.960  1.00  0.00    -0.042 OA 
HETATM   36  C   UNL     1     -10.750  16.395  65.518  1.00  0.00    -0.287 C  
HETATM   37  C   UNL     1     -10.935  17.842  65.083  1.00  0.00     0.644 C  
HETATM   38  O   UNL     1     -10.815  16.398  66.940  1.00  0.00    -0.249 OA 
HETATM   39  C   UNL     1     -10.715  15.080  67.481  1.00  0.00    -0.284 C  
HETATM   40  C   UNL     1     -10.969  15.205  68.972  1.00  0.00    -0.244 C  
HETATM   41  O   UNL     1      -9.907  15.966  69.570  1.00  0.00    -0.260 OA 
HETATM   42  C   UNL     1     -11.092  13.845  69.662  1.00  0.00    -0.072 C  
HETATM   43  H   UNL     1     -10.067  16.045  70.503  1.00  0.00     0.000 HD 
HETATM   44  O   UNL     1     -11.803  13.993  70.916  1.00  0.00    -0.459 OA 
HETATM   45  H   UNL     1     -11.382  14.675  71.425  1.00  0.00     0.000 HD 
ENDBRANCH  30  31
ENDBRANCH   8  30
TORSDOF 5
ENDMDL
MODEL      164
REMARK 921   NORMALIZED FREE ENERGY PREDICTED BY IDOCK:   -2.67 KCAL/MOL
REMARK 922        TOTAL FREE ENERGY PREDICTED BY IDOCK:   -4.69 KCAL/MOL
REMARK 923 INTER-LIGAND FREE ENERGY PREDICTED BY IDOCK:   -4.77 KCAL/MOL
REMARK 924 INTRA-LIGAND FREE ENERGY PREDICTED BY IDOCK:    0.08 KCAL/MOL
REMARK 927      BINDING AFFINITY PREDICTED BY RF-SCORE:    0.00 PKD
ROOT
HETATM    1  C   UNL     1      -7.766   9.709  69.193  1.00  0.00    -0.087 C  
HETATM    2  C   UNL     1      -6.548  10.195  68.463  1.00  0.00    -0.053 C  
HETATM    3  O   UNL     1      -5.533   9.263  68.869  1.00  0.00    -0.037 OA 
HETATM    4  C   UNL     1      -5.876   8.700  70.075  1.00  0.00    -0.027 C  
HETATM    5  C   UNL     1      -7.212   9.222  70.514  1.00  0.00    -0.111 C  
HETATM    6  O   UNL     1      -5.126   7.994  70.728  1.00  0.00    -0.023 OA 
HETATM    7  C   UNL     1      -8.227   8.337  71.260  1.00  0.00    -0.147 C  
HETATM    8  C   UNL     1      -8.949  10.639  69.386  1.00  0.00    -0.029 C  
HETATM    9  C   UNL     1      -9.652   8.903  71.161  1.00  0.00    -0.342 A  
HETATM   10  C   UNL     1     -10.674   8.318  71.937  1.00  0.00    -0.350 A  
HETATM   11  O   UNL     1     -13.072   8.251  72.382  1.00  0.00    -0.266 OA 
HETATM   12  C   UNL     1     -11.971   8.753  71.759  1.00  0.00    -0.349 A  
HETATM   13  C   UNL     1      -9.987   9.973  70.271  1.00  0.00    -0.184 A  
HETATM   14  C   UNL     1     -12.289   9.751  70.870  1.00  0.00    -0.290 A  
HETATM   15  C   UNL     1     -14.119   8.979  71.710  1.00  0.00    -0.314 C  
HETATM   16  O   UNL     1     -13.626   9.989  70.807  1.00  0.00    -0.252 OA 
HETATM   17  C   UNL     1     -11.325  10.392  70.132  1.00  0.00    -0.397 A  
ENDROOT
BRANCH   7  18
HETATM   18  C   UNL     1      -8.109   6.869  70.852  1.00  0.00    -0.114 A  
HETATM   19  O   UNL     1      -7.005   2.888  70.236  1.00  0.00    -0.033 OA 
HETATM   20  C   UNL     1      -7.132   5.124  69.485  1.00  0.00    -0.056 A  
HETATM   21  C   UNL     1      -8.517   5.880  71.759  1.00  0.00    -0.131 A  
HETATM   22  H   UNL     1      -6.500   2.641  69.470  1.00  0.00     0.000 HD 
HETATM   23  C   UNL     1      -7.468   6.463  69.675  1.00  0.00    -0.085 A  
HETATM   24  C   UNL     1      -7.455   4.166  70.462  1.00  0.00    -0.045 A  
HETATM   25  C   UNL     1      -8.197   4.527  71.587  1.00  0.00    -0.102 A  
BRANCH  25  26
HETATM   26  O   UNL     1      -8.681   3.767  72.616  1.00  0.00    -0.093 OA 
HETATM   27  C   UNL     1     -10.009   3.294  72.612  1.00  0.00    -0.154 C  
ENDBRANCH  25  26
BRANCH  20  28
HETATM   28  O   UNL     1      -6.410   4.682  68.394  1.00  0.00    -0.034 OA 
HETATM   29  C   UNL     1      -6.784   5.224  67.131  1.00  0.00    -0.059 C  
ENDBRANCH  20  28
ENDBRANCH   7  18
BRANCH   8  30
HETATM   30  O   UNL     1      -8.718  11.999  69.685  1.00  0.00     1.135 OA 
BRANCH  30  31
HETATM   31  C   UNL     1      -9.486  13.103  69.195  1.00  0.00     0.592 C  
HETATM   32  O   UNL     1     -10.330  12.748  68.092  1.00  0.00    -0.225 OA 
HETATM   33  C   UNL     1     -10.844  13.898  67.403  1.00  0.00    -0.285 C  
HETATM   34  C   UNL     1     -11.878  13.560  66.328  1.00  0.00    -0.392 C  
HETATM   35  O   UNL     1     -12.246  14.737  65.606  1.00  0.00    -0.221 OA 
HETATM   36  C   UNL     1     -11.119  15.336  64.972  1.00  0.00    -0.426 C  
HETATM   37  C   UNL     1     -11.552  16.611  64.260  1.00  0.00     0.525 C  
HETATM   38  O   UNL     1     -10.144  15.730  65.931  1.00  0.00    -0.306 OA 
HETATM   39  C   UNL     1      -9.694  14.627  66.718  1.00  0.00    -0.257 C  
HETATM   40  C   UNL     1      -8.800  15.205  67.800  1.00  0.00    -0.170 C  
HETATM   41  O   UNL     1      -7.627  15.770  67.192  1.00  0.00    -0.186 OA 
HETATM   42  C   UNL     1      -8.398  14.164  68.847  1.00  0.00    -0.003 C  
HETATM   43  H   UNL     1      -7.068  16.132  67.869  1.00  0.00     0.000 HD 
HETATM   44  O   UNL     1      -7.993  14.828  70.070  1.00  0.00    -0.386 OA 
HETATM   45  H   UNL     1      -7.330  15.475  69.858  1.00  0.00     0.000 HD 
ENDBRANCH  30  31
ENDBRANCH   8  30
TORSDOF 5
ENDMDL
MODEL      165
REMARK 921   NORMALIZED FREE ENERGY PREDICTED BY IDOCK:   -2.54 KCAL/MOL
REMARK 922        TOTAL FREE ENERGY PREDICTED BY IDOCK:   -4.52 KCAL/MOL
REMARK 923 INTER-LIGAND FREE ENERGY PREDICTED BY IDOCK:   -6.68 KCAL/MOL
REMARK 924 INTRA-LIGAND FREE ENERGY PREDICTED BY IDOCK:    2.16 KCAL/MOL
REMARK 927      BINDING AFFINITY PREDICTED BY RF-SCORE:    0.00 PKD
ROOT
HETATM    1  C   UNL     1      -7.624  13.789  69.179  1.00  0.00     0.103 C  
HETATM    2  C   UNL     1      -6.879  14.854  69.929  1.00  0.00    -0.167 C  
HETATM    3  O   UNL     1      -6.763  15.910  68.962  1.00  0.00    -0.133 OA 
HETATM    4  C   UNL     1      -6.850  15.390  67.694  1.00  0.00    -0.182 C  
HETATM    5  C   UNL     1      -7.085  13.910  67.770  1.00  0.00    -0.181 C  
HETATM    6  O   UNL     1      -6.628  16.034  66.682  1.00  0.00    -0.224 OA 
HETATM    7  C   UNL     1      -7.981  13.174  66.758  1.00  0.00     0.272 C  
HETATM    8  C   UNL     1      -7.589  12.355  69.675  1.00  0.00     0.923 C  
HETATM    9  C   UNL     1      -8.462  11.822  67.307  1.00  0.00    -0.160 A  
HETATM   10  C   UNL     1      -9.143  10.938  66.443  1.00  0.00    -0.188 A  
HETATM   11  O   UNL     1     -10.405   8.857  66.284  1.00  0.00    -0.240 OA 
HETATM   12  C   UNL     1      -9.674   9.778  66.967  1.00  0.00    -0.183 A  
HETATM   13  C   UNL     1      -8.288  11.450  68.678  1.00  0.00    -0.136 A  
HETATM   14  C   UNL     1      -9.538   9.450  68.295  1.00  0.00    -0.142 A  
HETATM   15  C   UNL     1     -10.793   7.971  67.353  1.00  0.00    -0.076 C  
HETATM   16  O   UNL     1     -10.181   8.297  68.617  1.00  0.00    -0.197 OA 
HETATM   17  C   UNL     1      -8.837  10.248  69.166  1.00  0.00    -0.182 A  
ENDROOT
BRANCH   7  18
HETATM   18  C   UNL     1      -9.103  14.071  66.235  1.00  0.00    -0.047 A  
HETATM   19  O   UNL     1     -11.638  16.565  64.045  1.00  0.00    -1.490 OA 
HETATM   20  C   UNL     1      -9.989  16.263  65.708  1.00  0.00    -0.323 A  
HETATM   21  C   UNL     1     -10.075  13.514  65.391  1.00  0.00    -0.279 A  
HETATM   22  H   UNL     1     -11.580  17.508  64.134  1.00  0.00     0.000 HD 
HETATM   23  C   UNL     1      -9.116  15.457  66.436  1.00  0.00    -0.350 A  
HETATM   24  C   UNL     1     -10.881  15.690  64.785  1.00  0.00    -0.355 A  
HETATM   25  C   UNL     1     -10.967  14.303  64.654  1.00  0.00    -0.367 A  
BRANCH  25  26
HETATM   26  O   UNL     1     -11.795  13.532  63.886  1.00  0.00    -0.431 OA 
HETATM   27  C   UNL     1     -11.488  12.183  63.610  1.00  0.00    -0.481 C  
ENDBRANCH  25  26
BRANCH  20  28
HETATM   28  O   UNL     1      -9.976  17.641  65.790  1.00  0.00    -0.544 OA 
HETATM   29  C   UNL     1      -9.468  18.196  66.999  1.00  0.00    -0.274 C  
ENDBRANCH  20  28
ENDBRANCH   7  18
BRANCH   8  30
HETATM   30  O   UNL     1      -6.383  11.831  70.190  1.00  0.00    -0.142 OA 
BRANCH  30  31
HETATM   31  C   UNL     1      -5.626  10.762  69.613  1.00  0.00    -0.041 C  
HETATM   32  O   UNL     1      -5.903  10.573  68.219  1.00  0.00    -0.043 OA 
HETATM   33  C   UNL     1      -5.402   9.320  67.727  1.00  0.00    -0.034 C  
HETATM   34  C   UNL     1      -5.532   9.159  66.211  1.00  0.00    -0.044 C  
HETATM   35  O   UNL     1      -5.131   7.845  65.815  1.00  0.00    -0.024 OA 
HETATM   36  C   UNL     1      -5.926   6.844  66.443  1.00  0.00    -0.034 C  
HETATM   37  C   UNL     1      -5.429   5.465  66.032  1.00  0.00    -0.013 C  
HETATM   38  O   UNL     1      -5.797   6.904  67.860  1.00  0.00    -0.022 OA 
HETATM   39  C   UNL     1      -6.177   8.180  68.376  1.00  0.00    -0.049 C  
HETATM   40  C   UNL     1      -5.833   8.167  69.854  1.00  0.00    -0.022 C  
HETATM   41  O   UNL     1      -6.660   7.202  70.524  1.00  0.00    -0.046 OA 
HETATM   42  C   UNL     1      -6.000   9.541  70.507  1.00  0.00    -0.060 C  
HETATM   43  H   UNL     1      -6.445   7.193  71.448  1.00  0.00     0.000 HD 
HETATM   44  O   UNL     1      -5.217   9.605  71.725  1.00  0.00    -0.067 OA 
HETATM   45  H   UNL     1      -5.445   8.860  72.270  1.00  0.00     0.000 HD 
ENDBRANCH  30  31
ENDBRANCH   8  30
TORSDOF 5
ENDMDL
MODEL      166
REMARK 921   NORMALIZED FREE ENERGY PREDICTED BY IDOCK:   -2.52 KCAL/MOL
REMARK 922        TOTAL FREE ENERGY PREDICTED BY IDOCK:   -4.49 KCAL/MOL
REMARK 923 INTER-LIGAND FREE ENERGY PREDICTED BY IDOCK:   -4.30 KCAL/MOL
REMARK 924 INTRA-LIGAND FREE ENERGY PREDICTED BY IDOCK:   -0.19 KCAL/MOL
REMARK 927      BINDING AFFINITY PREDICTED BY RF-SCORE:    0.00 PKD
ROOT
HETATM    1  C   UNL     1      -8.224  12.044  67.753  1.00  0.00    -0.151 C  
HETATM    2  C   UNL     1      -7.290  13.038  67.127  1.00  0.00     0.044 C  
HETATM    3  O   UNL     1      -6.192  12.221  66.689  1.00  0.00    -0.130 OA 
HETATM    4  C   UNL     1      -6.147  11.067  67.433  1.00  0.00    -0.057 C  
HETATM    5  C   UNL     1      -7.290  11.048  68.405  1.00  0.00    -0.096 C  
HETATM    6  O   UNL     1      -5.228  10.266  67.383  1.00  0.00    -0.040 OA 
HETATM    7  C   UNL     1      -8.023   9.746  68.775  1.00  0.00    -0.087 C  
HETATM    8  C   UNL     1      -9.298  12.521  68.712  1.00  0.00     0.132 C  
HETATM    9  C   UNL     1      -9.414  10.028  69.364  1.00  0.00    -0.237 A  
HETATM   10  C   UNL     1     -10.147   8.960  69.923  1.00  0.00    -0.204 A  
HETATM   11  O   UNL     1     -12.294   8.262  70.846  1.00  0.00    -0.194 OA 
HETATM   12  C   UNL     1     -11.440   9.194  70.344  1.00  0.00    -0.194 A  
HETATM   13  C   UNL     1     -10.012  11.327  69.318  1.00  0.00     0.022 A  
HETATM   14  C   UNL     1     -12.020  10.436  70.257  1.00  0.00    -0.302 A  
HETATM   15  C   UNL     1     -13.502   9.040  70.969  1.00  0.00     0.023 C  
HETATM   16  O   UNL     1     -13.314  10.439  70.672  1.00  0.00    -0.288 OA 
HETATM   17  C   UNL     1     -11.332  11.521  69.772  1.00  0.00    -0.303 A  
ENDROOT
BRANCH   7  18
HETATM   18  C   UNL     1      -8.024   8.746  67.620  1.00  0.00    -0.106 A  
HETATM   19  O   UNL     1      -8.936   5.968  64.637  1.00  0.00    -0.354 OA 
HETATM   20  C   UNL     1      -8.102   6.472  66.789  1.00  0.00    -0.109 A  
HETATM   21  C   UNL     1      -8.404   9.188  66.344  1.00  0.00    -0.124 A  
HETATM   22  H   UNL     1      -8.863   5.037  64.808  1.00  0.00     0.000 HD 
HETATM   23  C   UNL     1      -7.810   7.375  67.809  1.00  0.00    -0.113 A  
HETATM   24  C   UNL     1      -8.588   6.931  65.552  1.00  0.00    -0.077 A  
HETATM   25  C   UNL     1      -8.696   8.300  65.301  1.00  0.00    -0.086 A  
BRANCH  25  26
HETATM   26  O   UNL     1      -9.070   8.969  64.169  1.00  0.00    -0.038 OA 
HETATM   27  C   UNL     1      -8.528  10.233  63.855  1.00  0.00    -0.179 C  
ENDBRANCH  25  26
BRANCH  20  28
HETATM   28  O   UNL     1      -8.009   5.104  66.953  1.00  0.00    -0.103 OA 
HETATM   29  C   UNL     1      -8.944   4.512  67.848  1.00  0.00    -0.116 C  
ENDBRANCH  20  28
ENDBRANCH   7  18
BRANCH   8  30
HETATM   30  O   UNL     1      -8.996  13.547  69.633  1.00  0.00     1.089 OA 
BRANCH  30  31
HETATM   31  C   UNL     1      -8.745  14.917  69.303  1.00  0.00    -0.097 C  
HETATM   32  O   UNL     1      -9.193  15.263  67.986  1.00  0.00    -0.185 OA 
HETATM   33  C   UNL     1      -8.659  16.519  67.539  1.00  0.00    -0.177 C  
HETATM   34  C   UNL     1      -9.246  16.999  66.210  1.00  0.00    -0.247 C  
HETATM   35  O   UNL     1      -8.578  18.183  65.771  1.00  0.00    -0.472 OA 
HETATM   36  C   UNL     1      -7.182  17.961  65.591  1.00  0.00    -0.013 C  
HETATM   37  C   UNL     1      -6.508  19.261  65.174  1.00  0.00    -0.298 C  
HETATM   38  O   UNL     1      -6.566  17.571  66.813  1.00  0.00    -0.162 OA 
HETATM   39  C   UNL     1      -7.152  16.385  67.351  1.00  0.00    -0.159 C  
HETATM   40  C   UNL     1      -6.530  16.178  68.720  1.00  0.00    -0.122 C  
HETATM   41  O   UNL     1      -5.130  15.898  68.565  1.00  0.00    -0.089 OA 
HETATM   42  C   UNL     1      -7.205  15.053  69.507  1.00  0.00    -0.199 C  
HETATM   43  H   UNL     1      -4.740  15.769  69.421  1.00  0.00     0.000 HD 
HETATM   44  O   UNL     1      -6.940  15.216  70.922  1.00  0.00     0.303 OA 
HETATM   45  H   UNL     1      -6.002  15.299  71.047  1.00  0.00     0.000 HD 
ENDBRANCH  30  31
ENDBRANCH   8  30
TORSDOF 5
ENDMDL
MODEL      167
REMARK 921   NORMALIZED FREE ENERGY PREDICTED BY IDOCK:   -2.49 KCAL/MOL
REMARK 922        TOTAL FREE ENERGY PREDICTED BY IDOCK:   -4.45 KCAL/MOL
REMARK 923 INTER-LIGAND FREE ENERGY PREDICTED BY IDOCK:   -5.47 KCAL/MOL
REMARK 924 INTRA-LIGAND FREE ENERGY PREDICTED BY IDOCK:    1.01 KCAL/MOL
REMARK 927      BINDING AFFINITY PREDICTED BY RF-SCORE:    0.00 PKD
ROOT
HETATM    1  C   UNL     1      -8.015  11.705  67.663  1.00  0.00    -0.136 C  
HETATM    2  C   UNL     1      -6.977  12.393  66.825  1.00  0.00     0.282 C  
HETATM    3  O   UNL     1      -5.917  11.426  66.763  1.00  0.00    -0.114 OA 
HETATM    4  C   UNL     1      -5.997  10.578  67.841  1.00  0.00    -0.043 C  
HETATM    5  C   UNL     1      -7.194  10.934  68.674  1.00  0.00    -0.088 C  
HETATM    6  O   UNL     1      -5.137   9.762  68.124  1.00  0.00    -0.037 OA 
HETATM    7  C   UNL     1      -8.038   9.861  69.386  1.00  0.00    -0.139 C  
HETATM    8  C   UNL     1      -9.107  12.521  68.328  1.00  0.00    -0.183 C  
HETATM    9  C   UNL     1      -9.437  10.387  69.740  1.00  0.00    -0.043 A  
HETATM   10  C   UNL     1     -10.277   9.597  70.554  1.00  0.00    -0.351 A  
HETATM   11  O   UNL     1     -12.518   9.344  71.482  1.00  0.00    -0.323 OA 
HETATM   12  C   UNL     1     -11.572  10.018  70.774  1.00  0.00    -0.360 A  
HETATM   13  C   UNL     1      -9.938  11.626  69.230  1.00  0.00     0.222 A  
HETATM   14  C   UNL     1     -12.057  11.189  70.245  1.00  0.00    -0.377 A  
HETATM   15  C   UNL     1     -13.673  10.176  71.251  1.00  0.00     0.018 C  
HETATM   16  O   UNL     1     -13.369  11.390  70.534  1.00  0.00     0.271 OA 
HETATM   17  C   UNL     1     -11.265  12.021  69.492  1.00  0.00    -0.220 A  
ENDROOT
BRANCH   7  18
HETATM   18  C   UNL     1      -8.042   8.540  68.619  1.00  0.00    -0.121 A  
HETATM   19  O   UNL     1      -8.971   4.977  66.645  1.00  0.00    -0.114 OA 
HETATM   20  C   UNL     1      -8.212   6.124  68.566  1.00  0.00    -0.111 A  
HETATM   21  C   UNL     1      -8.335   8.555  67.247  1.00  0.00    -0.115 A  
HETATM   22  H   UNL     1      -8.959   4.151  67.113  1.00  0.00     0.000 HD 
HETATM   23  C   UNL     1      -7.917   7.298  69.256  1.00  0.00    -0.118 A  
HETATM   24  C   UNL     1      -8.611   6.172  67.219  1.00  0.00    -0.103 A  
HETATM   25  C   UNL     1      -8.628   7.387  66.531  1.00  0.00    -0.132 A  
BRANCH  25  26
HETATM   26  O   UNL     1      -8.909   7.664  65.222  1.00  0.00    -0.023 OA 
HETATM   27  C   UNL     1      -7.955   8.281  64.386  1.00  0.00    -0.144 C  
ENDBRANCH  25  26
BRANCH  20  28
HETATM   28  O   UNL     1      -8.206   4.882  69.170  1.00  0.00    -0.078 OA 
HETATM   29  C   UNL     1      -7.146   4.006  68.799  1.00  0.00    -0.054 C  
ENDBRANCH  20  28
ENDBRANCH   7  18
BRANCH   8  30
HETATM   30  O   UNL     1      -8.788  13.776  68.890  1.00  0.00    -0.023 OA 
BRANCH  30  31
HETATM   31  C   UNL     1      -8.526  14.976  68.155  1.00  0.00    -0.151 C  
HETATM   32  O   UNL     1      -8.679  16.160  68.948  1.00  0.00    -0.223 OA 
HETATM   33  C   UNL     1      -8.736  17.351  68.147  1.00  0.00    -0.256 C  
HETATM   34  C   UNL     1      -8.731  18.643  68.967  1.00  0.00    -0.068 C  
HETATM   35  O   UNL     1      -8.917  19.773  68.112  1.00  0.00    -0.328 OA 
HETATM   36  C   UNL     1     -10.150  19.697  67.402  1.00  0.00    -0.410 C  
HETATM   37  C   UNL     1     -10.277  20.893  66.469  1.00  0.00     0.576 C  
HETATM   38  O   UNL     1     -10.189  18.541  66.571  1.00  0.00    -0.365 OA 
HETATM   39  C   UNL     1     -10.017  17.338  67.321  1.00  0.00    -0.283 C  
HETATM   40  C   UNL     1      -9.906  16.212  66.310  1.00  0.00    -0.307 C  
HETATM   41  O   UNL     1     -11.157  16.076  65.616  1.00  0.00    -0.202 OA 
HETATM   42  C   UNL     1      -9.519  14.880  66.956  1.00  0.00    -0.229 C  
HETATM   43  H   UNL     1     -11.087  15.371  64.983  1.00  0.00     0.000 HD 
HETATM   44  O   UNL     1      -8.953  13.995  65.958  1.00  0.00    -0.464 OA 
HETATM   45  H   UNL     1      -9.558  13.937  65.228  1.00  0.00     0.000 HD 
ENDBRANCH  30  31
ENDBRANCH   8  30
TORSDOF 5
ENDMDL
MODEL      168
REMARK 921   NORMALIZED FREE ENERGY PREDICTED BY IDOCK:   -2.48 KCAL/MOL
REMARK 922        TOTAL FREE ENERGY PREDICTED BY IDOCK:   -4.43 KCAL/MOL
REMARK 923 INTER-LIGAND FREE ENERGY PREDICTED BY IDOCK:   -5.59 KCAL/MOL
REMARK 924 INTRA-LIGAND FREE ENERGY PREDICTED BY IDOCK:    1.16 KCAL/MOL
REMARK 927      BINDING AFFINITY PREDICTED BY RF-SCORE:    0.00 PKD
ROOT
HETATM    1  C   UNL     1      -6.515   7.710  69.034  1.00  0.00    -0.040 C  
HETATM    2  C   UNL     1      -5.897   7.487  70.383  1.00  0.00    -0.027 C  
HETATM    3  O   UNL     1      -6.677   6.408  70.923  1.00  0.00    -0.054 OA 
HETATM    4  C   UNL     1      -7.911   6.379  70.319  1.00  0.00    -0.112 C  
HETATM    5  C   UNL     1      -7.987   7.455  69.276  1.00  0.00    -0.118 C  
HETATM    6  O   UNL     1      -8.829   5.668  70.691  1.00  0.00    -0.135 OA 
HETATM    7  C   UNL     1      -8.750   7.255  67.954  1.00  0.00    -0.123 C  
HETATM    8  C   UNL     1      -6.282   9.021  68.307  1.00  0.00    -0.054 C  
HETATM    9  C   UNL     1      -8.286   8.248  66.877  1.00  0.00    -0.114 A  
HETATM   10  C   UNL     1      -9.004   8.325  65.665  1.00  0.00    -0.157 A  
HETATM   11  O   UNL     1      -9.056   9.267  63.416  1.00  0.00    -0.142 OA 
HETATM   12  C   UNL     1      -8.517   9.132  64.658  1.00  0.00    -0.181 A  
HETATM   13  C   UNL     1      -7.121   9.062  67.043  1.00  0.00    -0.079 A  
HETATM   14  C   UNL     1      -7.374   9.878  64.811  1.00  0.00    -0.136 A  
HETATM   15  C   UNL     1      -8.066  10.102  62.781  1.00  0.00    -0.145 C  
HETATM   16  O   UNL     1      -7.038  10.558  63.683  1.00  0.00    -0.047 OA 
HETATM   17  C   UNL     1      -6.669   9.882  65.989  1.00  0.00    -0.094 A  
ENDROOT
BRANCH   7  18
HETATM   18  C   UNL     1      -8.735   5.794  67.505  1.00  0.00    -0.107 A  
HETATM   19  O   UNL     1      -7.949   1.749  66.825  1.00  0.00    -0.068 OA 
HETATM   20  C   UNL     1      -7.828   4.007  66.144  1.00  0.00    -0.090 A  
HETATM   21  C   UNL     1      -9.288   4.822  68.350  1.00  0.00    -0.177 A  
HETATM   22  H   UNL     1      -7.418   1.480  66.084  1.00  0.00     0.000 HD 
HETATM   23  C   UNL     1      -8.057   5.365  66.357  1.00  0.00    -0.105 A  
HETATM   24  C   UNL     1      -8.298   3.055  67.065  1.00  0.00    -0.091 A  
HETATM   25  C   UNL     1      -9.078   3.451  68.152  1.00  0.00    -0.157 A  
BRANCH  25  26
HETATM   26  O   UNL     1      -9.693   2.709  69.123  1.00  0.00    -0.044 OA 
HETATM   27  C   UNL     1      -9.024   1.644  69.762  1.00  0.00    -0.076 C  
ENDBRANCH  25  26
BRANCH  20  28
HETATM   28  O   UNL     1      -7.078   3.533  65.085  1.00  0.00    -0.062 OA 
HETATM   29  C   UNL     1      -7.506   3.926  63.785  1.00  0.00    -0.055 C  
ENDBRANCH  20  28
ENDBRANCH   7  18
BRANCH   8  30
HETATM   30  O   UNL     1      -6.276  10.227  69.040  1.00  0.00    -0.040 OA 
BRANCH  30  31
HETATM   31  C   UNL     1      -7.356  11.163  69.113  1.00  0.00    -0.115 C  
HETATM   32  O   UNL     1      -8.544  10.694  68.463  1.00  0.00    -0.123 OA 
HETATM   33  C   UNL     1      -9.504  11.742  68.254  1.00  0.00    -0.193 C  
HETATM   34  C   UNL     1     -10.848  11.246  67.716  1.00  0.00    -0.235 C  
HETATM   35  O   UNL     1     -11.701  12.353  67.416  1.00  0.00    -0.347 OA 
HETATM   36  C   UNL     1     -11.117  13.215  66.443  1.00  0.00    -0.289 C  
HETATM   37  C   UNL     1     -12.038  14.403  66.196  1.00  0.00    -0.373 C  
HETATM   38  O   UNL     1      -9.889  13.759  66.914  1.00  0.00    -0.250 OA 
HETATM   39  C   UNL     1      -8.946  12.738  67.244  1.00  0.00    -0.199 C  
HETATM   40  C   UNL     1      -7.762  13.436  67.887  1.00  0.00    -0.153 C  
HETATM   41  O   UNL     1      -7.120  14.273  66.911  1.00  0.00    -0.317 OA 
HETATM   42  C   UNL     1      -6.750  12.452  68.478  1.00  0.00    -0.077 C  
HETATM   43  H   UNL     1      -6.380  14.711  67.313  1.00  0.00     0.000 HD 
HETATM   44  O   UNL     1      -5.939  13.120  69.475  1.00  0.00    -0.094 OA 
HETATM   45  H   UNL     1      -5.570  13.906  69.088  1.00  0.00     0.000 HD 
ENDBRANCH  30  31
ENDBRANCH   8  30
TORSDOF 5
ENDMDL
MODEL      169
REMARK 921   NORMALIZED FREE ENERGY PREDICTED BY IDOCK:   -2.34 KCAL/MOL
REMARK 922        TOTAL FREE ENERGY PREDICTED BY IDOCK:   -4.26 KCAL/MOL
REMARK 923 INTER-LIGAND FREE ENERGY PREDICTED BY IDOCK:   -7.84 KCAL/MOL
REMARK 924 INTRA-LIGAND FREE ENERGY PREDICTED BY IDOCK:    3.58 KCAL/MOL
REMARK 927      BINDING AFFINITY PREDICTED BY RF-SCORE:    0.00 PKD
ROOT
HETATM    1  C   UNL     1     -10.403  12.347  67.938  1.00  0.00    -0.215 C  
HETATM    2  C   UNL     1      -9.997  13.550  67.137  1.00  0.00    -0.246 C  
HETATM    3  O   UNL     1      -8.640  13.252  66.770  1.00  0.00    -0.149 OA 
HETATM    4  C   UNL     1      -8.101  12.362  67.666  1.00  0.00    -0.168 C  
HETATM    5  C   UNL     1      -9.138  11.979  68.682  1.00  0.00    -0.030 C  
HETATM    6  O   UNL     1      -6.921  12.055  67.688  1.00  0.00    -0.096 OA 
HETATM    7  C   UNL     1      -9.220  10.556  69.265  1.00  0.00    -0.164 C  
HETATM    8  C   UNL     1     -11.599  12.432  68.868  1.00  0.00    -0.316 C  
HETATM    9  C   UNL     1     -10.603  10.272  69.870  1.00  0.00    -0.324 A  
HETATM   10  C   UNL     1     -10.795   9.085  70.607  1.00  0.00    -0.295 A  
HETATM   11  O   UNL     1     -12.425   7.648  71.715  1.00  0.00    -0.309 OA 
HETATM   12  C   UNL     1     -12.065   8.778  71.049  1.00  0.00    -0.225 A  
HETATM   13  C   UNL     1     -11.718  11.148  69.668  1.00  0.00    -0.410 A  
HETATM   14  C   UNL     1     -13.137   9.604  70.813  1.00  0.00    -0.071 A  
HETATM   15  C   UNL     1     -13.856   7.816  71.782  1.00  0.00    -0.357 C  
HETATM   16  O   UNL     1     -14.306   9.092  71.282  1.00  0.00    -0.230 OA 
HETATM   17  C   UNL     1     -12.995  10.798  70.150  1.00  0.00    -0.050 A  
ENDROOT
BRANCH   7  18
HETATM   18  C   UNL     1      -8.748   9.503  68.263  1.00  0.00    -0.120 A  
HETATM   19  O   UNL     1      -6.759   7.219  65.387  1.00  0.00    -0.046 OA 
HETATM   20  C   UNL     1      -8.488   8.711  65.989  1.00  0.00    -0.141 A  
HETATM   21  C   UNL     1      -7.751   8.598  68.655  1.00  0.00    -0.099 A  
HETATM   22  H   UNL     1      -6.995   7.289  64.470  1.00  0.00     0.000 HD 
HETATM   23  C   UNL     1      -9.156   9.500  66.924  1.00  0.00    -0.158 A  
HETATM   24  C   UNL     1      -7.418   7.892  66.387  1.00  0.00    -0.087 A  
HETATM   25  C   UNL     1      -7.071   7.789  67.735  1.00  0.00    -0.082 A  
BRANCH  25  26
HETATM   26  O   UNL     1      -6.128   7.016  68.355  1.00  0.00    -0.031 OA 
HETATM   27  C   UNL     1      -5.693   7.306  69.665  1.00  0.00    -0.023 C  
ENDBRANCH  25  26
BRANCH  20  28
HETATM   28  O   UNL     1      -8.780   8.744  64.640  1.00  0.00    -0.160 OA 
HETATM   29  C   UNL     1      -9.184  10.004  64.113  1.00  0.00    -0.271 C  
ENDBRANCH  20  28
ENDBRANCH   7  18
BRANCH   8  30
HETATM   30  O   UNL     1     -11.808  13.607  69.621  1.00  0.00    -0.297 OA 
BRANCH  30  31
HETATM   31  C   UNL     1     -11.397  14.924  69.241  1.00  0.00    -0.296 C  
HETATM   32  O   UNL     1     -11.303  15.090  67.820  1.00  0.00    -0.311 OA 
HETATM   33  C   UNL     1     -10.590  16.283  67.454  1.00  0.00    -0.307 C  
HETATM   34  C   UNL     1     -10.616  16.577  65.953  1.00  0.00    -0.270 C  
HETATM   35  O   UNL     1      -9.785  17.701  65.654  1.00  0.00    -0.525 OA 
HETATM   36  C   UNL     1      -8.434  17.473  66.045  1.00  0.00    -0.064 C  
HETATM   37  C   UNL     1      -7.602  18.714  65.754  1.00  0.00    -0.082 C  
HETATM   38  O   UNL     1      -8.339  17.252  67.448  1.00  0.00    -0.195 OA 
HETATM   39  C   UNL     1      -9.131  16.141  67.868  1.00  0.00    -0.192 C  
HETATM   40  C   UNL     1      -9.078  16.123  69.385  1.00  0.00    -0.147 C  
HETATM   41  O   UNL     1      -7.734  15.840  69.807  1.00  0.00    -0.136 OA 
HETATM   42  C   UNL     1     -10.043  15.103  69.993  1.00  0.00    -0.081 C  
HETATM   43  H   UNL     1      -7.701  15.829  70.756  1.00  0.00     0.000 HD 
HETATM   44  O   UNL     1     -10.324  15.453  71.371  1.00  0.00    -0.068 OA 
HETATM   45  H   UNL     1      -9.498  15.561  71.830  1.00  0.00     0.000 HD 
ENDBRANCH  30  31
ENDBRANCH   8  30
TORSDOF 5
ENDMDL
MODEL      170
REMARK 921   NORMALIZED FREE ENERGY PREDICTED BY IDOCK:   -2.26 KCAL/MOL
REMARK 922        TOTAL FREE ENERGY PREDICTED BY IDOCK:   -4.16 KCAL/MOL
REMARK 923 INTER-LIGAND FREE ENERGY PREDICTED BY IDOCK:   -3.39 KCAL/MOL
REMARK 924 INTRA-LIGAND FREE ENERGY PREDICTED BY IDOCK:   -0.77 KCAL/MOL
REMARK 927      BINDING AFFINITY PREDICTED BY RF-SCORE:    0.00 PKD
ROOT
HETATM    1  C   UNL     1      -9.627  11.569  66.765  1.00  0.00    -0.203 C  
HETATM    2  C   UNL     1     -10.339  10.483  66.013  1.00  0.00    -0.211 C  
HETATM    3  O   UNL     1     -11.454  10.175  66.866  1.00  0.00     0.052 OA 
HETATM    4  C   UNL     1     -11.161  10.534  68.160  1.00  0.00    -0.293 C  
HETATM    5  C   UNL     1      -9.801  11.165  68.213  1.00  0.00    -0.195 C  
HETATM    6  O   UNL     1     -11.862  10.245  69.116  1.00  0.00    -0.119 OA 
HETATM    7  C   UNL     1      -9.481  12.330  69.167  1.00  0.00     0.526 C  
HETATM    8  C   UNL     1      -8.180  11.886  66.438  1.00  0.00     0.049 C  
HETATM    9  C   UNL     1      -8.240  13.111  68.708  1.00  0.00     0.098 A  
HETATM   10  C   UNL     1      -7.700  14.097  69.561  1.00  0.00     0.286 A  
HETATM   11  O   UNL     1      -6.072  15.901  69.771  1.00  0.00    -0.153 OA 
HETATM   12  C   UNL     1      -6.659  14.875  69.099  1.00  0.00    -0.117 A  
HETATM   13  C   UNL     1      -7.644  12.909  67.423  1.00  0.00    -0.150 A  
HETATM   14  C   UNL     1      -6.121  14.701  67.847  1.00  0.00    -0.150 A  
HETATM   15  C   UNL     1      -5.177  16.410  68.762  1.00  0.00    -0.112 C  
HETATM   16  O   UNL     1      -5.145  15.605  67.566  1.00  0.00    -0.265 OA 
HETATM   17  C   UNL     1      -6.572  13.720  66.998  1.00  0.00     0.864 A  
ENDROOT
BRANCH   7  18
HETATM   18  C   UNL     1     -10.707  13.203  69.429  1.00  0.00     0.126 A  
HETATM   19  O   UNL     1     -13.466  16.090  70.654  1.00  0.00    -0.582 OA 
HETATM   20  C   UNL     1     -12.512  13.940  70.867  1.00  0.00    -0.375 A  
HETATM   21  C   UNL     1     -10.878  14.373  68.675  1.00  0.00    -0.260 A  
HETATM   22  H   UNL     1     -13.999  15.949  71.427  1.00  0.00     0.000 HD 
HETATM   23  C   UNL     1     -11.586  12.968  70.494  1.00  0.00     0.189 A  
HETATM   24  C   UNL     1     -12.590  15.154  70.162  1.00  0.00    -0.279 A  
HETATM   25  C   UNL     1     -11.807  15.361  69.026  1.00  0.00    -0.335 A  
BRANCH  25  26
HETATM   26  O   UNL     1     -11.764  16.415  68.155  1.00  0.00    -0.136 OA 
HETATM   27  C   UNL     1     -10.546  16.846  67.590  1.00  0.00    -0.325 C  
ENDBRANCH  25  26
BRANCH  20  28
HETATM   28  O   UNL     1     -13.332  13.806  71.970  1.00  0.00    -0.376 OA 
HETATM   29  C   UNL     1     -13.852  12.503  72.214  1.00  0.00    -0.129 C  
ENDBRANCH  20  28
ENDBRANCH   7  18
BRANCH   8  30
HETATM   30  O   UNL     1      -7.287  10.829  66.155  1.00  0.00    -0.134 OA 
BRANCH  30  31
HETATM   31  C   UNL     1      -7.530   9.442  66.413  1.00  0.00    -0.093 C  
HETATM   32  O   UNL     1      -7.005   9.010  67.674  1.00  0.00    -0.073 OA 
HETATM   33  C   UNL     1      -6.959   7.578  67.787  1.00  0.00    -0.080 C  
HETATM   34  C   UNL     1      -6.562   7.084  69.179  1.00  0.00    -0.048 C  
HETATM   35  O   UNL     1      -6.416   5.662  69.177  1.00  0.00    -0.039 OA 
HETATM   36  C   UNL     1      -5.420   5.239  68.249  1.00  0.00    -0.011 C  
HETATM   37  C   UNL     1      -5.338   3.719  68.247  1.00  0.00    -0.012 C  
HETATM   38  O   UNL     1      -5.766   5.619  66.922  1.00  0.00    -0.016 OA 
HETATM   39  C   UNL     1      -5.936   7.031  66.798  1.00  0.00    -0.033 C  
HETATM   40  C   UNL     1      -6.465   7.281  65.397  1.00  0.00    -0.044 C  
HETATM   41  O   UNL     1      -5.458   6.913  64.440  1.00  0.00    -0.030 OA 
HETATM   42  C   UNL     1      -6.886   8.736  65.180  1.00  0.00    -0.075 C  
HETATM   43  H   UNL     1      -5.789   7.069  63.564  1.00  0.00     0.000 HD 
HETATM   44  O   UNL     1      -7.809   8.819  64.067  1.00  0.00    -0.124 OA 
HETATM   45  H   UNL     1      -7.417   8.389  63.316  1.00  0.00     0.000 HD 
ENDBRANCH  30  31
ENDBRANCH   8  30
TORSDOF 5
ENDMDL
MODEL      171
REMARK 921   NORMALIZED FREE ENERGY PREDICTED BY IDOCK:   -1.94 KCAL/MOL
REMARK 922        TOTAL FREE ENERGY PREDICTED BY IDOCK:   -3.74 KCAL/MOL
REMARK 923 INTER-LIGAND FREE ENERGY PREDICTED BY IDOCK:   -5.27 KCAL/MOL
REMARK 924 INTRA-LIGAND FREE ENERGY PREDICTED BY IDOCK:    1.52 KCAL/MOL
REMARK 927      BINDING AFFINITY PREDICTED BY RF-SCORE:    0.00 PKD
ROOT
HETATM    1  C   UNL     1      -9.079  11.056  65.659  1.00  0.00    -0.223 C  
HETATM    2  C   UNL     1      -9.668  11.157  64.282  1.00  0.00    -0.271 C  
HETATM    3  O   UNL     1     -10.639  12.207  64.420  1.00  0.00    -0.285 OA 
HETATM    4  C   UNL     1     -11.026  12.310  65.734  1.00  0.00    -0.301 C  
HETATM    5  C   UNL     1     -10.261  11.323  66.566  1.00  0.00    -0.269 C  
HETATM    6  O   UNL     1     -11.951  13.010  66.113  1.00  0.00    -0.395 OA 
HETATM    7  C   UNL     1      -9.808  11.645  68.001  1.00  0.00    -0.193 C  
HETATM    8  C   UNL     1      -8.327   9.803  66.066  1.00  0.00    -0.120 C  
HETATM    9  C   UNL     1      -8.658  10.731  68.450  1.00  0.00    -0.141 A  
HETATM   10  C   UNL     1      -8.244  10.767  69.799  1.00  0.00     0.291 A  
HETATM   11  O   UNL     1      -6.579  10.008  71.411  1.00  0.00    -0.317 OA 
HETATM   12  C   UNL     1      -7.138  10.032  70.171  1.00  0.00    -0.154 A  
HETATM   13  C   UNL     1      -7.959   9.881  67.536  1.00  0.00    -0.106 A  
HETATM   14  C   UNL     1      -6.447   9.252  69.276  1.00  0.00    -0.045 A  
HETATM   15  C   UNL     1      -5.406   9.205  71.165  1.00  0.00    -0.040 C  
HETATM   16  O   UNL     1      -5.359   8.656  69.832  1.00  0.00    -0.029 OA 
HETATM   17  C   UNL     1      -6.841   9.138  67.966  1.00  0.00    -0.069 A  
ENDROOT
BRANCH   7  18
HETATM   18  C   UNL     1      -9.531  13.136  68.189  1.00  0.00    -0.222 A  
HETATM   19  O   UNL     1      -8.465  17.159  67.831  1.00  0.00    -0.204 OA 
HETATM   20  C   UNL     1      -8.001  14.971  68.590  1.00  0.00    -0.153 A  
HETATM   21  C   UNL     1     -10.456  14.064  67.688  1.00  0.00    -0.245 A  
HETATM   22  H   UNL     1      -7.608  17.456  68.111  1.00  0.00     0.000 HD 
HETATM   23  C   UNL     1      -8.322  13.619  68.703  1.00  0.00    -0.043 A  
HETATM   24  C   UNL     1      -8.900  15.865  67.983  1.00  0.00    -0.178 A  
HETATM   25  C   UNL     1     -10.160  15.428  67.571  1.00  0.00    -0.233 A  
BRANCH  25  26
HETATM   26  O   UNL     1     -11.208  16.119  67.029  1.00  0.00    -0.103 OA 
HETATM   27  C   UNL     1     -10.995  17.281  66.258  1.00  0.00     0.225 C  
ENDBRANCH  25  26
BRANCH  20  28
HETATM   28  O   UNL     1      -6.782  15.485  68.985  1.00  0.00    -0.117 OA 
HETATM   29  C   UNL     1      -6.551  15.549  70.389  1.00  0.00     0.184 C  
ENDBRANCH  20  28
ENDBRANCH   7  18
BRANCH   8  30
HETATM   30  O   UNL     1      -8.811   8.542  65.654  1.00  0.00    -0.174 OA 
BRANCH  30  31
HETATM   31  C   UNL     1      -8.115   7.299  65.786  1.00  0.00    -0.129 C  
HETATM   32  O   UNL     1      -7.447   6.904  64.580  1.00  0.00    -0.084 OA 
HETATM   33  C   UNL     1      -7.031   5.529  64.609  1.00  0.00    -0.049 C  
HETATM   34  C   UNL     1      -6.171   5.122  63.411  1.00  0.00    -0.022 C  
HETATM   35  O   UNL     1      -5.905   3.718  63.447  1.00  0.00    -0.013 OA 
HETATM   36  C   UNL     1      -7.108   2.955  63.417  1.00  0.00    -0.044 C  
HETATM   37  C   UNL     1      -6.774   1.472  63.509  1.00  0.00    -0.021 C  
HETATM   38  O   UNL     1      -7.926   3.247  64.545  1.00  0.00    -0.081 OA 
HETATM   39  C   UNL     1      -8.264   4.633  64.614  1.00  0.00    -0.113 C  
HETATM   40  C   UNL     1      -8.981   4.837  65.936  1.00  0.00    -0.130 C  
HETATM   41  O   UNL     1     -10.227   4.120  65.913  1.00  0.00    -0.382 OA 
HETATM   42  C   UNL     1      -9.233   6.314  66.245  1.00  0.00    -0.145 C  
HETATM   43  H   UNL     1     -10.676   4.247  66.740  1.00  0.00     0.000 HD 
HETATM   44  O   UNL     1      -9.445   6.489  67.668  1.00  0.00    -0.124 OA 
HETATM   45  H   UNL     1     -10.127   5.889  67.948  1.00  0.00     0.000 HD 
ENDBRANCH  30  31
ENDBRANCH   8  30
TORSDOF 5
ENDMDL
MODEL      172
REMARK 921   NORMALIZED FREE ENERGY PREDICTED BY IDOCK:   -1.91 KCAL/MOL
REMARK 922        TOTAL FREE ENERGY PREDICTED BY IDOCK:   -3.70 KCAL/MOL
REMARK 923 INTER-LIGAND FREE ENERGY PREDICTED BY IDOCK:   -5.99 KCAL/MOL
REMARK 924 INTRA-LIGAND FREE ENERGY PREDICTED BY IDOCK:    2.29 KCAL/MOL
REMARK 927      BINDING AFFINITY PREDICTED BY RF-SCORE:    0.00 PKD
ROOT
HETATM    1  C   UNL     1      -8.320  11.027  66.506  1.00  0.00    -0.163 C  
HETATM    2  C   UNL     1      -8.456   9.684  65.849  1.00  0.00    -0.128 C  
HETATM    3  O   UNL     1      -9.877   9.481  65.819  1.00  0.00    -0.285 OA 
HETATM    4  C   UNL     1     -10.475  10.229  66.803  1.00  0.00    -0.214 C  
HETATM    5  C   UNL     1      -9.435  11.032  67.529  1.00  0.00    -0.175 C  
HETATM    6  O   UNL     1     -11.652  10.130  67.106  1.00  0.00     0.045 OA 
HETATM    7  C   UNL     1      -9.719  12.453  68.048  1.00  0.00    -0.210 C  
HETATM    8  C   UNL     1      -6.993  11.435  67.117  1.00  0.00    -0.128 C  
HETATM    9  C   UNL     1      -8.420  13.235  68.293  1.00  0.00    -0.160 A  
HETATM   10  C   UNL     1      -8.488  14.488  68.939  1.00  0.00    -0.110 A  
HETATM   11  O   UNL     1      -7.248  16.484  69.590  1.00  0.00    -0.146 OA 
HETATM   12  C   UNL     1      -7.337  15.238  69.052  1.00  0.00    -0.157 A  
HETATM   13  C   UNL     1      -7.147  12.760  67.841  1.00  0.00    -0.118 A  
HETATM   14  C   UNL     1      -6.127  14.792  68.578  1.00  0.00    -0.094 A  
HETATM   15  C   UNL     1      -5.871  16.804  69.309  1.00  0.00    -0.168 C  
HETATM   16  O   UNL     1      -5.133  15.705  68.738  1.00  0.00    -0.097 OA 
HETATM   17  C   UNL     1      -5.995  13.557  67.991  1.00  0.00    -0.131 A  
ENDROOT
BRANCH   7  18
HETATM   18  C   UNL     1     -10.735  13.185  67.173  1.00  0.00    -0.263 A  
HETATM   19  O   UNL     1     -12.849  15.122  64.136  1.00  0.00    -0.604 OA 
HETATM   20  C   UNL     1     -11.539  15.203  66.099  1.00  0.00    -0.080 A  
HETATM   21  C   UNL     1     -11.522  12.440  66.283  1.00  0.00    -0.423 A  
HETATM   22  H   UNL     1     -12.823  16.069  64.059  1.00  0.00     0.000 HD 
HETATM   23  C   UNL     1     -10.807  14.583  67.111  1.00  0.00    -0.296 A  
HETATM   24  C   UNL     1     -12.232  14.432  65.150  1.00  0.00    -0.393 A  
HETATM   25  C   UNL     1     -12.271  13.041  65.263  1.00  0.00    -0.466 A  
BRANCH  25  26
HETATM   26  O   UNL     1     -12.927  12.106  64.511  1.00  0.00    -0.677 OA 
HETATM   27  C   UNL     1     -12.426  11.694  63.259  1.00  0.00    -0.143 C  
ENDBRANCH  25  26
BRANCH  20  28
HETATM   28  O   UNL     1     -11.562  16.573  65.927  1.00  0.00     0.610 OA 
HETATM   29  C   UNL     1     -10.303  17.203  65.718  1.00  0.00    -0.240 C  
ENDBRANCH  20  28
ENDBRANCH   7  18
BRANCH   8  30
HETATM   30  O   UNL     1      -6.230  10.476  67.818  1.00  0.00    -0.054 OA 
BRANCH  30  31
HETATM   31  C   UNL     1      -6.744   9.530  68.760  1.00  0.00    -0.052 C  
HETATM   32  O   UNL     1      -6.285   9.770  70.097  1.00  0.00    -0.054 OA 
HETATM   33  C   UNL     1      -6.530   8.655  70.969  1.00  0.00    -0.050 C  
HETATM   34  C   UNL     1      -6.206   8.940  72.437  1.00  0.00    -0.018 C  
HETATM   35  O   UNL     1      -6.354   7.751  73.217  1.00  0.00    -0.060 OA 
HETATM   36  C   UNL     1      -5.490   6.714  72.759  1.00  0.00    -0.038 C  
HETATM   37  C   UNL     1      -5.721   5.456  73.586  1.00  0.00    -0.024 C  
HETATM   38  O   UNL     1      -5.786   6.361  71.412  1.00  0.00    -0.026 OA 
HETATM   39  C   UNL     1      -5.667   7.478  70.530  1.00  0.00    -0.027 C  
HETATM   40  C   UNL     1      -6.169   7.013  69.175  1.00  0.00    -0.031 C  
HETATM   41  O   UNL     1      -5.285   6.003  68.665  1.00  0.00    -0.006 OA 
HETATM   42  C   UNL     1      -6.290   8.160  68.170  1.00  0.00    -0.055 C  
HETATM   43  H   UNL     1      -5.599   5.711  67.817  1.00  0.00     0.000 HD 
HETATM   44  O   UNL     1      -7.206   7.789  67.109  1.00  0.00    -0.085 OA 
HETATM   45  H   UNL     1      -6.929   6.954  66.749  1.00  0.00     0.000 HD 
ENDBRANCH  30  31
ENDBRANCH   8  30
TORSDOF 5
ENDMDL
MODEL      173
REMARK 921   NORMALIZED FREE ENERGY PREDICTED BY IDOCK:   -1.88 KCAL/MOL
REMARK 922        TOTAL FREE ENERGY PREDICTED BY IDOCK:   -3.66 KCAL/MOL
REMARK 923 INTER-LIGAND FREE ENERGY PREDICTED BY IDOCK:   -2.00 KCAL/MOL
REMARK 924 INTRA-LIGAND FREE ENERGY PREDICTED BY IDOCK:   -1.67 KCAL/MOL
REMARK 927      BINDING AFFINITY PREDICTED BY RF-SCORE:    0.00 PKD
ROOT
HETATM    1  C   UNL     1      -7.945   9.029  70.723  1.00  0.00    -0.172 C  
HETATM    2  C   UNL     1      -7.412  10.176  71.531  1.00  0.00     2.064 C  
HETATM    3  O   UNL     1      -7.538   9.707  72.883  1.00  0.00     1.067 OA 
HETATM    4  C   UNL     1      -8.516   8.744  72.951  1.00  0.00     0.281 C  
HETATM    5  C   UNL     1      -9.070   8.490  71.580  1.00  0.00    -0.281 C  
HETATM    6  O   UNL     1      -8.941   8.286  73.998  1.00  0.00    -0.137 OA 
HETATM    7  C   UNL     1      -9.503   7.085  71.124  1.00  0.00    -0.165 C  
HETATM    8  C   UNL     1      -8.388   9.259  69.290  1.00  0.00    -0.124 C  
HETATM    9  C   UNL     1      -9.556   6.978  69.592  1.00  0.00    -0.150 A  
HETATM   10  C   UNL     1     -10.106   5.819  69.007  1.00  0.00    -0.249 A  
HETATM   11  O   UNL     1     -10.475   4.596  66.929  1.00  0.00    -0.163 OA 
HETATM   12  C   UNL     1     -10.046   5.676  67.637  1.00  0.00    -0.172 A  
HETATM   13  C   UNL     1      -9.019   7.994  68.739  1.00  0.00    -0.141 A  
HETATM   14  C   UNL     1      -9.490   6.638  66.829  1.00  0.00    -0.160 A  
HETATM   15  C   UNL     1     -10.034   4.949  65.602  1.00  0.00    -0.127 C  
HETATM   16  O   UNL     1      -9.480   6.278  65.518  1.00  0.00     0.154 OA 
HETATM   17  C   UNL     1      -8.991   7.809  67.342  1.00  0.00    -0.128 A  
ENDROOT
BRANCH   7  18
HETATM   18  C   UNL     1      -8.679   5.989  71.799  1.00  0.00    -0.138 A  
HETATM   19  O   UNL     1      -6.697   2.487  72.916  1.00  0.00    -0.021 OA 
HETATM   20  C   UNL     1      -8.528   3.965  73.120  1.00  0.00    -0.092 A  
HETATM   21  C   UNL     1      -7.375   5.747  71.342  1.00  0.00    -0.083 A  
HETATM   22  H   UNL     1      -7.113   1.864  73.500  1.00  0.00     0.000 HD 
HETATM   23  C   UNL     1      -9.222   5.115  72.749  1.00  0.00    -0.146 A  
HETATM   24  C   UNL     1      -7.267   3.686  72.565  1.00  0.00    -0.049 A  
HETATM   25  C   UNL     1      -6.656   4.602  71.707  1.00  0.00    -0.027 A  
BRANCH  25  26
HETATM   26  O   UNL     1      -5.425   4.578  71.112  1.00  0.00    -0.010 OA 
HETATM   27  C   UNL     1      -5.286   4.311  69.734  1.00  0.00    -0.007 C  
ENDBRANCH  25  26
BRANCH  20  28
HETATM   28  O   UNL     1      -9.057   3.016  73.973  1.00  0.00    -0.081 OA 
HETATM   29  C   UNL     1     -10.456   2.779  73.861  1.00  0.00    -0.155 C  
ENDBRANCH  20  28
ENDBRANCH   7  18
BRANCH   8  30
HETATM   30  O   UNL     1      -9.082  10.445  68.963  1.00  0.00    -0.169 OA 
BRANCH  30  31
HETATM   31  C   UNL     1      -8.603  11.478  68.096  1.00  0.00    -0.156 C  
HETATM   32  O   UNL     1      -7.902  12.513  68.798  1.00  0.00    -0.079 OA 
HETATM   33  C   UNL     1      -7.711  13.687  67.993  1.00  0.00    -0.143 C  
HETATM   34  C   UNL     1      -6.823  14.745  68.652  1.00  0.00    -0.103 C  
HETATM   35  O   UNL     1      -6.783  15.928  67.850  1.00  0.00    -0.123 OA 
HETATM   36  C   UNL     1      -8.084  16.482  67.669  1.00  0.00    -0.163 C  
HETATM   37  C   UNL     1      -7.996  17.707  66.769  1.00  0.00    -0.268 C  
HETATM   38  O   UNL     1      -8.942  15.562  67.003  1.00  0.00    -0.200 OA 
HETATM   39  C   UNL     1      -9.064  14.332  67.719  1.00  0.00    -0.195 C  
HETATM   40  C   UNL     1      -9.855  13.391  66.828  1.00  0.00    -0.265 C  
HETATM   41  O   UNL     1     -11.190  13.899  66.673  1.00  0.00    -0.308 OA 
HETATM   42  C   UNL     1      -9.898  11.963  67.376  1.00  0.00    -0.183 C  
HETATM   43  H   UNL     1     -11.685  13.311  66.115  1.00  0.00     0.000 HD 
HETATM   44  O   UNL     1     -10.205  11.036  66.306  1.00  0.00    -0.230 OA 
HETATM   45  H   UNL     1     -10.995  11.331  65.866  1.00  0.00     0.000 HD 
ENDBRANCH  30  31
ENDBRANCH   8  30
TORSDOF 5
ENDMDL
MODEL      174
REMARK 921   NORMALIZED FREE ENERGY PREDICTED BY IDOCK:   -1.53 KCAL/MOL
REMARK 922        TOTAL FREE ENERGY PREDICTED BY IDOCK:   -3.21 KCAL/MOL
REMARK 923 INTER-LIGAND FREE ENERGY PREDICTED BY IDOCK:   -6.90 KCAL/MOL
REMARK 924 INTRA-LIGAND FREE ENERGY PREDICTED BY IDOCK:    3.69 KCAL/MOL
REMARK 927      BINDING AFFINITY PREDICTED BY RF-SCORE:    0.00 PKD
ROOT
HETATM    1  C   UNL     1      -8.323  11.028  66.507  1.00  0.00    -0.163 C  
HETATM    2  C   UNL     1      -8.457   9.691  65.838  1.00  0.00    -0.128 C  
HETATM    3  O   UNL     1      -9.878   9.485  65.808  1.00  0.00    -0.285 OA 
HETATM    4  C   UNL     1     -10.476  10.223  66.801  1.00  0.00    -0.214 C  
HETATM    5  C   UNL     1      -9.436  11.020  67.532  1.00  0.00    -0.175 C  
HETATM    6  O   UNL     1     -11.652  10.119  67.105  1.00  0.00     0.045 OA 
HETATM    7  C   UNL     1      -9.721  12.436  68.065  1.00  0.00    -0.210 C  
HETATM    8  C   UNL     1      -6.995  11.433  67.119  1.00  0.00    -0.128 C  
HETATM    9  C   UNL     1      -8.423  13.218  68.315  1.00  0.00    -0.160 A  
HETATM   10  C   UNL     1      -8.493  14.464  68.973  1.00  0.00    -0.001 A  
HETATM   11  O   UNL     1      -7.256  16.457  69.641  1.00  0.00    -0.168 OA 
HETATM   12  C   UNL     1      -7.343  15.216  69.091  1.00  0.00    -0.167 A  
HETATM   13  C   UNL     1      -7.151  12.750  67.856  1.00  0.00    -0.118 A  
HETATM   14  C   UNL     1      -6.133  14.777  68.610  1.00  0.00    -0.087 A  
HETATM   15  C   UNL     1      -5.879  16.783  69.360  1.00  0.00    -0.178 C  
HETATM   16  O   UNL     1      -5.141  15.690  68.777  1.00  0.00    -0.097 OA 
HETATM   17  C   UNL     1      -6.000  13.548  68.011  1.00  0.00    -0.131 A  
ENDROOT
BRANCH   7  18
HETATM   18  C   UNL     1     -10.741  13.175  67.199  1.00  0.00    -0.263 A  
HETATM   19  O   UNL     1     -12.864  15.138  64.186  1.00  0.00    -0.604 OA 
HETATM   20  C   UNL     1     -11.552  15.201  66.149  1.00  0.00    -0.080 A  
HETATM   21  C   UNL     1     -11.526  12.437  66.301  1.00  0.00    -0.423 A  
HETATM   22  H   UNL     1     -12.841  16.085  64.119  1.00  0.00     0.000 HD 
HETATM   23  C   UNL     1     -10.817  14.572  67.152  1.00  0.00    -0.296 A  
HETATM   24  C   UNL     1     -12.243  14.438  65.191  1.00  0.00    -0.393 A  
HETATM   25  C   UNL     1     -12.278  13.047  65.289  1.00  0.00    -0.466 A  
BRANCH  25  26
HETATM   26  O   UNL     1     -12.932  12.118  64.527  1.00  0.00    -0.677 OA 
HETATM   27  C   UNL     1     -12.366  11.624  63.333  1.00  0.00    -0.221 C  
ENDBRANCH  25  26
BRANCH  20  28
HETATM   28  O   UNL     1     -11.580  16.573  65.992  1.00  0.00     0.636 OA 
HETATM   29  C   UNL     1     -10.369  17.182  65.556  1.00  0.00    -0.115 C  
ENDBRANCH  20  28
ENDBRANCH   7  18
BRANCH   8  30
HETATM   30  O   UNL     1      -6.229  10.468  67.809  1.00  0.00    -0.054 OA 
BRANCH  30  31
HETATM   31  C   UNL     1      -6.739   9.511  68.743  1.00  0.00    -0.052 C  
HETATM   32  O   UNL     1      -7.473   8.454  68.112  1.00  0.00    -0.093 OA 
HETATM   33  C   UNL     1      -8.247   7.689  69.050  1.00  0.00    -0.127 C  
HETATM   34  C   UNL     1      -8.910   6.454  68.437  1.00  0.00    -0.119 C  
HETATM   35  O   UNL     1      -9.759   5.820  69.396  1.00  0.00    -0.143 OA 
HETATM   36  C   UNL     1     -10.783   6.699  69.851  1.00  0.00    -0.250 C  
HETATM   37  C   UNL     1     -11.628   5.997  70.906  1.00  0.00    -0.147 C  
HETATM   38  O   UNL     1     -10.227   7.844  70.489  1.00  0.00    -0.196 OA 
HETATM   39  C   UNL     1      -9.355   8.568  69.619  1.00  0.00    -0.157 C  
HETATM   40  C   UNL     1      -8.704   9.649  70.462  1.00  0.00    -0.104 C  
HETATM   41  O   UNL     1      -9.708  10.582  70.891  1.00  0.00     0.426 OA 
HETATM   42  C   UNL     1      -7.591  10.385  69.715  1.00  0.00    -0.133 C  
HETATM   43  H   UNL     1      -9.301  11.258  71.419  1.00  0.00     0.000 HD 
HETATM   44  O   UNL     1      -6.699  11.021  70.663  1.00  0.00    -0.486 OA 
HETATM   45  H   UNL     1      -7.218  11.554  71.255  1.00  0.00     0.000 HD 
ENDBRANCH  30  31
ENDBRANCH   8  30
TORSDOF 5
ENDMDL
MODEL      175
REMARK 921   NORMALIZED FREE ENERGY PREDICTED BY IDOCK:   -1.27 KCAL/MOL
REMARK 922        TOTAL FREE ENERGY PREDICTED BY IDOCK:   -2.88 KCAL/MOL
REMARK 923 INTER-LIGAND FREE ENERGY PREDICTED BY IDOCK:   -7.63 KCAL/MOL
REMARK 924 INTRA-LIGAND FREE ENERGY PREDICTED BY IDOCK:    4.75 KCAL/MOL
REMARK 927      BINDING AFFINITY PREDICTED BY RF-SCORE:    0.00 PKD
ROOT
HETATM    1  C   UNL     1     -10.949  10.608  68.153  1.00  0.00    -0.321 C  
HETATM    2  C   UNL     1     -11.559  11.451  67.072  1.00  0.00    -0.051 C  
HETATM    3  O   UNL     1     -10.539  11.469  66.060  1.00  0.00    -0.247 OA 
HETATM    4  C   UNL     1      -9.313  11.227  66.632  1.00  0.00    -0.180 C  
HETATM    5  C   UNL     1      -9.483  10.980  68.103  1.00  0.00    -0.172 C  
HETATM    6  O   UNL     1      -8.255  11.338  66.036  1.00  0.00    -0.142 OA 
HETATM    7  C   UNL     1      -8.615   9.961  68.863  1.00  0.00    -0.135 C  
HETATM    8  C   UNL     1     -11.501  10.680  69.565  1.00  0.00    -0.291 C  
HETATM    9  C   UNL     1      -9.276   9.527  70.181  1.00  0.00    -0.281 A  
HETATM   10  C   UNL     1      -8.537   8.738  71.087  1.00  0.00    -0.244 A  
HETATM   11  O   UNL     1      -8.618   7.435  73.147  1.00  0.00    -0.125 OA 
HETATM   12  C   UNL     1      -9.170   8.255  72.213  1.00  0.00    -0.228 A  
HETATM   13  C   UNL     1     -10.632   9.855  70.497  1.00  0.00    -0.359 A  
HETATM   14  C   UNL     1     -10.486   8.540  72.487  1.00  0.00    -0.233 A  
HETATM   15  C   UNL     1      -9.763   7.161  73.979  1.00  0.00    -0.273 C  
HETATM   16  O   UNL     1     -10.932   7.922  73.612  1.00  0.00    -0.141 OA 
HETATM   17  C   UNL     1     -11.234   9.349  71.667  1.00  0.00    -0.431 A  
ENDROOT
BRANCH   7  18
HETATM   18  C   UNL     1      -8.187   8.799  67.967  1.00  0.00    -0.118 A  
HETATM   19  O   UNL     1      -7.371   6.150  64.843  1.00  0.00    -0.067 OA 
HETATM   20  C   UNL     1      -8.710   6.823  66.668  1.00  0.00    -0.127 A  
HETATM   21  C   UNL     1      -6.980   8.901  67.259  1.00  0.00    -0.078 A  
HETATM   22  H   UNL     1      -7.985   5.460  64.624  1.00  0.00     0.000 HD 
HETATM   23  C   UNL     1      -9.019   7.705  67.702  1.00  0.00    -0.127 A  
HETATM   24  C   UNL     1      -7.548   7.010  65.899  1.00  0.00    -0.097 A  
HETATM   25  C   UNL     1      -6.645   8.023  66.221  1.00  0.00    -0.047 A  
BRANCH  25  26
HETATM   26  O   UNL     1      -5.435   8.345  65.668  1.00  0.00    -0.031 OA 
HETATM   27  C   UNL     1      -5.351   9.160  64.520  1.00  0.00    -0.054 C  
ENDBRANCH  25  26
BRANCH  20  28
HETATM   28  O   UNL     1      -9.544   5.788  66.295  1.00  0.00    -0.157 OA 
HETATM   29  C   UNL     1     -10.417   5.288  67.303  1.00  0.00    -0.173 C  
ENDBRANCH  20  28
ENDBRANCH   7  18
BRANCH   8  30
HETATM   30  O   UNL     1     -11.894  11.930  70.090  1.00  0.00    -0.329 OA 
BRANCH  30  31
HETATM   31  C   UNL     1     -12.197  13.099  69.322  1.00  0.00    -0.116 C  
HETATM   32  O   UNL     1     -12.401  12.814  67.932  1.00  0.00    -0.181 OA 
HETATM   33  C   UNL     1     -12.381  14.000  67.122  1.00  0.00    -0.199 C  
HETATM   34  C   UNL     1     -12.761  13.752  65.661  1.00  0.00    -0.478 C  
HETATM   35  O   UNL     1     -12.596  14.948  64.896  1.00  0.00    -0.279 OA 
HETATM   36  C   UNL     1     -11.250  15.415  64.937  1.00  0.00    -0.403 C  
HETATM   37  C   UNL     1     -11.137  16.715  64.153  1.00  0.00     0.861 C  
HETATM   38  O   UNL     1     -10.857  15.722  66.271  1.00  0.00    -0.306 OA 
HETATM   39  C   UNL     1     -10.977  14.592  67.136  1.00  0.00    -0.304 C  
HETATM   40  C   UNL     1     -10.697  15.092  68.541  1.00  0.00    -0.240 C  
HETATM   41  O   UNL     1      -9.328  15.520  68.626  1.00  0.00    -0.186 OA 
HETATM   42  C   UNL     1     -10.982  14.034  69.608  1.00  0.00    -0.040 C  
HETATM   43  H   UNL     1      -9.153  15.834  69.505  1.00  0.00     0.000 HD 
HETATM   44  O   UNL     1     -11.185  14.673  70.893  1.00  0.00    -0.502 OA 
HETATM   45  H   UNL     1     -10.444  15.243  71.067  1.00  0.00     0.000 HD 
ENDBRANCH  30  31
ENDBRANCH   8  30
TORSDOF 5
ENDMDL
MODEL      176
REMARK 921   NORMALIZED FREE ENERGY PREDICTED BY IDOCK:   -1.17 KCAL/MOL
REMARK 922        TOTAL FREE ENERGY PREDICTED BY IDOCK:   -2.74 KCAL/MOL
REMARK 923 INTER-LIGAND FREE ENERGY PREDICTED BY IDOCK:   -3.38 KCAL/MOL
REMARK 924 INTRA-LIGAND FREE ENERGY PREDICTED BY IDOCK:    0.64 KCAL/MOL
REMARK 927      BINDING AFFINITY PREDICTED BY RF-SCORE:    0.00 PKD
ROOT
HETATM    1  C   UNL     1      -9.417  13.252  67.475  1.00  0.00    -0.220 C  
HETATM    2  C   UNL     1      -8.343  13.072  66.442  1.00  0.00     0.507 C  
HETATM    3  O   UNL     1      -8.316  14.344  65.776  1.00  0.00     1.314 OA 
HETATM    4  C   UNL     1      -9.528  14.973  65.926  1.00  0.00    -0.278 C  
HETATM    5  C   UNL     1     -10.433  14.128  66.774  1.00  0.00    -0.277 C  
HETATM    6  O   UNL     1      -9.838  15.994  65.335  1.00  0.00    -0.440 OA 
HETATM    7  C   UNL     1     -11.427  14.748  67.772  1.00  0.00    -0.363 C  
HETATM    8  C   UNL     1     -10.063  12.035  68.109  1.00  0.00    -0.200 C  
HETATM    9  C   UNL     1     -11.862  13.734  68.842  1.00  0.00    -0.396 A  
HETATM   10  C   UNL     1     -12.905  14.080  69.726  1.00  0.00     0.225 A  
HETATM   11  O   UNL     1     -14.145  13.430  71.724  1.00  0.00    -0.197 OA 
HETATM   12  C   UNL     1     -13.213  13.216  70.756  1.00  0.00     0.243 A  
HETATM   13  C   UNL     1     -11.209  12.471  69.004  1.00  0.00    -0.321 A  
HETATM   14  C   UNL     1     -12.552  12.024  70.929  1.00  0.00    -0.253 A  
HETATM   15  C   UNL     1     -13.922  12.287  72.574  1.00  0.00     0.433 C  
HETATM   16  O   UNL     1     -12.968  11.350  72.034  1.00  0.00    -0.442 OA 
HETATM   17  C   UNL     1     -11.567  11.615  70.064  1.00  0.00    -0.338 A  
ENDROOT
BRANCH   7  18
HETATM   18  C   UNL     1     -10.914  16.072  68.337  1.00  0.00    -0.331 A  
HETATM   19  O   UNL     1     -10.405  19.937  69.835  1.00  0.00    -0.567 OA 
HETATM   20  C   UNL     1     -10.286  18.394  68.052  1.00  0.00    -0.384 A  
HETATM   21  C   UNL     1     -11.036  16.311  69.714  1.00  0.00    -0.354 A  
HETATM   22  H   UNL     1     -10.181  20.653  69.253  1.00  0.00     0.000 HD 
HETATM   23  C   UNL     1     -10.470  17.119  67.520  1.00  0.00    -0.348 A  
HETATM   24  C   UNL     1     -10.521  18.634  69.417  1.00  0.00     0.586 A  
HETATM   25  C   UNL     1     -10.849  17.582  70.272  1.00  0.00     1.155 A  
BRANCH  25  26
HETATM   26  O   UNL     1     -11.051  17.565  71.625  1.00  0.00     1.008 OA 
HETATM   27  C   UNL     1     -11.859  16.580  72.230  1.00  0.00    -0.315 C  
ENDBRANCH  25  26
BRANCH  20  28
HETATM   28  O   UNL     1      -9.949  19.485  67.275  1.00  0.00    -0.338 OA 
HETATM   29  C   UNL     1     -10.886  19.857  66.270  1.00  0.00    -0.211 C  
ENDBRANCH  20  28
ENDBRANCH   7  18
BRANCH   8  30
HETATM   30  O   UNL     1     -10.347  10.907  67.309  1.00  0.00    -0.197 OA 
BRANCH  30  31
HETATM   31  C   UNL     1      -9.795   9.599  67.488  1.00  0.00    -0.169 C  
HETATM   32  O   UNL     1     -10.786   8.616  67.814  1.00  0.00    -0.158 OA 
HETATM   33  C   UNL     1     -10.208   7.397  68.306  1.00  0.00    -0.183 C  
HETATM   34  C   UNL     1     -11.224   6.270  68.505  1.00  0.00    -0.209 C  
HETATM   35  O   UNL     1     -10.597   5.138  69.111  1.00  0.00    -0.166 OA 
HETATM   36  C   UNL     1     -10.036   5.467  70.379  1.00  0.00    -0.244 C  
HETATM   37  C   UNL     1      -9.337   4.245  70.960  1.00  0.00    -0.221 C  
HETATM   38  O   UNL     1      -9.035   6.471  70.250  1.00  0.00    -0.152 OA 
HETATM   39  C   UNL     1      -9.549   7.663  69.654  1.00  0.00    -0.160 C  
HETATM   40  C   UNL     1      -8.359   8.575  69.418  1.00  0.00    -0.119 C  
HETATM   41  O   UNL     1      -7.806   8.966  70.685  1.00  0.00    -0.086 OA 
HETATM   42  C   UNL     1      -8.725   9.816  68.601  1.00  0.00    -0.122 C  
HETATM   43  H   UNL     1      -7.061   9.537  70.537  1.00  0.00     0.000 HD 
HETATM   44  O   UNL     1      -7.533  10.371  67.992  1.00  0.00    -0.088 OA 
HETATM   45  H   UNL     1      -6.880  10.504  68.670  1.00  0.00     0.000 HD 
ENDBRANCH  30  31
ENDBRANCH   8  30
TORSDOF 5
ENDMDL
MODEL      177
REMARK 921   NORMALIZED FREE ENERGY PREDICTED BY IDOCK:   -0.74 KCAL/MOL
REMARK 922        TOTAL FREE ENERGY PREDICTED BY IDOCK:   -2.18 KCAL/MOL
REMARK 923 INTER-LIGAND FREE ENERGY PREDICTED BY IDOCK:   -5.10 KCAL/MOL
REMARK 924 INTRA-LIGAND FREE ENERGY PREDICTED BY IDOCK:    2.91 KCAL/MOL
REMARK 927      BINDING AFFINITY PREDICTED BY RF-SCORE:    0.00 PKD
ROOT
HETATM    1  C   UNL     1      -9.626  11.955  67.795  1.00  0.00    -0.190 C  
HETATM    2  C   UNL     1     -10.212  10.600  67.526  1.00  0.00    -0.199 C  
HETATM    3  O   UNL     1     -11.571  10.900  67.167  1.00  0.00    -0.431 OA 
HETATM    4  C   UNL     1     -11.937  12.110  67.705  1.00  0.00    -0.120 C  
HETATM    5  C   UNL     1     -10.771  12.712  68.433  1.00  0.00    -0.260 C  
HETATM    6  O   UNL     1     -13.079  12.538  67.692  1.00  0.00     2.050 OA 
HETATM    7  C   UNL     1     -10.510  14.229  68.440  1.00  0.00    -0.249 C  
HETATM    8  C   UNL     1      -8.349  12.075  68.605  1.00  0.00    -0.036 C  
HETATM    9  C   UNL     1      -9.052  14.550  68.801  1.00  0.00    -0.158 A  
HETATM   10  C   UNL     1      -8.686  15.893  69.030  1.00  0.00    -0.236 A  
HETATM   11  O   UNL     1      -6.835  17.435  69.414  1.00  0.00    -0.233 OA 
HETATM   12  C   UNL     1      -7.355  16.190  69.239  1.00  0.00    -0.231 A  
HETATM   13  C   UNL     1      -8.041  13.539  68.863  1.00  0.00     0.121 A  
HETATM   14  C   UNL     1      -6.386  15.217  69.255  1.00  0.00    -0.117 A  
HETATM   15  C   UNL     1      -5.424  17.138  69.440  1.00  0.00    -0.171 C  
HETATM   16  O   UNL     1      -5.136  15.725  69.420  1.00  0.00    -0.101 OA 
HETATM   17  C   UNL     1      -6.696  13.889  69.093  1.00  0.00    -0.113 A  
ENDROOT
BRANCH   7  18
HETATM   18  C   UNL     1     -10.997  14.896  67.155  1.00  0.00    -0.323 A  
HETATM   19  O   UNL     1     -11.441  16.640  63.385  1.00  0.00    -0.501 OA 
HETATM   20  C   UNL     1     -11.206  16.841  65.727  1.00  0.00     0.388 A  
HETATM   21  C   UNL     1     -11.273  14.091  66.039  1.00  0.00    -0.310 A  
HETATM   22  H   UNL     1     -11.383  17.582  63.281  1.00  0.00     0.000 HD 
HETATM   23  C   UNL     1     -11.034  16.286  66.993  1.00  0.00    -0.086 A  
HETATM   24  C   UNL     1     -11.371  16.011  64.604  1.00  0.00    -0.306 A  
HETATM   25  C   UNL     1     -11.456  14.627  64.757  1.00  0.00    -0.410 A  
BRANCH  25  26
HETATM   26  O   UNL     1     -11.681  13.642  63.835  1.00  0.00    -0.389 OA 
HETATM   27  C   UNL     1     -11.996  12.326  64.234  1.00  0.00    -0.407 C  
ENDBRANCH  25  26
BRANCH  20  28
HETATM   28  O   UNL     1     -11.148  18.201  65.493  1.00  0.00    -0.162 OA 
HETATM   29  C   UNL     1     -10.273  18.948  66.333  1.00  0.00    -0.426 C  
ENDBRANCH  20  28
ENDBRANCH   7  18
BRANCH   8  30
HETATM   30  O   UNL     1      -8.159  11.236  69.725  1.00  0.00     0.405 OA 
BRANCH  30  31
HETATM   31  C   UNL     1      -8.025   9.812  69.684  1.00  0.00    -0.150 C  
HETATM   32  O   UNL     1      -7.188   9.361  68.612  1.00  0.00    -0.073 OA 
HETATM   33  C   UNL     1      -7.314   7.950  68.375  1.00  0.00    -0.101 C  
HETATM   34  C   UNL     1      -6.314   7.407  67.352  1.00  0.00    -0.055 C  
HETATM   35  O   UNL     1      -6.583   6.030  67.077  1.00  0.00    -0.052 OA 
HETATM   36  C   UNL     1      -7.899   5.846  66.562  1.00  0.00    -0.101 C  
HETATM   37  C   UNL     1      -8.155   4.363  66.335  1.00  0.00    -0.102 C  
HETATM   38  O   UNL     1      -8.879   6.279  67.499  1.00  0.00    -0.106 OA 
HETATM   39  C   UNL     1      -8.713   7.653  67.849  1.00  0.00    -0.124 C  
HETATM   40  C   UNL     1      -9.699   7.935  68.968  1.00  0.00    -0.162 C  
HETATM   41  O   UNL     1     -11.038   7.810  68.461  1.00  0.00    -0.414 OA 
HETATM   42  C   UNL     1      -9.502   9.320  69.588  1.00  0.00    -0.179 C  
HETATM   43  H   UNL     1     -11.655   7.986  69.161  1.00  0.00     0.000 HD 
HETATM   44  O   UNL     1     -10.086   9.353  70.913  1.00  0.00    -0.277 OA 
HETATM   45  H   UNL     1     -10.986   9.054  70.855  1.00  0.00     0.000 HD 
ENDBRANCH  30  31
ENDBRANCH   8  30
TORSDOF 5
ENDMDL
MODEL      178
REMARK 921   NORMALIZED FREE ENERGY PREDICTED BY IDOCK:   -0.72 KCAL/MOL
REMARK 922        TOTAL FREE ENERGY PREDICTED BY IDOCK:   -2.16 KCAL/MOL
REMARK 923 INTER-LIGAND FREE ENERGY PREDICTED BY IDOCK:   -1.37 KCAL/MOL
REMARK 924 INTRA-LIGAND FREE ENERGY PREDICTED BY IDOCK:   -0.79 KCAL/MOL
REMARK 927      BINDING AFFINITY PREDICTED BY RF-SCORE:    0.00 PKD
ROOT
HETATM    1  C   UNL     1      -7.518  10.063  69.520  1.00  0.00    -0.123 C  
HETATM    2  C   UNL     1      -6.285  10.917  69.581  1.00  0.00    -0.085 C  
HETATM    3  O   UNL     1      -5.677  10.700  68.297  1.00  0.00    -0.044 OA 
HETATM    4  C   UNL     1      -6.091   9.494  67.785  1.00  0.00    -0.052 C  
HETATM    5  C   UNL     1      -7.069   8.855  68.727  1.00  0.00    -0.067 C  
HETATM    6  O   UNL     1      -5.614   8.986  66.784  1.00  0.00    -0.039 OA 
HETATM    7  C   UNL     1      -8.270   8.035  68.221  1.00  0.00    -0.123 C  
HETATM    8  C   UNL     1      -8.220   9.664  70.805  1.00  0.00     0.111 C  
HETATM    9  C   UNL     1      -9.364   7.914  69.292  1.00  0.00    -0.148 A  
HETATM   10  C   UNL     1     -10.452   7.047  69.062  1.00  0.00    -0.219 A  
HETATM   11  O   UNL     1     -12.630   6.297  69.864  1.00  0.00     0.953 OA 
HETATM   12  C   UNL     1     -11.489   7.029  69.972  1.00  0.00    -0.215 A  
HETATM   13  C   UNL     1      -9.343   8.691  70.494  1.00  0.00    -0.202 A  
HETATM   14  C   UNL     1     -11.479   7.810  71.102  1.00  0.00    -0.274 A  
HETATM   15  C   UNL     1     -13.373   6.784  71.000  1.00  0.00     0.237 C  
HETATM   16  O   UNL     1     -12.617   7.684  71.834  1.00  0.00    -0.310 OA 
HETATM   17  C   UNL     1     -10.419   8.630  71.402  1.00  0.00    -0.327 A  
ENDROOT
BRANCH   7  18
HETATM   18  C   UNL     1      -8.772   8.538  66.868  1.00  0.00    -0.137 A  
HETATM   19  O   UNL     1      -9.258  10.146  63.044  1.00  0.00    -0.253 OA 
HETATM   20  C   UNL     1      -9.428  10.342  65.391  1.00  0.00    -0.232 A  
HETATM   21  C   UNL     1      -8.604   7.723  65.739  1.00  0.00    -0.162 A  
HETATM   22  H   UNL     1      -9.508  11.055  62.932  1.00  0.00     0.000 HD 
HETATM   23  C   UNL     1      -9.254   9.839  66.679  1.00  0.00    -0.184 A  
HETATM   24  C   UNL     1      -9.147   9.540  64.272  1.00  0.00    -0.170 A  
HETATM   25  C   UNL     1      -8.780   8.204  64.435  1.00  0.00     0.263 A  
BRANCH  25  26
HETATM   26  O   UNL     1      -8.529   7.230  63.508  1.00  0.00     0.124 OA 
HETATM   27  C   UNL     1      -9.413   6.145  63.333  1.00  0.00     1.954 C  
ENDBRANCH  25  26
BRANCH  20  28
HETATM   28  O   UNL     1      -9.802  11.649  65.144  1.00  0.00    -0.243 OA 
HETATM   29  C   UNL     1     -11.201  11.895  65.043  1.00  0.00    -0.293 C  
ENDBRANCH  20  28
ENDBRANCH   7  18
BRANCH   8  30
HETATM   30  O   UNL     1      -7.450   9.321  71.937  1.00  0.00    -0.320 OA 
BRANCH  30  31
HETATM   31  C   UNL     1      -6.749   8.087  72.125  1.00  0.00    -0.069 C  
HETATM   32  O   UNL     1      -6.648   7.315  70.921  1.00  0.00    -0.043 OA 
HETATM   33  C   UNL     1      -6.244   5.960  71.171  1.00  0.00    -0.039 C  
HETATM   34  C   UNL     1      -5.964   5.157  69.900  1.00  0.00    -0.017 C  
HETATM   35  O   UNL     1      -5.692   3.792  70.225  1.00  0.00    -0.015 OA 
HETATM   36  C   UNL     1      -6.788   3.188  70.906  1.00  0.00    -0.033 C  
HETATM   37  C   UNL     1      -6.431   1.754  71.276  1.00  0.00    -0.019 C  
HETATM   38  O   UNL     1      -7.058   3.857  72.133  1.00  0.00    -0.046 OA 
HETATM   39  C   UNL     1      -7.350   5.240  71.933  1.00  0.00    -0.087 C  
HETATM   40  C   UNL     1      -7.446   5.865  73.313  1.00  0.00    -0.094 C  
HETATM   41  O   UNL     1      -8.578   5.312  74.004  1.00  0.00    -0.115 OA 
HETATM   42  C   UNL     1      -7.560   7.390  73.260  1.00  0.00    -0.092 C  
HETATM   43  H   UNL     1      -8.638   5.702  74.868  1.00  0.00     0.000 HD 
HETATM   44  O   UNL     1      -7.155   7.958  74.530  1.00  0.00    -0.122 OA 
HETATM   45  H   UNL     1      -7.649   7.533  75.222  1.00  0.00     0.000 HD 
ENDBRANCH  30  31
ENDBRANCH   8  30
TORSDOF 5
ENDMDL
MODEL      179
REMARK 921   NORMALIZED FREE ENERGY PREDICTED BY IDOCK:   -0.13 KCAL/MOL
REMARK 922        TOTAL FREE ENERGY PREDICTED BY IDOCK:   -1.41 KCAL/MOL
REMARK 923 INTER-LIGAND FREE ENERGY PREDICTED BY IDOCK:   -1.10 KCAL/MOL
REMARK 924 INTRA-LIGAND FREE ENERGY PREDICTED BY IDOCK:   -0.31 KCAL/MOL
REMARK 927      BINDING AFFINITY PREDICTED BY RF-SCORE:    0.00 PKD
ROOT
HETATM    1  C   UNL     1      -8.886   8.767  67.346  1.00  0.00    -0.140 C  
HETATM    2  C   UNL     1      -9.345   8.505  65.941  1.00  0.00    -0.163 C  
HETATM    3  O   UNL     1     -10.191   9.631  65.661  1.00  0.00    -0.253 OA 
HETATM    4  C   UNL     1     -10.669  10.158  66.837  1.00  0.00    -0.161 C  
HETATM    5  C   UNL     1     -10.097   9.398  67.998  1.00  0.00    -0.230 C  
HETATM    6  O   UNL     1     -11.531  11.019  66.891  1.00  0.00    -0.384 OA 
HETATM    7  C   UNL     1      -9.728  10.092  69.322  1.00  0.00    -0.238 C  
HETATM    8  C   UNL     1      -8.326   7.630  68.179  1.00  0.00    -0.124 C  
HETATM    9  C   UNL     1      -8.736   9.253  70.142  1.00  0.00    -0.224 A  
HETATM   10  C   UNL     1      -8.431   9.653  71.460  1.00  0.00     1.084 A  
HETATM   11  O   UNL     1      -7.005   9.263  73.401  1.00  0.00    -0.109 OA 
HETATM   12  C   UNL     1      -7.455   8.966  72.152  1.00  0.00     0.159 A  
HETATM   13  C   UNL     1      -8.071   8.109  69.596  1.00  0.00    -0.118 A  
HETATM   14  C   UNL     1      -6.792   7.894  71.603  1.00  0.00    -0.057 A  
HETATM   15  C   UNL     1      -5.922   8.320  73.530  1.00  0.00    -0.088 C  
HETATM   16  O   UNL     1      -5.832   7.396  72.426  1.00  0.00    -0.040 OA 
HETATM   17  C   UNL     1      -7.090   7.430  70.346  1.00  0.00    -0.064 A  
ENDROOT
BRANCH   7  18
HETATM   18  C   UNL     1      -9.290  11.540  69.102  1.00  0.00     0.210 A  
HETATM   19  O   UNL     1      -8.241  15.297  67.609  1.00  0.00    -0.143 OA 
HETATM   20  C   UNL     1      -7.628  13.171  68.435  1.00  0.00    -0.133 A  
HETATM   21  C   UNL     1     -10.274  12.524  68.929  1.00  0.00    -0.012 A  
HETATM   22  H   UNL     1      -7.335  15.500  67.410  1.00  0.00     0.000 HD 
HETATM   23  C   UNL     1      -7.951  11.902  68.913  1.00  0.00     0.040 A  
HETATM   24  C   UNL     1      -8.642  14.106  68.164  1.00  0.00    -0.175 A  
HETATM   25  C   UNL     1      -9.974  13.808  68.456  1.00  0.00    -0.217 A  
BRANCH  25  26
HETATM   26  O   UNL     1     -11.102  14.573  68.345  1.00  0.00    -0.240 OA 
HETATM   27  C   UNL     1     -11.971  14.436  67.242  1.00  0.00    -0.377 C  
ENDBRANCH  25  26
BRANCH  20  28
HETATM   28  O   UNL     1      -6.335  13.548  68.133  1.00  0.00    -0.095 OA 
HETATM   29  C   UNL     1      -5.690  12.816  67.097  1.00  0.00     0.136 C  
ENDBRANCH  20  28
ENDBRANCH   7  18
BRANCH   8  30
HETATM   30  O   UNL     1      -8.922   6.352  68.096  1.00  0.00    -0.118 OA 
BRANCH  30  31
HETATM   31  C   UNL     1      -8.620   5.354  67.117  1.00  0.00    -0.108 C  
HETATM   32  O   UNL     1      -9.157   5.661  65.824  1.00  0.00    -0.159 OA 
HETATM   33  C   UNL     1      -9.137   4.529  64.940  1.00  0.00    -0.152 C  
HETATM   34  C   UNL     1      -9.547   4.864  63.504  1.00  0.00     0.367 C  
HETATM   35  O   UNL     1      -9.624   3.671  62.720  1.00  0.00    -0.101 OA 
HETATM   36  C   UNL     1     -10.572   2.752  63.255  1.00  0.00    -0.217 C  
HETATM   37  C   UNL     1     -10.580   1.481  62.417  1.00  0.00    -0.102 C  
HETATM   38  O   UNL     1     -10.209   2.355  64.573  1.00  0.00     0.079 OA 
HETATM   39  C   UNL     1     -10.105   3.472  65.457  1.00  0.00     0.164 C  
HETATM   40  C   UNL     1      -9.551   2.936  66.765  1.00  0.00     0.122 C  
HETATM   41  O   UNL     1     -10.512   2.046  67.356  1.00  0.00     1.511 OA 
HETATM   42  C   UNL     1      -9.195   4.051  67.751  1.00  0.00    -0.159 C  
HETATM   43  H   UNL     1     -10.166   1.711  68.174  1.00  0.00     0.000 HD 
HETATM   44  O   UNL     1      -8.247   3.557  68.730  1.00  0.00    -0.067 OA 
HETATM   45  H   UNL     1      -8.598   2.763  69.116  1.00  0.00     0.000 HD 
ENDBRANCH  30  31
ENDBRANCH   8  30
TORSDOF 5
ENDMDL
MODEL      180
REMARK 921   NORMALIZED FREE ENERGY PREDICTED BY IDOCK:    0.05 KCAL/MOL
REMARK 922        TOTAL FREE ENERGY PREDICTED BY IDOCK:   -1.16 KCAL/MOL
REMARK 923 INTER-LIGAND FREE ENERGY PREDICTED BY IDOCK:   -1.49 KCAL/MOL
REMARK 924 INTRA-LIGAND FREE ENERGY PREDICTED BY IDOCK:    0.33 KCAL/MOL
REMARK 927      BINDING AFFINITY PREDICTED BY RF-SCORE:    0.00 PKD
ROOT
HETATM    1  C   UNL     1      -7.264  11.597  67.738  1.00  0.00    -0.101 C  
HETATM    2  C   UNL     1      -5.865  11.553  67.197  1.00  0.00    -0.110 C  
HETATM    3  O   UNL     1      -5.480  10.185  67.407  1.00  0.00    -0.041 OA 
HETATM    4  C   UNL     1      -6.225   9.643  68.426  1.00  0.00    -0.047 C  
HETATM    5  C   UNL     1      -7.212  10.659  68.924  1.00  0.00    -0.090 C  
HETATM    6  O   UNL     1      -6.003   8.550  68.919  1.00  0.00    -0.042 OA 
HETATM    7  C   UNL     1      -8.623  10.261  69.393  1.00  0.00    -0.167 C  
HETATM    8  C   UNL     1      -7.888  12.932  68.103  1.00  0.00    -0.147 C  
HETATM    9  C   UNL     1      -9.583  11.461  69.377  1.00  0.00     0.388 A  
HETATM   10  C   UNL     1     -10.865  11.317  69.946  1.00  0.00     0.004 A  
HETATM   11  O   UNL     1     -13.051  12.351  70.265  1.00  0.00     0.394 OA 
HETATM   12  C   UNL     1     -11.764  12.357  69.827  1.00  0.00    -0.291 A  
HETATM   13  C   UNL     1      -9.238  12.705  68.758  1.00  0.00     0.150 A  
HETATM   14  C   UNL     1     -11.437  13.531  69.194  1.00  0.00    -0.295 A  
HETATM   15  C   UNL     1     -13.520  13.613  69.748  1.00  0.00     2.020 C  
HETATM   16  O   UNL     1     -12.479  14.402  69.136  1.00  0.00    -0.186 OA 
HETATM   17  C   UNL     1     -10.185  13.744  68.671  1.00  0.00    -0.209 A  
ENDROOT
BRANCH   7  18
HETATM   18  C   UNL     1      -9.145   9.034  68.647  1.00  0.00    -0.137 A  
HETATM   19  O   UNL     1     -11.355   6.171  66.558  1.00  0.00    -0.745 OA 
HETATM   20  C   UNL     1     -10.455   6.997  68.579  1.00  0.00    -0.200 A  
HETATM   21  C   UNL     1      -9.170   9.054  67.245  1.00  0.00    -0.159 A  
HETATM   22  H   UNL     1     -11.821   5.488  67.025  1.00  0.00     0.000 HD 
HETATM   23  C   UNL     1      -9.742   7.950  69.304  1.00  0.00    -0.159 A  
HETATM   24  C   UNL     1     -10.558   7.100  67.181  1.00  0.00    -0.347 A  
HETATM   25  C   UNL     1      -9.873   8.103  66.495  1.00  0.00    -0.239 A  
BRANCH  25  26
HETATM   26  O   UNL     1      -9.770   8.353  65.154  1.00  0.00     0.557 OA 
HETATM   27  C   UNL     1      -9.713   9.673  64.660  1.00  0.00     0.030 C  
ENDBRANCH  25  26
BRANCH  20  28
HETATM   28  O   UNL     1     -11.149   5.966  69.182  1.00  0.00    -0.351 OA 
HETATM   29  C   UNL     1     -10.672   4.650  68.922  1.00  0.00     0.969 C  
ENDBRANCH  20  28
ENDBRANCH   7  18
BRANCH   8  30
HETATM   30  O   UNL     1      -7.095  13.917  68.731  1.00  0.00    -0.100 OA 
BRANCH  30  31
HETATM   31  C   UNL     1      -7.283  15.331  68.621  1.00  0.00    -0.121 C  
HETATM   32  O   UNL     1      -8.660  15.719  68.707  1.00  0.00    -0.175 OA 
HETATM   33  C   UNL     1      -8.876  17.073  68.278  1.00  0.00    -0.242 C  
HETATM   34  C   UNL     1     -10.303  17.572  68.514  1.00  0.00    -0.380 C  
HETATM   35  O   UNL     1     -10.472  18.874  67.950  1.00  0.00    -0.390 OA 
HETATM   36  C   UNL     1     -10.222  18.874  66.547  1.00  0.00    -0.414 C  
HETATM   37  C   UNL     1     -10.364  20.289  66.003  1.00  0.00    -0.364 C  
HETATM   38  O   UNL     1      -8.884  18.475  66.267  1.00  0.00    -0.400 OA 
HETATM   39  C   UNL     1      -8.596  17.175  66.784  1.00  0.00    -0.243 C  
HETATM   40  C   UNL     1      -7.111  16.947  66.572  1.00  0.00    -0.246 C  
HETATM   41  O   UNL     1      -6.838  16.887  65.163  1.00  0.00     1.470 OA 
HETATM   42  C   UNL     1      -6.611  15.672  67.256  1.00  0.00    -0.096 C  
HETATM   43  H   UNL     1      -5.909  16.745  65.030  1.00  0.00     0.000 HD 
HETATM   44  O   UNL     1      -5.177  15.752  67.455  1.00  0.00    -0.239 OA 
HETATM   45  H   UNL     1      -4.768  15.960  66.623  1.00  0.00     0.000 HD 
ENDBRANCH  30  31
ENDBRANCH   8  30
TORSDOF 5
ENDMDL
MODEL      181
REMARK 921   NORMALIZED FREE ENERGY PREDICTED BY IDOCK:    0.11 KCAL/MOL
REMARK 922        TOTAL FREE ENERGY PREDICTED BY IDOCK:   -1.09 KCAL/MOL
REMARK 923 INTER-LIGAND FREE ENERGY PREDICTED BY IDOCK:   -0.46 KCAL/MOL
REMARK 924 INTRA-LIGAND FREE ENERGY PREDICTED BY IDOCK:   -0.62 KCAL/MOL
REMARK 927      BINDING AFFINITY PREDICTED BY RF-SCORE:    0.00 PKD
ROOT
HETATM    1  C   UNL     1     -10.652  10.442  67.800  1.00  0.00    -0.294 C  
HETATM    2  C   UNL     1     -11.772  10.338  68.794  1.00  0.00     0.051 C  
HETATM    3  O   UNL     1     -11.359  11.227  69.844  1.00  0.00    -0.277 OA 
HETATM    4  C   UNL     1      -9.993  11.373  69.818  1.00  0.00     0.839 C  
HETATM    5  C   UNL     1      -9.424  10.590  68.671  1.00  0.00    -0.172 C  
HETATM    6  O   UNL     1      -9.358  11.945  70.688  1.00  0.00     4.568 OA 
HETATM    7  C   UNL     1      -8.215  11.093  67.862  1.00  0.00    -0.121 C  
HETATM    8  C   UNL     1     -10.474   9.360  66.752  1.00  0.00    -0.195 C  
HETATM    9  C   UNL     1      -8.132  10.412  66.487  1.00  0.00    -0.122 A  
HETATM   10  C   UNL     1      -6.987  10.621  65.689  1.00  0.00    -0.078 A  
HETATM   11  O   UNL     1      -5.970  10.267  63.501  1.00  0.00    -0.133 OA 
HETATM   12  C   UNL     1      -6.967  10.103  64.411  1.00  0.00    -0.106 A  
HETATM   13  C   UNL     1      -9.200   9.613  65.967  1.00  0.00    -0.232 A  
HETATM   14  C   UNL     1      -8.015   9.373  63.905  1.00  0.00    -0.142 A  
HETATM   15  C   UNL     1      -6.556   9.644  62.341  1.00  0.00    -0.096 C  
HETATM   16  O   UNL     1      -7.820   9.004  62.612  1.00  0.00    -0.118 OA 
HETATM   17  C   UNL     1      -9.129   9.093  64.659  1.00  0.00    -0.110 A  
ENDROOT
BRANCH   7  18
HETATM   18  C   UNL     1      -8.163  12.619  67.807  1.00  0.00    -0.171 A  
HETATM   19  O   UNL     1      -7.770  16.648  66.776  1.00  0.00    -0.200 OA 
HETATM   20  C   UNL     1      -6.916  14.696  67.795  1.00  0.00    -0.177 A  
HETATM   21  C   UNL     1      -9.256  13.313  67.266  1.00  0.00    -0.222 A  
HETATM   22  H   UNL     1      -6.953  17.106  66.930  1.00  0.00     0.000 HD 
HETATM   23  C   UNL     1      -7.011  13.346  68.131  1.00  0.00    -0.116 A  
HETATM   24  C   UNL     1      -7.985  15.344  67.153  1.00  0.00    -0.217 A  
HETATM   25  C   UNL     1      -9.186  14.671  66.927  1.00  0.00    -0.249 A  
BRANCH  25  26
HETATM   26  O   UNL     1     -10.365  15.110  66.392  1.00  0.00    -0.269 OA 
HETATM   27  C   UNL     1     -10.757  14.741  65.088  1.00  0.00    -0.415 C  
ENDBRANCH  25  26
BRANCH  20  28
HETATM   28  O   UNL     1      -5.768  15.436  67.997  1.00  0.00    -0.117 OA 
HETATM   29  C   UNL     1      -5.389  15.654  69.352  1.00  0.00    -0.106 C  
ENDBRANCH  20  28
ENDBRANCH   7  18
BRANCH   8  30
HETATM   30  O   UNL     1     -10.678   8.010  67.110  1.00  0.00    -0.322 OA 
BRANCH  30  31
HETATM   31  C   UNL     1      -9.668   7.111  67.579  1.00  0.00    -0.142 C  
HETATM   32  O   UNL     1      -8.449   7.202  66.829  1.00  0.00    -0.115 OA 
HETATM   33  C   UNL     1      -7.568   6.096  67.081  1.00  0.00    -0.092 C  
HETATM   34  C   UNL     1      -6.192   6.245  66.428  1.00  0.00    -0.037 C  
HETATM   35  O   UNL     1      -5.422   5.057  66.617  1.00  0.00    -0.012 OA 
HETATM   36  C   UNL     1      -6.067   3.919  66.051  1.00  0.00    -0.028 C  
HETATM   37  C   UNL     1      -5.234   2.673  66.323  1.00  0.00    -0.005 C  
HETATM   38  O   UNL     1      -7.331   3.691  66.664  1.00  0.00    -0.067 OA 
HETATM   39  C   UNL     1      -8.197   4.819  66.536  1.00  0.00    -0.107 C  
HETATM   40  C   UNL     1      -9.428   4.516  67.369  1.00  0.00    -0.162 C  
HETATM   41  O   UNL     1     -10.129   3.404  66.789  1.00  0.00    -0.266 OA 
HETATM   42  C   UNL     1     -10.366   5.719  67.491  1.00  0.00    -0.220 C  
HETATM   43  H   UNL     1     -10.899   3.213  67.311  1.00  0.00     0.000 HD 
HETATM   44  O   UNL     1     -11.222   5.559  68.649  1.00  0.00     0.110 OA 
HETATM   45  H   UNL     1     -11.648   4.711  68.596  1.00  0.00     0.000 HD 
ENDBRANCH  30  31
ENDBRANCH   8  30
TORSDOF 5
ENDMDL
MODEL      182
REMARK 921   NORMALIZED FREE ENERGY PREDICTED BY IDOCK:    0.28 KCAL/MOL
REMARK 922        TOTAL FREE ENERGY PREDICTED BY IDOCK:   -0.87 KCAL/MOL
REMARK 923 INTER-LIGAND FREE ENERGY PREDICTED BY IDOCK:   -3.90 KCAL/MOL
REMARK 924 INTRA-LIGAND FREE ENERGY PREDICTED BY IDOCK:    3.03 KCAL/MOL
REMARK 927      BINDING AFFINITY PREDICTED BY RF-SCORE:    0.00 PKD
ROOT
HETATM    1  C   UNL     1     -10.478  10.613  69.095  1.00  0.00    -0.245 C  
HETATM    2  C   UNL     1     -10.469   9.520  70.123  1.00  0.00    -0.255 C  
HETATM    3  O   UNL     1      -9.200   9.697  70.773  1.00  0.00    -0.193 OA 
HETATM    4  C   UNL     1      -8.333  10.349  69.930  1.00  0.00     0.103 C  
HETATM    5  C   UNL     1      -9.034  10.687  68.647  1.00  0.00    -0.170 C  
HETATM    6  O   UNL     1      -7.144  10.492  70.163  1.00  0.00    -0.159 OA 
HETATM    7  C   UNL     1      -8.746  11.990  67.881  1.00  0.00    -0.170 C  
HETATM    8  C   UNL     1     -11.430  10.530  67.916  1.00  0.00    -0.109 C  
HETATM    9  C   UNL     1      -9.890  12.345  66.919  1.00  0.00    -0.219 A  
HETATM   10  C   UNL     1      -9.712  13.408  66.008  1.00  0.00    -0.228 A  
HETATM   11  O   UNL     1     -10.788  14.837  64.350  1.00  0.00    -0.237 OA 
HETATM   12  C   UNL     1     -10.780  13.797  65.228  1.00  0.00    -0.339 A  
HETATM   13  C   UNL     1     -11.150  11.667  66.950  1.00  0.00    -0.365 A  
HETATM   14  C   UNL     1     -11.999  13.167  65.295  1.00  0.00    -0.398 A  
HETATM   15  C   UNL     1     -12.174  14.846  63.953  1.00  0.00     0.048 C  
HETATM   16  O   UNL     1     -12.930  13.741  64.487  1.00  0.00    -0.602 OA 
HETATM   17  C   UNL     1     -12.210  12.093  66.124  1.00  0.00     0.158 A  
ENDROOT
BRANCH   7  18
HETATM   18  C   UNL     1      -8.346  13.126  68.821  1.00  0.00     0.120 A  
HETATM   19  O   UNL     1      -6.851  16.581  70.631  1.00  0.00     1.085 OA 
HETATM   20  C   UNL     1      -6.696  14.268  70.179  1.00  0.00    -0.011 A  
HETATM   21  C   UNL     1      -9.110  14.302  68.825  1.00  0.00    -0.103 A  
HETATM   22  H   UNL     1      -6.006  16.570  71.065  1.00  0.00     0.000 HD 
HETATM   23  C   UNL     1      -7.160  13.105  69.567  1.00  0.00     0.262 A  
HETATM   24  C   UNL     1      -7.427  15.464  70.077  1.00  0.00     0.111 A  
HETATM   25  C   UNL     1      -8.669  15.480  69.440  1.00  0.00    -0.258 A  
BRANCH  25  26
HETATM   26  O   UNL     1      -9.574  16.493  69.282  1.00  0.00    -0.248 OA 
HETATM   27  C   UNL     1     -10.841  16.442  69.899  1.00  0.00    -0.333 C  
ENDBRANCH  25  26
BRANCH  20  28
HETATM   28  O   UNL     1      -5.485  14.331  70.840  1.00  0.00    -0.133 OA 
HETATM   29  C   UNL     1      -5.130  13.192  71.616  1.00  0.00    -0.166 C  
ENDBRANCH  20  28
ENDBRANCH   7  18
BRANCH   8  30
HETATM   30  O   UNL     1     -11.655   9.282  67.295  1.00  0.00     0.904 OA 
BRANCH  30  31
HETATM   31  C   UNL     1     -10.714   8.206  67.225  1.00  0.00    -0.193 C  
HETATM   32  O   UNL     1     -10.423   7.635  68.507  1.00  0.00    -0.200 OA 
HETATM   33  C   UNL     1      -9.260   6.793  68.481  1.00  0.00    -0.128 C  
HETATM   34  C   UNL     1      -9.018   6.038  69.789  1.00  0.00    -0.133 C  
HETATM   35  O   UNL     1      -7.781   5.324  69.728  1.00  0.00    -0.070 OA 
HETATM   36  C   UNL     1      -6.681   6.201  69.505  1.00  0.00    -0.052 C  
HETATM   37  C   UNL     1      -5.396   5.391  69.397  1.00  0.00    -0.004 C  
HETATM   38  O   UNL     1      -6.819   6.890  68.267  1.00  0.00    -0.068 OA 
HETATM   39  C   UNL     1      -8.028   7.649  68.211  1.00  0.00    -0.123 C  
HETATM   40  C   UNL     1      -8.136   8.185  66.796  1.00  0.00    -0.103 C  
HETATM   41  O   UNL     1      -7.066   9.116  66.561  1.00  0.00    -0.080 OA 
HETATM   42  C   UNL     1      -9.483   8.857  66.524  1.00  0.00    -0.211 C  
HETATM   43  H   UNL     1      -7.133   9.452  65.676  1.00  0.00     0.000 HD 
HETATM   44  O   UNL     1      -9.733   8.898  65.097  1.00  0.00    -0.391 OA 
HETATM   45  H   UNL     1      -8.983   9.295  64.670  1.00  0.00     0.000 HD 
ENDBRANCH  30  31
ENDBRANCH   8  30
TORSDOF 5
ENDMDL
MODEL      183
REMARK 921   NORMALIZED FREE ENERGY PREDICTED BY IDOCK:    0.41 KCAL/MOL
REMARK 922        TOTAL FREE ENERGY PREDICTED BY IDOCK:   -0.70 KCAL/MOL
REMARK 923 INTER-LIGAND FREE ENERGY PREDICTED BY IDOCK:   -0.15 KCAL/MOL
REMARK 924 INTRA-LIGAND FREE ENERGY PREDICTED BY IDOCK:   -0.55 KCAL/MOL
REMARK 927      BINDING AFFINITY PREDICTED BY RF-SCORE:    0.00 PKD
ROOT
HETATM    1  C   UNL     1      -7.888  14.965  68.704  1.00  0.00    -0.134 C  
HETATM    2  C   UNL     1      -6.478  14.698  68.263  1.00  0.00    -0.121 C  
HETATM    3  O   UNL     1      -6.334  15.543  67.111  1.00  0.00    -0.311 OA 
HETATM    4  C   UNL     1      -7.568  15.804  66.567  1.00  0.00     0.112 C  
HETATM    5  C   UNL     1      -8.633  15.153  67.400  1.00  0.00    -0.201 C  
HETATM    6  O   UNL     1      -7.731  16.364  65.496  1.00  0.00     0.788 OA 
HETATM    7  C   UNL     1     -10.007  15.811  67.625  1.00  0.00    -0.239 C  
HETATM    8  C   UNL     1      -8.590  13.978  69.618  1.00  0.00     0.976 C  
HETATM    9  C   UNL     1     -10.713  15.237  68.864  1.00  0.00    -0.245 A  
HETATM   10  C   UNL     1     -12.054  15.596  69.112  1.00  0.00    -0.249 A  
HETATM   11  O   UNL     1     -13.905  15.483  70.697  1.00  0.00    -0.361 OA 
HETATM   12  C   UNL     1     -12.646  15.173  70.284  1.00  0.00    -0.326 A  
HETATM   13  C   UNL     1     -10.039  14.391  69.801  1.00  0.00     0.349 A  
HETATM   14  C   UNL     1     -11.978  14.396  71.198  1.00  0.00    -0.316 A  
HETATM   15  C   UNL     1     -13.910  14.896  72.014  1.00  0.00    -0.460 C  
HETATM   16  O   UNL     1     -12.720  14.136  72.307  1.00  0.00    -0.322 OA 
HETATM   17  C   UNL     1     -10.690  13.972  70.979  1.00  0.00     2.033 A  
ENDROOT
BRANCH   7  18
HETATM   18  C   UNL     1      -9.916  17.336  67.608  1.00  0.00    -0.297 A  
HETATM   19  O   UNL     1      -9.021  21.357  66.915  1.00  0.00    -0.149 OA 
HETATM   20  C   UNL     1      -8.797  19.397  68.215  1.00  0.00    -0.337 A  
HETATM   21  C   UNL     1     -10.597  18.042  66.606  1.00  0.00    -0.268 A  
HETATM   22  H   UNL     1      -8.377  21.805  67.450  1.00  0.00     0.000 HD 
HETATM   23  C   UNL     1      -9.060  18.050  68.456  1.00  0.00    -0.293 A  
HETATM   24  C   UNL     1      -9.408  20.057  67.134  1.00  0.00    -0.378 A  
HETATM   25  C   UNL     1     -10.354  19.398  66.349  1.00  0.00    -0.483 A  
BRANCH  25  26
HETATM   26  O   UNL     1     -11.117  19.850  65.307  1.00  0.00    -0.360 OA 
HETATM   27  C   UNL     1     -10.828  21.075  64.670  1.00  0.00     2.535 C  
ENDBRANCH  25  26
BRANCH  20  28
HETATM   28  O   UNL     1      -7.885  20.124  68.954  1.00  0.00    -0.059 OA 
HETATM   29  C   UNL     1      -6.680  19.451  69.305  1.00  0.00    -0.335 C  
ENDBRANCH  20  28
ENDBRANCH   7  18
BRANCH   8  30
HETATM   30  O   UNL     1      -8.401  12.594  69.416  1.00  0.00     0.690 OA 
BRANCH  30  31
HETATM   31  C   UNL     1      -7.840  11.991  68.246  1.00  0.00    -0.145 C  
HETATM   32  O   UNL     1      -8.818  11.730  67.231  1.00  0.00    -0.157 OA 
HETATM   33  C   UNL     1      -8.326  10.846  66.211  1.00  0.00    -0.164 C  
HETATM   34  C   UNL     1      -9.283  10.679  65.028  1.00  0.00    -0.211 C  
HETATM   35  O   UNL     1      -8.783   9.694  64.121  1.00  0.00    -0.188 OA 
HETATM   36  C   UNL     1      -8.627   8.428  64.756  1.00  0.00    -0.049 C  
HETATM   37  C   UNL     1      -8.046   7.429  63.766  1.00  0.00    -0.017 C  
HETATM   38  O   UNL     1      -7.698   8.507  65.831  1.00  0.00    -0.093 OA 
HETATM   39  C   UNL     1      -8.096   9.465  66.812  1.00  0.00    -0.109 C  
HETATM   40  C   UNL     1      -6.949   9.574  67.800  1.00  0.00    -0.080 C  
HETATM   41  O   UNL     1      -6.805   8.325  68.496  1.00  0.00    -0.061 OA 
HETATM   42  C   UNL     1      -7.146  10.712  68.804  1.00  0.00    -0.076 C  
HETATM   43  H   UNL     1      -6.087   8.392  69.114  1.00  0.00     0.000 HD 
HETATM   44  O   UNL     1      -5.869  11.091  69.374  1.00  0.00    -0.042 OA 
HETATM   45  H   UNL     1      -5.446  10.311  69.714  1.00  0.00     0.000 HD 
ENDBRANCH  30  31
ENDBRANCH   8  30
TORSDOF 5
ENDMDL
MODEL      184
REMARK 921   NORMALIZED FREE ENERGY PREDICTED BY IDOCK:    0.45 KCAL/MOL
REMARK 922        TOTAL FREE ENERGY PREDICTED BY IDOCK:   -0.65 KCAL/MOL
REMARK 923 INTER-LIGAND FREE ENERGY PREDICTED BY IDOCK:   -3.39 KCAL/MOL
REMARK 924 INTRA-LIGAND FREE ENERGY PREDICTED BY IDOCK:    2.74 KCAL/MOL
REMARK 927      BINDING AFFINITY PREDICTED BY RF-SCORE:    0.00 PKD
ROOT
HETATM    1  C   UNL     1      -7.164  13.409  69.288  1.00  0.00     0.117 C  
HETATM    2  C   UNL     1      -6.269  14.535  69.718  1.00  0.00    -0.140 C  
HETATM    3  O   UNL     1      -6.374  15.466  68.629  1.00  0.00    -0.092 OA 
HETATM    4  C   UNL     1      -6.745  14.804  67.485  1.00  0.00    -0.130 C  
HETATM    5  C   UNL     1      -6.957  13.350  67.790  1.00  0.00    -0.159 C  
HETATM    6  O   UNL     1      -6.758  15.319  66.379  1.00  0.00     0.798 OA 
HETATM    7  C   UNL     1      -8.059  12.525  67.101  1.00  0.00    -0.156 C  
HETATM    8  C   UNL     1      -7.017  12.043  69.932  1.00  0.00     0.423 C  
HETATM    9  C   UNL     1      -8.403  11.260  67.902  1.00  0.00    -0.131 A  
HETATM   10  C   UNL     1      -9.261  10.300  67.325  1.00  0.00    -0.157 A  
HETATM   11  O   UNL     1     -10.527   8.250  67.705  1.00  0.00    -0.239 OA 
HETATM   12  C   UNL     1      -9.660   9.224  68.091  1.00  0.00    -0.143 A  
HETATM   13  C   UNL     1      -7.924  11.047  69.233  1.00  0.00    -0.034 A  
HETATM   14  C   UNL     1      -9.228   9.050  69.383  1.00  0.00    -0.150 A  
HETATM   15  C   UNL     1     -10.664   7.505  68.932  1.00  0.00    -0.115 C  
HETATM   16  O   UNL     1      -9.781   7.961  69.978  1.00  0.00    -0.178 OA 
HETATM   17  C   UNL     1      -8.349   9.925  69.973  1.00  0.00    -0.191 A  
ENDROOT
BRANCH   7  18
HETATM   18  C   UNL     1      -9.270  13.384  66.739  1.00  0.00    -0.242 A  
HETATM   19  O   UNL     1     -11.968  16.186  65.217  1.00  0.00     0.578 OA 
HETATM   20  C   UNL     1     -10.556  15.426  66.951  1.00  0.00    -0.309 A  
HETATM   21  C   UNL     1      -9.950  13.122  65.540  1.00  0.00    -0.220 A  
HETATM   22  H   UNL     1     -12.145  16.990  65.690  1.00  0.00     0.000 HD 
HETATM   23  C   UNL     1      -9.636  14.519  67.473  1.00  0.00    -0.210 A  
HETATM   24  C   UNL     1     -11.144  15.196  65.695  1.00  0.00    -0.334 A  
HETATM   25  C   UNL     1     -10.884  14.015  64.999  1.00  0.00    -0.392 A  
BRANCH  25  26
HETATM   26  O   UNL     1     -11.387  13.551  63.815  1.00  0.00    -0.272 OA 
HETATM   27  C   UNL     1     -12.226  12.418  63.772  1.00  0.00    -0.533 C  
ENDBRANCH  25  26
BRANCH  20  28
HETATM   28  O   UNL     1     -10.878  16.611  67.583  1.00  0.00    -0.324 OA 
HETATM   29  C   UNL     1      -9.840  17.581  67.667  1.00  0.00    -0.291 C  
ENDBRANCH  20  28
ENDBRANCH   7  18
BRANCH   8  30
HETATM   30  O   UNL     1      -5.726  11.550  70.222  1.00  0.00    -0.116 OA 
BRANCH  30  31
HETATM   31  C   UNL     1      -5.421  10.224  70.665  1.00  0.00    -0.076 C  
HETATM   32  O   UNL     1      -5.688   9.229  69.668  1.00  0.00    -0.033 OA 
HETATM   33  C   UNL     1      -5.694   7.899  70.210  1.00  0.00    -0.023 C  
HETATM   34  C   UNL     1      -5.810   6.803  69.148  1.00  0.00    -0.018 C  
HETATM   35  O   UNL     1      -5.935   5.522  69.769  1.00  0.00    -0.016 OA 
HETATM   36  C   UNL     1      -7.085   5.457  70.609  1.00  0.00    -0.061 C  
HETATM   37  C   UNL     1      -7.146   4.095  71.286  1.00  0.00    -0.036 C  
HETATM   38  O   UNL     1      -7.005   6.417  71.658  1.00  0.00    -0.069 OA 
HETATM   39  C   UNL     1      -6.880   7.748  71.155  1.00  0.00    -0.049 C  
HETATM   40  C   UNL     1      -6.633   8.642  72.356  1.00  0.00    -0.053 C  
HETATM   41  O   UNL     1      -7.800   8.638  73.195  1.00  0.00    -0.385 OA 
HETATM   42  C   UNL     1      -6.280  10.076  71.957  1.00  0.00     0.682 C  
HETATM   43  H   UNL     1      -7.646   9.197  73.947  1.00  0.00     0.000 HD 
HETATM   44  O   UNL     1      -5.589  10.733  73.048  1.00  0.00     0.087 OA 
HETATM   45  H   UNL     1      -6.113  10.643  73.836  1.00  0.00     0.000 HD 
ENDBRANCH  30  31
ENDBRANCH   8  30
TORSDOF 5
ENDMDL
MODEL      185
REMARK 921   NORMALIZED FREE ENERGY PREDICTED BY IDOCK:    0.79 KCAL/MOL
REMARK 922        TOTAL FREE ENERGY PREDICTED BY IDOCK:   -0.22 KCAL/MOL
REMARK 923 INTER-LIGAND FREE ENERGY PREDICTED BY IDOCK:    0.65 KCAL/MOL
REMARK 924 INTRA-LIGAND FREE ENERGY PREDICTED BY IDOCK:   -0.86 KCAL/MOL
REMARK 927      BINDING AFFINITY PREDICTED BY RF-SCORE:    0.00 PKD
ROOT
HETATM    1  C   UNL     1      -8.886   8.767  67.346  1.00  0.00    -0.140 C  
HETATM    2  C   UNL     1      -9.345   8.505  65.941  1.00  0.00    -0.163 C  
HETATM    3  O   UNL     1     -10.191   9.631  65.661  1.00  0.00    -0.253 OA 
HETATM    4  C   UNL     1     -10.669  10.158  66.837  1.00  0.00    -0.161 C  
HETATM    5  C   UNL     1     -10.097   9.398  67.998  1.00  0.00    -0.230 C  
HETATM    6  O   UNL     1     -11.531  11.019  66.891  1.00  0.00    -0.384 OA 
HETATM    7  C   UNL     1      -9.728  10.092  69.322  1.00  0.00    -0.238 C  
HETATM    8  C   UNL     1      -8.326   7.630  68.179  1.00  0.00    -0.124 C  
HETATM    9  C   UNL     1      -8.736   9.253  70.142  1.00  0.00    -0.224 A  
HETATM   10  C   UNL     1      -8.431   9.653  71.460  1.00  0.00     1.084 A  
HETATM   11  O   UNL     1      -7.005   9.263  73.401  1.00  0.00    -0.109 OA 
HETATM   12  C   UNL     1      -7.455   8.966  72.152  1.00  0.00     0.159 A  
HETATM   13  C   UNL     1      -8.071   8.109  69.596  1.00  0.00    -0.118 A  
HETATM   14  C   UNL     1      -6.792   7.894  71.603  1.00  0.00    -0.057 A  
HETATM   15  C   UNL     1      -5.922   8.320  73.530  1.00  0.00    -0.088 C  
HETATM   16  O   UNL     1      -5.832   7.396  72.426  1.00  0.00    -0.040 OA 
HETATM   17  C   UNL     1      -7.090   7.430  70.346  1.00  0.00    -0.064 A  
ENDROOT
BRANCH   7  18
HETATM   18  C   UNL     1      -9.290  11.540  69.102  1.00  0.00     0.210 A  
HETATM   19  O   UNL     1      -7.842  15.447  69.394  1.00  0.00    -0.211 OA 
HETATM   20  C   UNL     1      -9.645  13.921  69.365  1.00  0.00     0.579 A  
HETATM   21  C   UNL     1      -7.936  11.806  68.850  1.00  0.00     0.009 A  
HETATM   22  H   UNL     1      -8.429  16.163  69.604  1.00  0.00     0.000 HD 
HETATM   23  C   UNL     1     -10.153  12.626  69.295  1.00  0.00     0.473 A  
HETATM   24  C   UNL     1      -8.267  14.152  69.218  1.00  0.00     0.267 A  
HETATM   25  C   UNL     1      -7.404  13.100  68.908  1.00  0.00    -0.019 A  
BRANCH  25  26
HETATM   26  O   UNL     1      -6.060  13.097  68.654  1.00  0.00    -0.072 OA 
HETATM   27  C   UNL     1      -5.130  12.733  69.651  1.00  0.00    -0.073 C  
ENDBRANCH  25  26
BRANCH  20  28
HETATM   28  O   UNL     1     -10.434  15.018  69.654  1.00  0.00    -0.241 OA 
HETATM   29  C   UNL     1     -11.064  15.021  70.931  1.00  0.00    -0.183 C  
ENDBRANCH  20  28
ENDBRANCH   7  18
BRANCH   8  30
HETATM   30  O   UNL     1      -8.922   6.352  68.096  1.00  0.00    -0.118 OA 
BRANCH  30  31
HETATM   31  C   UNL     1      -8.620   5.354  67.117  1.00  0.00    -0.108 C  
HETATM   32  O   UNL     1      -9.157   5.661  65.824  1.00  0.00    -0.159 OA 
HETATM   33  C   UNL     1      -9.137   4.529  64.940  1.00  0.00    -0.152 C  
HETATM   34  C   UNL     1      -9.547   4.864  63.504  1.00  0.00     0.367 C  
HETATM   35  O   UNL     1      -9.624   3.671  62.720  1.00  0.00    -0.101 OA 
HETATM   36  C   UNL     1     -10.572   2.752  63.255  1.00  0.00    -0.217 C  
HETATM   37  C   UNL     1     -10.580   1.481  62.417  1.00  0.00    -0.102 C  
HETATM   38  O   UNL     1     -10.209   2.355  64.573  1.00  0.00     0.079 OA 
HETATM   39  C   UNL     1     -10.105   3.472  65.457  1.00  0.00     0.164 C  
HETATM   40  C   UNL     1      -9.551   2.936  66.765  1.00  0.00     0.122 C  
HETATM   41  O   UNL     1     -10.512   2.046  67.356  1.00  0.00     1.511 OA 
HETATM   42  C   UNL     1      -9.195   4.051  67.751  1.00  0.00    -0.159 C  
HETATM   43  H   UNL     1     -10.166   1.711  68.174  1.00  0.00     0.000 HD 
HETATM   44  O   UNL     1      -8.247   3.557  68.730  1.00  0.00    -0.067 OA 
HETATM   45  H   UNL     1      -8.598   2.763  69.116  1.00  0.00     0.000 HD 
ENDBRANCH  30  31
ENDBRANCH   8  30
TORSDOF 5
ENDMDL
MODEL      186
REMARK 921   NORMALIZED FREE ENERGY PREDICTED BY IDOCK:    1.12 KCAL/MOL
REMARK 922        TOTAL FREE ENERGY PREDICTED BY IDOCK:    0.21 KCAL/MOL
REMARK 923 INTER-LIGAND FREE ENERGY PREDICTED BY IDOCK:   -7.28 KCAL/MOL
REMARK 924 INTRA-LIGAND FREE ENERGY PREDICTED BY IDOCK:    7.50 KCAL/MOL
REMARK 927      BINDING AFFINITY PREDICTED BY RF-SCORE:    0.00 PKD
ROOT
HETATM    1  C   UNL     1     -10.289  10.094  66.328  1.00  0.00    -0.245 C  
HETATM    2  C   UNL     1     -10.033   8.617  66.245  1.00  0.00    -0.217 C  
HETATM    3  O   UNL     1      -9.682   8.272  67.594  1.00  0.00    -0.148 OA 
HETATM    4  C   UNL     1      -9.204   9.382  68.248  1.00  0.00    -0.130 C  
HETATM    5  C   UNL     1      -9.264  10.571  67.334  1.00  0.00    -0.154 C  
HETATM    6  O   UNL     1      -8.688   9.346  69.353  1.00  0.00    -0.139 OA 
HETATM    7  C   UNL     1      -9.598  11.981  67.854  1.00  0.00    -0.196 C  
HETATM    8  C   UNL     1     -10.271  10.933  65.064  1.00  0.00    -0.303 C  
HETATM    9  C   UNL     1     -10.082  12.901  66.722  1.00  0.00    -0.238 A  
HETATM   10  C   UNL     1     -10.258  14.275  66.988  1.00  0.00    -0.260 A  
HETATM   11  O   UNL     1     -11.089  16.399  66.124  1.00  0.00    -0.030 OA 
HETATM   12  C   UNL     1     -10.802  15.075  66.005  1.00  0.00    -0.334 A  
HETATM   13  C   UNL     1     -10.409  12.401  65.422  1.00  0.00    -0.303 A  
HETATM   14  C   UNL     1     -11.152  14.578  64.773  1.00  0.00    -0.391 A  
HETATM   15  C   UNL     1     -11.749  16.648  64.866  1.00  0.00     0.704 C  
HETATM   16  O   UNL     1     -11.721  15.517  63.972  1.00  0.00    -0.375 OA 
HETATM   17  C   UNL     1     -10.951  13.260  64.444  1.00  0.00    -0.413 A  
ENDROOT
BRANCH   7  18
HETATM   18  C   UNL     1     -10.530  11.935  69.064  1.00  0.00    -0.103 A  
HETATM   19  O   UNL     1     -13.695  11.498  71.754  1.00  0.00    -0.019 OA 
HETATM   20  C   UNL     1     -12.348  12.859  70.372  1.00  0.00    -0.258 A  
HETATM   21  C   UNL     1     -10.730  10.710  69.717  1.00  0.00    -0.283 A  
HETATM   22  H   UNL     1     -14.267  12.231  71.948  1.00  0.00     0.000 HD 
HETATM   23  C   UNL     1     -11.312  13.029  69.455  1.00  0.00    -0.223 A  
HETATM   24  C   UNL     1     -12.599  11.594  70.932  1.00  0.00    -0.313 A  
HETATM   25  C   UNL     1     -11.759  10.517  70.647  1.00  0.00    -0.357 A  
BRANCH  25  26
HETATM   26  O   UNL     1     -11.767   9.234  71.121  1.00  0.00    -0.283 OA 
HETATM   27  C   UNL     1     -10.765   8.775  72.001  1.00  0.00    -0.347 C  
ENDBRANCH  25  26
BRANCH  20  28
HETATM   28  O   UNL     1     -13.215  13.877  70.717  1.00  0.00    -0.215 OA 
HETATM   29  C   UNL     1     -12.900  15.170  70.211  1.00  0.00    -0.245 C  
ENDBRANCH  20  28
ENDBRANCH   7  18
BRANCH   8  30
HETATM   30  O   UNL     1      -9.305  10.665  64.070  1.00  0.00    -0.222 OA 
BRANCH  30  31
HETATM   31  C   UNL     1      -8.488   9.493  63.996  1.00  0.00    -0.185 C  
HETATM   32  O   UNL     1      -9.001   8.406  64.778  1.00  0.00     0.027 OA 
HETATM   33  C   UNL     1      -8.034   7.361  64.964  1.00  0.00    -0.129 C  
HETATM   34  C   UNL     1      -8.600   6.115  65.649  1.00  0.00    -0.145 C  
HETATM   35  O   UNL     1      -7.555   5.176  65.911  1.00  0.00    -0.081 OA 
HETATM   36  C   UNL     1      -6.549   5.733  66.752  1.00  0.00    -0.056 C  
HETATM   37  C   UNL     1      -5.436   4.714  66.959  1.00  0.00    -0.013 C  
HETATM   38  O   UNL     1      -5.940   6.864  66.138  1.00  0.00    -0.032 OA 
HETATM   39  C   UNL     1      -6.894   7.882  65.830  1.00  0.00    -0.056 C  
HETATM   40  C   UNL     1      -6.153   8.941  65.034  1.00  0.00    -0.060 C  
HETATM   41  O   UNL     1      -5.165   9.558  65.876  1.00  0.00    -0.035 OA 
HETATM   42  C   UNL     1      -7.090  10.005  64.460  1.00  0.00    -0.139 C  
HETATM   43  H   UNL     1      -4.702  10.221  65.378  1.00  0.00     0.000 HD 
HETATM   44  O   UNL     1      -6.451  10.673  63.344  1.00  0.00    -0.342 OA 
HETATM   45  H   UNL     1      -5.599  10.985  63.627  1.00  0.00     0.000 HD 
ENDBRANCH  30  31
ENDBRANCH   8  30
TORSDOF 5
ENDMDL
MODEL      187
REMARK 921   NORMALIZED FREE ENERGY PREDICTED BY IDOCK:    1.32 KCAL/MOL
REMARK 922        TOTAL FREE ENERGY PREDICTED BY IDOCK:    0.47 KCAL/MOL
REMARK 923 INTER-LIGAND FREE ENERGY PREDICTED BY IDOCK:   -3.45 KCAL/MOL
REMARK 924 INTRA-LIGAND FREE ENERGY PREDICTED BY IDOCK:    3.92 KCAL/MOL
REMARK 927      BINDING AFFINITY PREDICTED BY RF-SCORE:    0.00 PKD
ROOT
HETATM    1  C   UNL     1      -8.117  14.257  69.191  1.00  0.00     0.074 C  
HETATM    2  C   UNL     1      -7.300  13.840  70.378  1.00  0.00     1.386 C  
HETATM    3  O   UNL     1      -6.249  14.820  70.409  1.00  0.00    -0.166 OA 
HETATM    4  C   UNL     1      -6.077  15.355  69.155  1.00  0.00    -0.108 C  
HETATM    5  C   UNL     1      -7.080  14.761  68.211  1.00  0.00    -0.113 C  
HETATM    6  O   UNL     1      -5.153  16.093  68.857  1.00  0.00    -0.099 OA 
HETATM    7  C   UNL     1      -7.724  15.586  67.082  1.00  0.00    -0.257 C  
HETATM    8  C   UNL     1      -9.067  13.265  68.546  1.00  0.00    -0.064 C  
HETATM    9  C   UNL     1      -9.032  14.947  66.590  1.00  0.00    -0.301 A  
HETATM   10  C   UNL     1      -9.657  15.472  65.440  1.00  0.00    -0.150 A  
HETATM   11  O   UNL     1     -11.645  15.411  64.027  1.00  0.00    -0.241 OA 
HETATM   12  C   UNL     1     -10.888  14.972  65.069  1.00  0.00    -0.422 A  
HETATM   13  C   UNL     1      -9.663  13.869  67.288  1.00  0.00    -0.245 A  
HETATM   14  C   UNL     1     -11.507  13.966  65.770  1.00  0.00    -0.321 A  
HETATM   15  C   UNL     1     -12.845  14.635  64.218  1.00  0.00     0.403 C  
HETATM   16  O   UNL     1     -12.734  13.660  65.274  1.00  0.00    -0.583 OA 
HETATM   17  C   UNL     1     -10.916  13.382  66.864  1.00  0.00    -0.295 A  
ENDROOT
BRANCH   7  18
HETATM   18  C   UNL     1      -7.853  17.061  67.459  1.00  0.00    -0.186 A  
HETATM   19  O   UNL     1      -8.744  20.767  69.167  1.00  0.00     1.179 OA 
HETATM   20  C   UNL     1      -9.105  19.134  67.499  1.00  0.00    -0.294 A  
HETATM   21  C   UNL     1      -7.050  17.567  68.492  1.00  0.00    -0.226 A  
HETATM   22  H   UNL     1      -9.472  21.284  68.843  1.00  0.00     0.000 HD 
HETATM   23  C   UNL     1      -8.844  17.893  66.923  1.00  0.00    -0.263 A  
HETATM   24  C   UNL     1      -8.359  19.574  68.606  1.00  0.00    -0.329 A  
HETATM   25  C   UNL     1      -7.289  18.815  69.082  1.00  0.00    -0.192 A  
BRANCH  25  26
HETATM   26  O   UNL     1      -6.393  19.070  70.084  1.00  0.00    -0.171 OA 
HETATM   27  C   UNL     1      -5.274  19.902  69.868  1.00  0.00    -0.202 C  
ENDBRANCH  25  26
BRANCH  20  28
HETATM   28  O   UNL     1     -10.136  19.951  67.078  1.00  0.00    -0.389 OA 
HETATM   29  C   UNL     1      -9.933  20.639  65.848  1.00  0.00     0.315 C  
ENDBRANCH  20  28
ENDBRANCH   7  18
BRANCH   8  30
HETATM   30  O   UNL     1      -8.672  11.916  68.412  1.00  0.00    -0.173 OA 
BRANCH  30  31
HETATM   31  C   UNL     1      -9.046  11.041  67.343  1.00  0.00    -0.141 C  
HETATM   32  O   UNL     1      -9.120   9.668  67.747  1.00  0.00    -0.125 OA 
HETATM   33  C   UNL     1      -9.172   8.769  66.627  1.00  0.00    -0.177 C  
HETATM   34  C   UNL     1      -9.420   7.311  67.020  1.00  0.00    -0.156 C  
HETATM   35  O   UNL     1      -9.333   6.466  65.871  1.00  0.00    -0.082 OA 
HETATM   36  C   UNL     1      -8.052   6.554  65.252  1.00  0.00    -0.133 C  
HETATM   37  C   UNL     1      -8.026   5.678  64.007  1.00  0.00    -0.121 C  
HETATM   38  O   UNL     1      -7.790   7.881  64.808  1.00  0.00    -0.110 OA 
HETATM   39  C   UNL     1      -7.845   8.823  65.880  1.00  0.00    -0.102 C  
HETATM   40  C   UNL     1      -7.721  10.199  65.252  1.00  0.00    -0.144 C  
HETATM   41  O   UNL     1      -6.416  10.335  64.666  1.00  0.00    -0.146 OA 
HETATM   42  C   UNL     1      -7.963  11.326  66.257  1.00  0.00    -0.086 C  
HETATM   43  H   UNL     1      -6.339  11.195  64.272  1.00  0.00     0.000 HD 
HETATM   44  O   UNL     1      -8.324  12.542  65.555  1.00  0.00     0.508 OA 
HETATM   45  H   UNL     1      -7.664  12.716  64.893  1.00  0.00     0.000 HD 
ENDBRANCH  30  31
ENDBRANCH   8  30
TORSDOF 5
ENDMDL
MODEL      188
REMARK 921   NORMALIZED FREE ENERGY PREDICTED BY IDOCK:    2.37 KCAL/MOL
REMARK 922        TOTAL FREE ENERGY PREDICTED BY IDOCK:    1.83 KCAL/MOL
REMARK 923 INTER-LIGAND FREE ENERGY PREDICTED BY IDOCK:    2.48 KCAL/MOL
REMARK 924 INTRA-LIGAND FREE ENERGY PREDICTED BY IDOCK:   -0.64 KCAL/MOL
REMARK 927      BINDING AFFINITY PREDICTED BY RF-SCORE:    0.00 PKD
ROOT
HETATM    1  C   UNL     1      -9.027  10.090  64.276  1.00  0.00    -0.269 C  
HETATM    2  C   UNL     1      -9.772   9.801  63.005  1.00  0.00     0.501 C  
HETATM    3  O   UNL     1      -9.184   8.569  62.558  1.00  0.00     0.290 OA 
HETATM    4  C   UNL     1      -7.922   8.439  63.084  1.00  0.00    -0.161 C  
HETATM    5  C   UNL     1      -7.625   9.606  63.979  1.00  0.00    -0.128 C  
HETATM    6  O   UNL     1      -7.136   7.568  62.748  1.00  0.00    -0.072 OA 
HETATM    7  C   UNL     1      -6.795   9.455  65.266  1.00  0.00    -0.083 C  
HETATM    8  C   UNL     1      -9.030  11.495  64.848  1.00  0.00     0.188 C  
HETATM    9  C   UNL     1      -7.039  10.620  66.237  1.00  0.00    -0.137 A  
HETATM   10  C   UNL     1      -6.227  10.735  67.384  1.00  0.00    -0.055 A  
HETATM   11  O   UNL     1      -5.878  11.913  69.491  1.00  0.00    -0.071 OA 
HETATM   12  C   UNL     1      -6.524  11.712  68.311  1.00  0.00    -0.051 A  
HETATM   13  C   UNL     1      -8.097  11.564  66.043  1.00  0.00     0.131 A  
HETATM   14  C   UNL     1      -7.568  12.588  68.136  1.00  0.00    -0.127 A  
HETATM   15  C   UNL     1      -6.697  12.945  70.077  1.00  0.00     0.352 C  
HETATM   16  O   UNL     1      -7.724  13.433  69.189  1.00  0.00     0.074 OA 
HETATM   17  C   UNL     1      -8.355  12.555  67.012  1.00  0.00    -0.144 A  
ENDROOT
BRANCH   7  18
HETATM   18  C   UNL     1      -6.966   8.072  65.894  1.00  0.00    -0.057 A  
HETATM   19  O   UNL     1      -7.808   4.080  66.788  1.00  0.00    -0.091 OA 
HETATM   20  C   UNL     1      -8.349   6.374  66.930  1.00  0.00    -0.110 A  
HETATM   21  C   UNL     1      -6.025   7.075  65.599  1.00  0.00    -0.036 A  
HETATM   22  H   UNL     1      -8.623   3.844  67.214  1.00  0.00     0.000 HD 
HETATM   23  C   UNL     1      -8.104   7.712  66.626  1.00  0.00    -0.119 A  
HETATM   24  C   UNL     1      -7.443   5.378  66.528  1.00  0.00    -0.087 A  
HETATM   25  C   UNL     1      -6.245   5.725  65.901  1.00  0.00    -0.034 A  
BRANCH  25  26
HETATM   26  O   UNL     1      -5.198   4.947  65.490  1.00  0.00    -0.011 OA 
HETATM   27  C   UNL     1      -5.415   3.680  64.909  1.00  0.00    -0.010 C  
ENDBRANCH  25  26
BRANCH  20  28
HETATM   28  O   UNL     1      -9.503   5.950  67.559  1.00  0.00    -0.111 OA 
HETATM   29  C   UNL     1      -9.614   6.258  68.945  1.00  0.00    -0.126 C  
ENDBRANCH  20  28
ENDBRANCH   7  18
BRANCH   8  30
HETATM   30  O   UNL     1      -8.934  12.598  63.971  1.00  0.00     0.915 OA 
BRANCH  30  31
HETATM   31  C   UNL     1      -9.450  13.909  64.223  1.00  0.00     2.361 C  
HETATM   32  O   UNL     1      -8.543  14.729  64.972  1.00  0.00     2.664 OA 
HETATM   33  C   UNL     1      -9.176  15.907  65.497  1.00  0.00     0.127 C  
HETATM   34  C   UNL     1      -8.203  16.885  66.158  1.00  0.00    -0.260 C  
HETATM   35  O   UNL     1      -8.919  17.964  66.763  1.00  0.00    -0.247 OA 
HETATM   36  C   UNL     1      -9.830  17.497  67.755  1.00  0.00    -0.286 C  
HETATM   37  C   UNL     1     -10.603  18.674  68.333  1.00  0.00    -0.132 C  
HETATM   38  O   UNL     1     -10.802  16.626  67.186  1.00  0.00    -0.253 OA 
HETATM   39  C   UNL     1     -10.200  15.498  66.550  1.00  0.00    -0.283 C  
HETATM   40  C   UNL     1     -11.318  14.753  65.845  1.00  0.00    -0.331 C  
HETATM   41  O   UNL     1     -12.225  14.223  66.827  1.00  0.00    -0.463 OA 
HETATM   42  C   UNL     1     -10.799  13.625  64.951  1.00  0.00    -0.375 C  
HETATM   43  H   UNL     1     -12.925  13.757  66.386  1.00  0.00     0.000 HD 
HETATM   44  O   UNL     1     -11.797  13.288  63.955  1.00  0.00    -0.409 OA 
HETATM   45  H   UNL     1     -12.620  13.115  64.399  1.00  0.00     0.000 HD 
ENDBRANCH  30  31
ENDBRANCH   8  30
TORSDOF 5
ENDMDL
MODEL      189
REMARK 921   NORMALIZED FREE ENERGY PREDICTED BY IDOCK:    2.54 KCAL/MOL
REMARK 922        TOTAL FREE ENERGY PREDICTED BY IDOCK:    2.05 KCAL/MOL
REMARK 923 INTER-LIGAND FREE ENERGY PREDICTED BY IDOCK:    2.76 KCAL/MOL
REMARK 924 INTRA-LIGAND FREE ENERGY PREDICTED BY IDOCK:   -0.71 KCAL/MOL
REMARK 927      BINDING AFFINITY PREDICTED BY RF-SCORE:    0.00 PKD
ROOT
HETATM    1  C   UNL     1      -9.027  10.090  64.276  1.00  0.00    -0.269 C  
HETATM    2  C   UNL     1      -9.772   9.801  63.005  1.00  0.00     0.501 C  
HETATM    3  O   UNL     1      -9.184   8.569  62.558  1.00  0.00     0.290 OA 
HETATM    4  C   UNL     1      -7.922   8.439  63.084  1.00  0.00    -0.161 C  
HETATM    5  C   UNL     1      -7.625   9.606  63.979  1.00  0.00    -0.128 C  
HETATM    6  O   UNL     1      -7.136   7.568  62.748  1.00  0.00    -0.072 OA 
HETATM    7  C   UNL     1      -6.795   9.455  65.266  1.00  0.00    -0.083 C  
HETATM    8  C   UNL     1      -9.030  11.495  64.848  1.00  0.00     0.188 C  
HETATM    9  C   UNL     1      -7.039  10.620  66.237  1.00  0.00    -0.137 A  
HETATM   10  C   UNL     1      -6.227  10.735  67.384  1.00  0.00    -0.055 A  
HETATM   11  O   UNL     1      -5.878  11.913  69.491  1.00  0.00    -0.071 OA 
HETATM   12  C   UNL     1      -6.524  11.712  68.311  1.00  0.00    -0.051 A  
HETATM   13  C   UNL     1      -8.097  11.564  66.043  1.00  0.00     0.131 A  
HETATM   14  C   UNL     1      -7.568  12.588  68.136  1.00  0.00    -0.127 A  
HETATM   15  C   UNL     1      -6.697  12.945  70.077  1.00  0.00     0.352 C  
HETATM   16  O   UNL     1      -7.724  13.433  69.189  1.00  0.00     0.074 OA 
HETATM   17  C   UNL     1      -8.355  12.555  67.012  1.00  0.00    -0.144 A  
ENDROOT
BRANCH   7  18
HETATM   18  C   UNL     1      -6.966   8.072  65.894  1.00  0.00    -0.057 A  
HETATM   19  O   UNL     1      -6.957   4.666  68.312  1.00  0.00    -0.054 OA 
HETATM   20  C   UNL     1      -6.088   5.895  66.492  1.00  0.00    -0.026 A  
HETATM   21  C   UNL     1      -7.987   7.880  66.837  1.00  0.00    -0.108 A  
HETATM   22  H   UNL     1      -6.282   4.006  68.210  1.00  0.00     0.000 HD 
HETATM   23  C   UNL     1      -6.054   7.031  65.684  1.00  0.00    -0.036 A  
HETATM   24  C   UNL     1      -7.054   5.774  67.505  1.00  0.00    -0.074 A  
HETATM   25  C   UNL     1      -8.046   6.744  67.654  1.00  0.00    -0.116 A  
BRANCH  25  26
HETATM   26  O   UNL     1      -9.112   6.802  68.509  1.00  0.00    -0.131 OA 
HETATM   27  C   UNL     1      -9.963   7.927  68.539  1.00  0.00    -0.187 C  
ENDBRANCH  25  26
BRANCH  20  28
HETATM   28  O   UNL     1      -5.151   4.884  66.399  1.00  0.00    -0.007 OA 
HETATM   29  C   UNL     1      -5.401   3.883  65.418  1.00  0.00    -0.009 C  
ENDBRANCH  20  28
ENDBRANCH   7  18
BRANCH   8  30
HETATM   30  O   UNL     1      -8.934  12.598  63.971  1.00  0.00     0.915 OA 
BRANCH  30  31
HETATM   31  C   UNL     1      -9.450  13.909  64.223  1.00  0.00     2.361 C  
HETATM   32  O   UNL     1      -8.761  14.584  65.285  1.00  0.00     1.602 OA 
HETATM   33  C   UNL     1      -9.472  15.742  65.749  1.00  0.00    -0.299 C  
HETATM   34  C   UNL     1      -8.689  16.578  66.763  1.00  0.00    -0.226 C  
HETATM   35  O   UNL     1      -9.505  17.636  67.269  1.00  0.00    -0.250 OA 
HETATM   36  C   UNL     1     -10.676  17.135  67.908  1.00  0.00    -0.355 C  
HETATM   37  C   UNL     1     -11.536  18.298  68.384  1.00  0.00     1.502 C  
HETATM   38  O   UNL     1     -11.480  16.397  66.994  1.00  0.00     0.227 OA 
HETATM   39  C   UNL     1     -10.766  15.300  66.421  1.00  0.00    -0.318 C  
HETATM   40  C   UNL     1     -11.667  14.710  65.352  1.00  0.00    -0.330 C  
HETATM   41  O   UNL     1     -12.833  14.147  65.976  1.00  0.00    -0.485 OA 
HETATM   42  C   UNL     1     -10.960  13.647  64.510  1.00  0.00    -0.396 C  
HETATM   43  H   UNL     1     -13.398  13.779  65.307  1.00  0.00     0.000 HD 
HETATM   44  O   UNL     1     -11.647  13.483  63.245  1.00  0.00    -0.621 OA 
HETATM   45  H   UNL     1     -12.568  13.323  63.420  1.00  0.00     0.000 HD 
ENDBRANCH  30  31
ENDBRANCH   8  30
TORSDOF 5
ENDMDL
MODEL      190
REMARK 921   NORMALIZED FREE ENERGY PREDICTED BY IDOCK:    2.66 KCAL/MOL
REMARK 922        TOTAL FREE ENERGY PREDICTED BY IDOCK:    2.21 KCAL/MOL
REMARK 923 INTER-LIGAND FREE ENERGY PREDICTED BY IDOCK:    0.07 KCAL/MOL
REMARK 924 INTRA-LIGAND FREE ENERGY PREDICTED BY IDOCK:    2.13 KCAL/MOL
REMARK 927      BINDING AFFINITY PREDICTED BY RF-SCORE:    0.00 PKD
ROOT
HETATM    1  C   UNL     1     -10.052   9.934  66.917  1.00  0.00    -0.285 C  
HETATM    2  C   UNL     1      -9.583  10.241  65.524  1.00  0.00    -0.242 C  
HETATM    3  O   UNL     1      -8.154  10.274  65.663  1.00  0.00    -0.142 OA 
HETATM    4  C   UNL     1      -7.820  10.556  66.966  1.00  0.00    -0.114 C  
HETATM    5  C   UNL     1      -9.068  10.681  67.791  1.00  0.00    -0.144 C  
HETATM    6  O   UNL     1      -6.684  10.799  67.335  1.00  0.00    -0.072 OA 
HETATM    7  C   UNL     1      -9.131  10.198  69.251  1.00  0.00    -0.208 C  
HETATM    8  C   UNL     1     -11.489  10.225  67.308  1.00  0.00     0.476 C  
HETATM    9  C   UNL     1     -10.579   9.969  69.709  1.00  0.00    -0.301 A  
HETATM   10  C   UNL     1     -10.829   9.700  71.071  1.00  0.00    -0.412 A  
HETATM   11  O   UNL     1     -12.506   9.039  72.715  1.00  0.00    -0.238 OA 
HETATM   12  C   UNL     1     -12.114   9.381  71.458  1.00  0.00    -0.379 A  
HETATM   13  C   UNL     1     -11.678   9.969  68.792  1.00  0.00     0.180 A  
HETATM   14  C   UNL     1     -13.155   9.342  70.562  1.00  0.00     0.450 A  
HETATM   15  C   UNL     1     -13.885   8.686  72.483  1.00  0.00    -0.306 C  
HETATM   16  O   UNL     1     -14.325   8.952  71.136  1.00  0.00    -0.226 OA 
HETATM   17  C   UNL     1     -12.977   9.649  69.236  1.00  0.00     2.805 A  
ENDROOT
BRANCH   7  18
HETATM   18  C   UNL     1      -8.202   9.009  69.497  1.00  0.00    -0.114 A  
HETATM   19  O   UNL     1      -6.436   5.355  70.482  1.00  0.00    -0.029 OA 
HETATM   20  C   UNL     1      -6.898   7.615  70.988  1.00  0.00    -0.049 A  
HETATM   21  C   UNL     1      -8.170   7.971  68.555  1.00  0.00    -0.126 A  
HETATM   22  H   UNL     1      -6.032   5.229  71.332  1.00  0.00     0.000 HD 
HETATM   23  C   UNL     1      -7.497   8.839  70.695  1.00  0.00    -0.079 A  
HETATM   24  C   UNL     1      -6.974   6.551  70.073  1.00  0.00    -0.063 A  
HETATM   25  C   UNL     1      -7.568   6.735  68.824  1.00  0.00    -0.105 A  
BRANCH  25  26
HETATM   26  O   UNL     1      -7.693   5.880  67.764  1.00  0.00    -0.094 OA 
HETATM   27  C   UNL     1      -6.697   4.923  67.476  1.00  0.00    -0.055 C  
ENDBRANCH  25  26
BRANCH  20  28
HETATM   28  O   UNL     1      -6.279   7.357  72.195  1.00  0.00    -0.040 OA 
HETATM   29  C   UNL     1      -6.097   5.985  72.529  1.00  0.00    -0.041 C  
ENDBRANCH  20  28
ENDBRANCH   7  18
BRANCH   8  30
HETATM   30  O   UNL     1     -12.108  11.405  66.839  1.00  0.00    -0.243 OA 
BRANCH  30  31
HETATM   31  C   UNL     1     -11.688  12.740  67.136  1.00  0.00    -0.380 C  
HETATM   32  O   UNL     1     -10.365  13.026  66.664  1.00  0.00    -0.253 OA 
HETATM   33  C   UNL     1      -9.828  14.230  67.236  1.00  0.00    -0.244 C  
HETATM   34  C   UNL     1      -8.489  14.654  66.630  1.00  0.00    -0.017 C  
HETATM   35  O   UNL     1      -7.962  15.781  67.332  1.00  0.00    -0.141 OA 
HETATM   36  C   UNL     1      -7.759  15.491  68.712  1.00  0.00    -0.159 C  
HETATM   37  C   UNL     1      -7.247  16.735  69.426  1.00  0.00    -0.105 C  
HETATM   38  O   UNL     1      -8.986  15.148  69.347  1.00  0.00    -0.225 OA 
HETATM   39  C   UNL     1      -9.610  14.022  68.729  1.00  0.00    -0.097 C  
HETATM   40  C   UNL     1     -10.972  13.871  69.381  1.00  0.00    -0.126 C  
HETATM   41  O   UNL     1     -10.797  13.524  70.765  1.00  0.00     0.782 OA 
HETATM   42  C   UNL     1     -11.843  12.824  68.685  1.00  0.00    -0.304 C  
HETATM   43  H   UNL     1     -11.649  13.430  71.173  1.00  0.00     0.000 HD 
HETATM   44  O   UNL     1     -13.239  13.059  68.997  1.00  0.00     1.539 OA 
HETATM   45  H   UNL     1     -13.333  13.110  69.941  1.00  0.00     0.000 HD 
ENDBRANCH  30  31
ENDBRANCH   8  30
TORSDOF 5
ENDMDL
MODEL      191
REMARK 921   NORMALIZED FREE ENERGY PREDICTED BY IDOCK:    3.55 KCAL/MOL
REMARK 922        TOTAL FREE ENERGY PREDICTED BY IDOCK:    3.36 KCAL/MOL
REMARK 923 INTER-LIGAND FREE ENERGY PREDICTED BY IDOCK:    0.77 KCAL/MOL
REMARK 924 INTRA-LIGAND FREE ENERGY PREDICTED BY IDOCK:    2.59 KCAL/MOL
REMARK 927      BINDING AFFINITY PREDICTED BY RF-SCORE:    0.00 PKD
ROOT
HETATM    1  C   UNL     1      -6.472  16.638  68.714  1.00  0.00    -0.159 C  
HETATM    2  C   UNL     1      -5.283  17.159  69.468  1.00  0.00    -0.162 C  
HETATM    3  O   UNL     1      -5.188  18.521  69.021  1.00  0.00    -0.184 OA 
HETATM    4  C   UNL     1      -5.786  18.650  67.791  1.00  0.00    -0.174 C  
HETATM    5  C   UNL     1      -6.369  17.331  67.373  1.00  0.00    -0.171 C  
HETATM    6  O   UNL     1      -5.716  19.658  67.108  1.00  0.00    -0.175 OA 
HETATM    7  C   UNL     1      -7.688  17.237  66.586  1.00  0.00    -0.298 C  
HETATM    8  C   UNL     1      -6.668  15.141  68.561  1.00  0.00    -0.108 C  
HETATM    9  C   UNL     1      -8.321  15.842  66.708  1.00  0.00    -0.306 A  
HETATM   10  C   UNL     1      -9.437  15.527  65.905  1.00  0.00    -0.377 A  
HETATM   11  O   UNL     1     -11.190  13.893  65.452  1.00  0.00    -0.298 OA 
HETATM   12  C   UNL     1     -10.072  14.318  66.099  1.00  0.00    -0.313 A  
HETATM   13  C   UNL     1      -7.847  14.870  67.645  1.00  0.00    -0.189 A  
HETATM   14  C   UNL     1      -9.635  13.408  67.032  1.00  0.00    -0.244 A  
HETATM   15  C   UNL     1     -11.459  12.662  66.154  1.00  0.00    -0.365 C  
HETATM   16  O   UNL     1     -10.432  12.309  67.103  1.00  0.00    -0.217 OA 
HETATM   17  C   UNL     1      -8.521  13.642  67.800  1.00  0.00    -0.183 A  
ENDROOT
BRANCH   7  18
HETATM   18  C   UNL     1      -8.637  18.385  66.928  1.00  0.00    -0.276 A  
HETATM   19  O   UNL     1     -11.747  20.850  68.231  1.00  0.00     2.414 OA 
HETATM   20  C   UNL     1     -10.653  19.662  66.508  1.00  0.00    -0.482 A  
HETATM   21  C   UNL     1      -8.609  18.923  68.223  1.00  0.00    -0.364 A  
HETATM   22  H   UNL     1     -12.463  21.071  67.647  1.00  0.00     0.000 HD 
HETATM   23  C   UNL     1      -9.639  18.821  66.052  1.00  0.00    -0.109 A  
HETATM   24  C   UNL     1     -10.663  20.100  67.843  1.00  0.00    -0.051 A  
HETATM   25  C   UNL     1      -9.612  19.776  68.701  1.00  0.00    -0.322 A  
BRANCH  25  26
HETATM   26  O   UNL     1      -9.376  20.141  69.998  1.00  0.00     0.462 OA 
HETATM   27  C   UNL     1      -8.064  20.202  70.513  1.00  0.00     1.469 C  
ENDBRANCH  25  26
BRANCH  20  28
HETATM   28  O   UNL     1     -11.721  20.040  65.719  1.00  0.00     0.737 OA 
HETATM   29  C   UNL     1     -11.402  20.539  64.424  1.00  0.00     2.738 C  
ENDBRANCH  20  28
ENDBRANCH   7  18
BRANCH   8  30
HETATM   30  O   UNL     1      -5.547  14.317  68.324  1.00  0.00    -0.100 OA 
BRANCH  30  31
HETATM   31  C   UNL     1      -5.590  12.922  68.010  1.00  0.00    -0.101 C  
HETATM   32  O   UNL     1      -6.336  12.642  66.818  1.00  0.00    -0.066 OA 
HETATM   33  C   UNL     1      -6.651  11.247  66.684  1.00  0.00    -0.135 C  
HETATM   34  C   UNL     1      -7.300  10.890  65.345  1.00  0.00     0.162 C  
HETATM   35  O   UNL     1      -7.697   9.517  65.337  1.00  0.00    -0.104 OA 
HETATM   36  C   UNL     1      -8.628   9.235  66.378  1.00  0.00    -0.131 C  
HETATM   37  C   UNL     1      -8.980   7.753  66.360  1.00  0.00    -0.196 C  
HETATM   38  O   UNL     1      -8.058   9.490  67.657  1.00  0.00    -0.109 OA 
HETATM   39  C   UNL     1      -7.624  10.845  67.786  1.00  0.00    -0.095 C  
HETATM   40  C   UNL     1      -6.889  10.938  69.111  1.00  0.00    -0.086 C  
HETATM   41  O   UNL     1      -7.818  10.711  70.183  1.00  0.00    -0.390 OA 
HETATM   42  C   UNL     1      -6.191  12.286  69.300  1.00  0.00    -0.098 C  
HETATM   43  H   UNL     1      -7.359  10.769  71.012  1.00  0.00     0.000 HD 
HETATM   44  O   UNL     1      -5.136  12.159  70.286  1.00  0.00    -0.079 OA 
HETATM   45  H   UNL     1      -5.503  11.772  71.073  1.00  0.00     0.000 HD 
ENDBRANCH  30  31
ENDBRANCH   8  30
TORSDOF 5
ENDMDL
MODEL      192
REMARK 921   NORMALIZED FREE ENERGY PREDICTED BY IDOCK:    4.28 KCAL/MOL
REMARK 922        TOTAL FREE ENERGY PREDICTED BY IDOCK:    4.30 KCAL/MOL
REMARK 923 INTER-LIGAND FREE ENERGY PREDICTED BY IDOCK:    3.06 KCAL/MOL
REMARK 924 INTRA-LIGAND FREE ENERGY PREDICTED BY IDOCK:    1.24 KCAL/MOL
REMARK 927      BINDING AFFINITY PREDICTED BY RF-SCORE:    0.00 PKD
ROOT
HETATM    1  C   UNL     1     -12.396  12.273  67.986  1.00  0.00     0.520 C  
HETATM    2  C   UNL     1     -12.930  10.895  68.247  1.00  0.00     3.985 C  
HETATM    3  O   UNL     1     -12.715  10.726  69.658  1.00  0.00    -0.234 OA 
HETATM    4  C   UNL     1     -11.699  11.552  70.075  1.00  0.00    -0.332 C  
HETATM    5  C   UNL     1     -11.208  12.371  68.918  1.00  0.00    -0.330 C  
HETATM    6  O   UNL     1     -11.203  11.503  71.188  1.00  0.00     1.201 OA 
HETATM    7  C   UNL     1     -10.746  13.830  69.091  1.00  0.00    -0.154 C  
HETATM    8  C   UNL     1     -12.037  12.684  66.570  1.00  0.00    -0.225 C  
HETATM    9  C   UNL     1     -10.770  14.592  67.758  1.00  0.00    -0.265 A  
HETATM   10  C   UNL     1     -10.207  15.885  67.701  1.00  0.00    -0.263 A  
HETATM   11  O   UNL     1      -9.901  17.886  66.340  1.00  0.00    -0.320 OA 
HETATM   12  C   UNL     1     -10.333  16.611  66.535  1.00  0.00    -0.299 A  
HETATM   13  C   UNL     1     -11.389  14.056  66.584  1.00  0.00    -0.345 A  
HETATM   14  C   UNL     1     -10.966  16.104  65.426  1.00  0.00    -0.227 A  
HETATM   15  C   UNL     1     -10.423  18.151  65.023  1.00  0.00     1.214 C  
HETATM   16  O   UNL     1     -11.031  16.999  64.405  1.00  0.00    -0.993 OA 
HETATM   17  C   UNL     1     -11.482  14.831  65.410  1.00  0.00    -0.341 A  
ENDROOT
BRANCH   7  18
HETATM   18  C   UNL     1     -11.492  14.531  70.225  1.00  0.00    -0.281 A  
HETATM   19  O   UNL     1     -12.867  16.075  73.855  1.00  0.00    -0.568 OA 
HETATM   20  C   UNL     1     -12.997  14.475  72.123  1.00  0.00    -0.346 A  
HETATM   21  C   UNL     1     -11.011  15.765  70.689  1.00  0.00    -0.341 A  
HETATM   22  H   UNL     1     -13.524  15.609  74.358  1.00  0.00     0.000 HD 
HETATM   23  C   UNL     1     -12.543  13.925  70.925  1.00  0.00    -0.431 A  
HETATM   24  C   UNL     1     -12.423  15.655  72.625  1.00  0.00    -0.428 A  
HETATM   25  C   UNL     1     -11.457  16.340  71.886  1.00  0.00    -0.209 A  
BRANCH  25  26
HETATM   26  O   UNL     1     -10.819  17.524  72.136  1.00  0.00     1.686 OA 
HETATM   27  C   UNL     1     -10.489  18.410  71.089  1.00  0.00     2.898 C  
ENDBRANCH  25  26
BRANCH  20  28
HETATM   28  O   UNL     1     -13.958  13.867  72.907  1.00  0.00    -0.627 OA 
HETATM   29  C   UNL     1     -14.158  12.474  72.690  1.00  0.00     0.584 C  
ENDBRANCH  20  28
ENDBRANCH   7  18
BRANCH   8  30
HETATM   30  O   UNL     1     -11.407  11.752  65.717  1.00  0.00    -0.318 OA 
BRANCH  30  31
HETATM   31  C   UNL     1     -10.082  11.236  65.882  1.00  0.00    -0.245 C  
HETATM   32  O   UNL     1      -9.250  11.464  64.737  1.00  0.00    -0.155 OA 
HETATM   33  C   UNL     1      -8.049  10.677  64.768  1.00  0.00    -0.004 C  
HETATM   34  C   UNL     1      -7.061  11.018  63.650  1.00  0.00     0.788 C  
HETATM   35  O   UNL     1      -5.956  10.113  63.672  1.00  0.00    -0.122 OA 
HETATM   36  C   UNL     1      -6.380   8.763  63.501  1.00  0.00    -0.088 C  
HETATM   37  C   UNL     1      -5.176   7.835  63.582  1.00  0.00    -0.037 C  
HETATM   38  O   UNL     1      -7.257   8.367  64.550  1.00  0.00    -0.082 OA 
HETATM   39  C   UNL     1      -8.412   9.204  64.625  1.00  0.00    -0.181 C  
HETATM   40  C   UNL     1      -9.166   8.787  65.874  1.00  0.00    -0.220 C  
HETATM   41  O   UNL     1      -9.653   7.446  65.707  1.00  0.00    -0.388 OA 
HETATM   42  C   UNL     1     -10.327   9.729  66.199  1.00  0.00    -0.144 C  
HETATM   43  H   UNL     1     -10.124   7.185  66.489  1.00  0.00     0.000 HD 
HETATM   44  O   UNL     1     -10.684   9.605  67.598  1.00  0.00    -0.267 OA 
HETATM   45  H   UNL     1     -10.833   8.686  67.792  1.00  0.00     0.000 HD 
ENDBRANCH  30  31
ENDBRANCH   8  30
TORSDOF 5
ENDMDL
MODEL      193
REMARK 921   NORMALIZED FREE ENERGY PREDICTED BY IDOCK:    5.05 KCAL/MOL
REMARK 922        TOTAL FREE ENERGY PREDICTED BY IDOCK:    5.29 KCAL/MOL
REMARK 923 INTER-LIGAND FREE ENERGY PREDICTED BY IDOCK:    2.75 KCAL/MOL
REMARK 924 INTRA-LIGAND FREE ENERGY PREDICTED BY IDOCK:    2.54 KCAL/MOL
REMARK 927      BINDING AFFINITY PREDICTED BY RF-SCORE:    0.00 PKD
ROOT
HETATM    1  C   UNL     1      -7.175  13.839  69.352  1.00  0.00     0.113 C  
HETATM    2  C   UNL     1      -6.908  14.615  70.609  1.00  0.00     0.344 C  
HETATM    3  O   UNL     1      -6.704  15.953  70.127  1.00  0.00    -0.042 OA 
HETATM    4  C   UNL     1      -6.302  15.918  68.814  1.00  0.00    -0.114 C  
HETATM    5  C   UNL     1      -6.266  14.496  68.335  1.00  0.00    -0.103 C  
HETATM    6  O   UNL     1      -5.909  16.896  68.201  1.00  0.00    -0.115 OA 
HETATM    7  C   UNL     1      -6.658  14.111  66.897  1.00  0.00     1.338 C  
HETATM    8  C   UNL     1      -7.023  12.330  69.352  1.00  0.00     0.067 C  
HETATM    9  C   UNL     1      -7.019  12.622  66.789  1.00  0.00     0.489 A  
HETATM   10  C   UNL     1      -7.225  12.060  65.511  1.00  0.00     2.227 A  
HETATM   11  O   UNL     1      -7.964  10.091  64.275  1.00  0.00    -0.143 OA 
HETATM   12  C   UNL     1      -7.662  10.755  65.424  1.00  0.00     0.022 A  
HETATM   13  C   UNL     1      -7.202  11.796  67.943  1.00  0.00    -0.092 A  
HETATM   14  C   UNL     1      -7.876   9.983  66.540  1.00  0.00    -0.112 A  
HETATM   15  C   UNL     1      -8.484   8.855  64.805  1.00  0.00    -0.176 C  
HETATM   16  O   UNL     1      -8.357   8.748  66.237  1.00  0.00    -0.111 OA 
HETATM   17  C   UNL     1      -7.637  10.463  67.804  1.00  0.00    -0.089 A  
ENDROOT
BRANCH   7  18
HETATM   18  C   UNL     1      -7.715  15.054  66.324  1.00  0.00     1.403 A  
HETATM   19  O   UNL     1     -10.704  17.891  65.641  1.00  0.00    -0.521 OA 
HETATM   20  C   UNL     1     -10.030  15.644  65.921  1.00  0.00    -0.351 A  
HETATM   21  C   UNL     1      -7.369  16.392  66.084  1.00  0.00     0.326 A  
HETATM   22  H   UNL     1     -11.617  17.632  65.620  1.00  0.00     0.000 HD 
HETATM   23  C   UNL     1      -9.056  14.679  66.171  1.00  0.00    -0.125 A  
HETATM   24  C   UNL     1      -9.671  16.998  65.794  1.00  0.00    -0.050 A  
HETATM   25  C   UNL     1      -8.329  17.378  65.824  1.00  0.00     0.241 A  
BRANCH  25  26
HETATM   26  O   UNL     1      -7.748  18.604  65.654  1.00  0.00    -0.495 OA 
HETATM   27  C   UNL     1      -6.417  18.725  65.204  1.00  0.00    -0.203 C  
ENDBRANCH  25  26
BRANCH  20  28
HETATM   28  O   UNL     1     -11.377  15.348  65.864  1.00  0.00    -0.249 OA 
HETATM   29  C   UNL     1     -11.894  14.556  66.928  1.00  0.00    -0.377 C  
ENDBRANCH  20  28
ENDBRANCH   7  18
BRANCH   8  30
HETATM   30  O   UNL     1      -5.954  11.743  70.064  1.00  0.00    -0.129 OA 
BRANCH  30  31
HETATM   31  C   UNL     1      -5.670  10.342  70.135  1.00  0.00    -0.062 C  
HETATM   32  O   UNL     1      -5.623   9.717  68.846  1.00  0.00    -0.036 OA 
HETATM   33  C   UNL     1      -5.663   8.284  68.930  1.00  0.00    -0.039 C  
HETATM   34  C   UNL     1      -5.446   7.583  67.587  1.00  0.00    -0.030 C  
HETATM   35  O   UNL     1      -5.625   6.173  67.730  1.00  0.00    -0.008 OA 
HETATM   36  C   UNL     1      -6.933   5.855  68.196  1.00  0.00    -0.069 C  
HETATM   37  C   UNL     1      -7.058   4.349  68.381  1.00  0.00    -0.056 C  
HETATM   38  O   UNL     1      -7.173   6.431  69.476  1.00  0.00    -0.074 OA 
HETATM   39  C   UNL     1      -7.026   7.852  69.457  1.00  0.00    -0.054 C  
HETATM   40  C   UNL     1      -7.134   8.315  70.898  1.00  0.00    -0.053 C  
HETATM   41  O   UNL     1      -8.464   8.056  71.379  1.00  0.00    -0.108 OA 
HETATM   42  C   UNL     1      -6.799   9.799  71.064  1.00  0.00     0.068 C  
HETATM   43  H   UNL     1      -8.532   8.346  72.280  1.00  0.00     0.000 HD 
HETATM   44  O   UNL     1      -6.434  10.070  72.440  1.00  0.00     0.300 OA 
HETATM   45  H   UNL     1      -7.122   9.739  73.006  1.00  0.00     0.000 HD 
ENDBRANCH  30  31
ENDBRANCH   8  30
TORSDOF 5
ENDMDL
MODEL      194
REMARK 921   NORMALIZED FREE ENERGY PREDICTED BY IDOCK:    6.19 KCAL/MOL
REMARK 922        TOTAL FREE ENERGY PREDICTED BY IDOCK:    6.77 KCAL/MOL
REMARK 923 INTER-LIGAND FREE ENERGY PREDICTED BY IDOCK:   -0.07 KCAL/MOL
REMARK 924 INTRA-LIGAND FREE ENERGY PREDICTED BY IDOCK:    6.84 KCAL/MOL
REMARK 927      BINDING AFFINITY PREDICTED BY RF-SCORE:    0.00 PKD
ROOT
HETATM    1  C   UNL     1      -9.801   8.654  66.977  1.00  0.00    -0.284 C  
HETATM    2  C   UNL     1      -9.304   9.142  65.648  1.00  0.00    -0.235 C  
HETATM    3  O   UNL     1      -7.907   8.806  65.681  1.00  0.00    -0.092 OA 
HETATM    4  C   UNL     1      -7.485   8.707  66.984  1.00  0.00    -0.084 C  
HETATM    5  C   UNL     1      -8.644   8.936  67.910  1.00  0.00    -0.126 C  
HETATM    6  O   UNL     1      -6.315   8.587  67.308  1.00  0.00    -0.055 OA 
HETATM    7  C   UNL     1      -8.789   8.170  69.237  1.00  0.00    -0.144 C  
HETATM    8  C   UNL     1     -11.112   9.182  67.530  1.00  0.00     0.262 C  
HETATM    9  C   UNL     1     -10.238   8.193  69.747  1.00  0.00    -0.203 A  
HETATM   10  C   UNL     1     -10.516   7.696  71.038  1.00  0.00    -0.218 A  
HETATM   11  O   UNL     1     -12.265   7.101  72.630  1.00  0.00    -0.021 OA 
HETATM   12  C   UNL     1     -11.831   7.611  71.446  1.00  0.00    -0.293 A  
HETATM   13  C   UNL     1     -11.324   8.655  68.937  1.00  0.00     0.558 A  
HETATM   14  C   UNL     1     -12.870   8.017  70.645  1.00  0.00     0.444 A  
HETATM   15  C   UNL     1     -13.694   7.144  72.436  1.00  0.00     0.379 C  
HETATM   16  O   UNL     1     -14.085   7.797  71.212  1.00  0.00    -0.340 OA 
HETATM   17  C   UNL     1     -12.651   8.560  69.402  1.00  0.00     3.119 A  
ENDROOT
BRANCH   7  18
HETATM   18  C   UNL     1      -8.177   6.772  69.158  1.00  0.00    -0.121 A  
HETATM   19  O   UNL     1      -7.253   2.708  69.428  1.00  0.00    -0.043 OA 
HETATM   20  C   UNL     1      -6.960   4.934  70.161  1.00  0.00    -0.049 A  
HETATM   21  C   UNL     1      -8.656   5.879  68.188  1.00  0.00    -0.113 A  
HETATM   22  H   UNL     1      -6.698   2.386  70.128  1.00  0.00     0.000 HD 
HETATM   23  C   UNL     1      -7.268   6.292  70.108  1.00  0.00    -0.080 A  
HETATM   24  C   UNL     1      -7.539   4.039  69.245  1.00  0.00    -0.054 A  
HETATM   25  C   UNL     1      -8.354   4.511  68.216  1.00  0.00    -0.090 A  
BRANCH  25  26
HETATM   26  O   UNL     1      -8.960   3.848  67.185  1.00  0.00    -0.119 OA 
HETATM   27  C   UNL     1      -8.656   4.152  65.842  1.00  0.00    -0.114 C  
ENDBRANCH  25  26
BRANCH  20  28
HETATM   28  O   UNL     1      -6.152   4.389  71.140  1.00  0.00    -0.016 OA 
HETATM   29  C   UNL     1      -5.210   5.271  71.742  1.00  0.00    -0.005 C  
ENDBRANCH  20  28
ENDBRANCH   7  18
BRANCH   8  30
HETATM   30  O   UNL     1     -11.432  10.547  67.366  1.00  0.00    -0.405 OA 
BRANCH  30  31
HETATM   31  C   UNL     1     -10.704  11.646  67.923  1.00  0.00    -0.202 C  
HETATM   32  O   UNL     1     -10.154  12.514  66.924  1.00  0.00    -0.221 OA 
HETATM   33  C   UNL     1      -9.170  13.412  67.460  1.00  0.00    -0.219 C  
HETATM   34  C   UNL     1      -8.686  14.463  66.458  1.00  0.00    -0.007 C  
HETATM   35  O   UNL     1      -7.623  15.233  67.022  1.00  0.00    -0.205 OA 
HETATM   36  C   UNL     1      -6.515  14.413  67.383  1.00  0.00     0.120 C  
HETATM   37  C   UNL     1      -5.433  15.270  68.025  1.00  0.00    -0.143 C  
HETATM   38  O   UNL     1      -6.891  13.451  68.363  1.00  0.00    -0.084 OA 
HETATM   39  C   UNL     1      -7.953  12.612  67.908  1.00  0.00    -0.156 C  
HETATM   40  C   UNL     1      -8.368  11.759  69.092  1.00  0.00     0.325 C  
HETATM   41  O   UNL     1      -7.286  10.882  69.445  1.00  0.00    -0.122 OA 
HETATM   42  C   UNL     1      -9.633  10.945  68.814  1.00  0.00    -0.189 C  
HETATM   43  H   UNL     1      -7.545  10.348  70.186  1.00  0.00     0.000 HD 
HETATM   44  O   UNL     1     -10.255  10.560  70.065  1.00  0.00    -0.430 OA 
HETATM   45  H   UNL     1      -9.602  10.133  70.609  1.00  0.00     0.000 HD 
ENDBRANCH  30  31
ENDBRANCH   8  30
TORSDOF 5
ENDMDL
MODEL      195
REMARK 921   NORMALIZED FREE ENERGY PREDICTED BY IDOCK:    6.26 KCAL/MOL
REMARK 922        TOTAL FREE ENERGY PREDICTED BY IDOCK:    6.85 KCAL/MOL
REMARK 923 INTER-LIGAND FREE ENERGY PREDICTED BY IDOCK:    5.84 KCAL/MOL
REMARK 924 INTRA-LIGAND FREE ENERGY PREDICTED BY IDOCK:    1.01 KCAL/MOL
REMARK 927      BINDING AFFINITY PREDICTED BY RF-SCORE:    0.00 PKD
ROOT
HETATM    1  C   UNL     1      -7.702   9.722  67.657  1.00  0.00    -0.094 C  
HETATM    2  C   UNL     1      -6.664   9.658  68.739  1.00  0.00    -0.051 C  
HETATM    3  O   UNL     1      -6.836   8.335  69.275  1.00  0.00    -0.049 OA 
HETATM    4  C   UNL     1      -8.112   7.894  69.021  1.00  0.00    -0.124 C  
HETATM    5  C   UNL     1      -8.857   8.930  68.231  1.00  0.00    -0.134 C  
HETATM    6  O   UNL     1      -8.580   6.873  69.496  1.00  0.00    -0.132 OA 
HETATM    7  C   UNL     1      -9.875   8.547  67.142  1.00  0.00    -0.269 C  
HETATM    8  C   UNL     1      -8.153  11.070  67.126  1.00  0.00    -0.134 C  
HETATM    9  C   UNL     1     -10.121   9.707  66.166  1.00  0.00    -0.328 A  
HETATM   10  C   UNL     1     -11.158   9.591  65.215  1.00  0.00     3.182 A  
HETATM   11  O   UNL     1     -12.206  10.588  63.252  1.00  0.00     2.468 OA 
HETATM   12  C   UNL     1     -11.300  10.582  64.267  1.00  0.00     1.799 A  
HETATM   13  C   UNL     1      -9.302  10.880  66.153  1.00  0.00    -0.211 A  
HETATM   14  C   UNL     1     -10.481  11.685  64.237  1.00  0.00    -0.331 A  
HETATM   15  C   UNL     1     -11.795  11.767  62.529  1.00  0.00     1.501 C  
HETATM   16  O   UNL     1     -10.753  12.511  63.193  1.00  0.00    -0.305 OA 
HETATM   17  C   UNL     1      -9.494  11.874  65.173  1.00  0.00    -0.059 A  
ENDROOT
BRANCH   7  18
HETATM   18  C   UNL     1      -9.514   7.226  66.465  1.00  0.00    -0.218 A  
HETATM   19  O   UNL     1      -7.664   3.835  64.875  1.00  0.00    -0.079 OA 
HETATM   20  C   UNL     1      -8.599   5.986  64.596  1.00  0.00     0.074 A  
HETATM   21  C   UNL     1      -9.342   6.083  67.261  1.00  0.00    -0.115 A  
HETATM   22  H   UNL     1      -7.381   3.822  63.968  1.00  0.00     0.000 HD 
HETATM   23  C   UNL     1      -9.195   7.138  65.104  1.00  0.00     0.680 A  
HETATM   24  C   UNL     1      -8.336   4.892  65.438  1.00  0.00    -0.125 A  
HETATM   25  C   UNL     1      -8.752   4.911  66.770  1.00  0.00    -0.107 A  
BRANCH  25  26
HETATM   26  O   UNL     1      -8.670   3.952  67.742  1.00  0.00    -0.095 OA 
HETATM   27  C   UNL     1      -9.793   3.605  68.522  1.00  0.00     0.146 C  
ENDBRANCH  25  26
BRANCH  20  28
HETATM   28  O   UNL     1      -8.171   5.882  63.287  1.00  0.00    -0.116 OA 
HETATM   29  C   UNL     1      -8.448   6.995  62.443  1.00  0.00     0.077 C  
ENDBRANCH  20  28
ENDBRANCH   7  18
BRANCH   8  30
HETATM   30  O   UNL     1      -8.324  12.146  68.025  1.00  0.00    -0.150 OA 
BRANCH  30  31
HETATM   31  C   UNL     1      -7.781  13.460  67.866  1.00  0.00    -0.153 C  
HETATM   32  O   UNL     1      -6.858  13.811  68.905  1.00  0.00    -0.101 OA 
HETATM   33  C   UNL     1      -6.568  15.218  68.928  1.00  0.00    -0.108 C  
HETATM   34  C   UNL     1      -5.463  15.602  69.914  1.00  0.00    -0.120 C  
HETATM   35  O   UNL     1      -5.321  17.023  69.971  1.00  0.00    -0.172 OA 
HETATM   36  C   UNL     1      -6.530  17.654  70.383  1.00  0.00     0.790 C  
HETATM   37  C   UNL     1      -6.344  19.165  70.378  1.00  0.00     0.047 C  
HETATM   38  O   UNL     1      -7.586  17.382  69.467  1.00  0.00     0.052 OA 
HETATM   39  C   UNL     1      -7.825  15.981  69.329  1.00  0.00    -0.222 C  
HETATM   40  C   UNL     1      -8.840  15.825  68.211  1.00  0.00    -0.180 C  
HETATM   41  O   UNL     1     -10.088  16.406  68.622  1.00  0.00    -0.223 OA 
HETATM   42  C   UNL     1      -9.050  14.363  67.811  1.00  0.00    -0.192 C  
HETATM   43  H   UNL     1     -10.723  16.309  67.923  1.00  0.00     0.000 HD 
HETATM   44  O   UNL     1      -9.606  14.295  66.474  1.00  0.00    -0.274 OA 
HETATM   45  H   UNL     1     -10.380  14.846  66.440  1.00  0.00     0.000 HD 
ENDBRANCH  30  31
ENDBRANCH   8  30
TORSDOF 5
ENDMDL
MODEL      196
REMARK 921   NORMALIZED FREE ENERGY PREDICTED BY IDOCK:   13.34 KCAL/MOL
REMARK 922        TOTAL FREE ENERGY PREDICTED BY IDOCK:   16.00 KCAL/MOL
REMARK 923 INTER-LIGAND FREE ENERGY PREDICTED BY IDOCK:    6.73 KCAL/MOL
REMARK 924 INTRA-LIGAND FREE ENERGY PREDICTED BY IDOCK:    9.28 KCAL/MOL
REMARK 927      BINDING AFFINITY PREDICTED BY RF-SCORE:    0.00 PKD
ROOT
HETATM    1  C   UNL     1     -10.169   7.984  68.065  1.00  0.00    -0.260 C  
HETATM    2  C   UNL     1      -9.735   8.410  66.693  1.00  0.00    -0.251 C  
HETATM    3  O   UNL     1      -8.306   8.493  66.816  1.00  0.00    -0.106 OA 
HETATM    4  C   UNL     1      -7.964   8.694  68.132  1.00  0.00    -0.107 C  
HETATM    5  C   UNL     1      -9.203   8.706  68.979  1.00  0.00    -0.145 C  
HETATM    6  O   UNL     1      -6.833   8.957  68.503  1.00  0.00    -0.062 OA 
HETATM    7  C   UNL     1      -9.223   8.116  70.400  1.00  0.00    -0.151 C  
HETATM    8  C   UNL     1     -11.610   8.186  68.495  1.00  0.00     1.474 C  
HETATM    9  C   UNL     1     -10.653   7.794  70.859  1.00  0.00    -0.220 A  
HETATM   10  C   UNL     1     -10.871   7.416  72.201  1.00  0.00    -0.273 A  
HETATM   11  O   UNL     1     -12.493   6.568  73.813  1.00  0.00     2.645 OA 
HETATM   12  C   UNL     1     -12.135   7.016  72.580  1.00  0.00     0.011 A  
HETATM   13  C   UNL     1     -11.765   7.814  69.959  1.00  0.00     0.218 A  
HETATM   14  C   UNL     1     -13.188   6.999  71.697  1.00  0.00    -0.307 A  
HETATM   15  C   UNL     1     -13.860   6.175  73.573  1.00  0.00     5.088 C  
HETATM   16  O   UNL     1     -14.331   6.520  72.255  1.00  0.00    -0.151 OA 
HETATM   17  C   UNL     1     -13.043   7.410  70.394  1.00  0.00     0.696 A  
ENDROOT
BRANCH   7  18
HETATM   18  C   UNL     1      -8.242   6.953  70.547  1.00  0.00    -0.120 A  
HETATM   19  O   UNL     1      -6.261   3.379  71.415  1.00  0.00    -0.014 OA 
HETATM   20  C   UNL     1      -6.670   5.662  71.863  1.00  0.00    -0.059 A  
HETATM   21  C   UNL     1      -8.356   5.859  69.676  1.00  0.00    -0.117 A  
HETATM   22  H   UNL     1      -5.711   3.309  72.186  1.00  0.00     0.000 HD 
HETATM   23  C   UNL     1      -7.335   6.860  71.610  1.00  0.00    -0.084 A  
HETATM   24  C   UNL     1      -6.885   4.544  71.038  1.00  0.00    -0.036 A  
HETATM   25  C   UNL     1      -7.693   4.647  69.905  1.00  0.00    -0.058 A  
BRANCH  25  26
HETATM   26  O   UNL     1      -7.986   3.729  68.935  1.00  0.00    -0.059 OA 
HETATM   27  C   UNL     1      -8.005   4.089  67.571  1.00  0.00    -0.091 C  
ENDBRANCH  25  26
BRANCH  20  28
HETATM   28  O   UNL     1      -5.844   5.482  72.954  1.00  0.00    -0.023 OA 
HETATM   29  C   UNL     1      -5.971   6.435  74.004  1.00  0.00    -0.063 C  
ENDBRANCH  20  28
ENDBRANCH   7  18
BRANCH   8  30
HETATM   30  O   UNL     1     -12.284   9.369  68.122  1.00  0.00     2.115 OA 
BRANCH  30  31
HETATM   31  C   UNL     1     -12.034  10.674  68.655  1.00  0.00     0.058 C  
HETATM   32  O   UNL     1     -12.311  11.721  67.716  1.00  0.00    -0.369 OA 
HETATM   33  C   UNL     1     -11.763  12.984  68.127  1.00  0.00    -0.351 C  
HETATM   34  C   UNL     1     -12.181  14.154  67.235  1.00  0.00    -0.279 C  
HETATM   35  O   UNL     1     -11.498  15.346  67.630  1.00  0.00    -0.326 OA 
HETATM   36  C   UNL     1     -10.084  15.195  67.539  1.00  0.00    -0.232 C  
HETATM   37  C   UNL     1      -9.402  16.470  68.018  1.00  0.00    -0.218 C  
HETATM   38  O   UNL     1      -9.626  14.155  68.397  1.00  0.00    -0.217 OA 
HETATM   39  C   UNL     1     -10.241  12.903  68.093  1.00  0.00    -0.239 C  
HETATM   40  C   UNL     1      -9.804  11.933  69.176  1.00  0.00     0.272 C  
HETATM   41  O   UNL     1      -8.386  11.719  69.073  1.00  0.00    -0.364 OA 
HETATM   42  C   UNL     1     -10.541  10.595  69.098  1.00  0.00    -0.226 C  
HETATM   43  H   UNL     1      -8.112  11.113  69.750  1.00  0.00     0.000 HD 
HETATM   44  O   UNL     1     -10.476   9.922  70.379  1.00  0.00    -0.274 OA 
HETATM   45  H   UNL     1      -9.566   9.874  70.649  1.00  0.00     0.000 HD 
ENDBRANCH  30  31
ENDBRANCH   8  30
TORSDOF 5
ENDMDL
MODEL      197
REMARK 921   NORMALIZED FREE ENERGY PREDICTED BY IDOCK:   13.93 KCAL/MOL
REMARK 922        TOTAL FREE ENERGY PREDICTED BY IDOCK:   16.76 KCAL/MOL
REMARK 923 INTER-LIGAND FREE ENERGY PREDICTED BY IDOCK:   12.35 KCAL/MOL
REMARK 924 INTRA-LIGAND FREE ENERGY PREDICTED BY IDOCK:    4.41 KCAL/MOL
REMARK 927      BINDING AFFINITY PREDICTED BY RF-SCORE:    0.00 PKD
ROOT
HETATM    1  C   UNL     1     -10.240  13.549  67.764  1.00  0.00    -0.242 C  
HETATM    2  C   UNL     1      -9.752  14.669  66.892  1.00  0.00    -0.242 C  
HETATM    3  O   UNL     1      -8.412  14.267  66.567  1.00  0.00    -0.008 OA 
HETATM    4  C   UNL     1      -7.938  13.409  67.529  1.00  0.00    -0.183 C  
HETATM    5  C   UNL     1      -9.008  13.157  68.551  1.00  0.00    -0.048 C  
HETATM    6  O   UNL     1      -6.779  13.035  67.590  1.00  0.00    -0.130 OA 
HETATM    7  C   UNL     1      -9.183  11.784  69.225  1.00  0.00     0.569 C  
HETATM    8  C   UNL     1     -11.440  13.766  68.666  1.00  0.00    -0.301 C  
HETATM    9  C   UNL     1     -10.588  11.624  69.825  1.00  0.00     0.373 A  
HETATM   10  C   UNL     1     -10.861  10.501  70.635  1.00  0.00     0.063 A  
HETATM   11  O   UNL     1     -12.587   9.241  71.810  1.00  0.00    -0.332 OA 
HETATM   12  C   UNL     1     -12.152  10.300  71.076  1.00  0.00    -0.386 A  
HETATM   13  C   UNL     1     -11.645  12.548  69.548  1.00  0.00    -0.348 A  
HETATM   14  C   UNL     1     -13.170  11.171  70.769  1.00  0.00     0.177 A  
HETATM   15  C   UNL     1     -14.006   9.498  71.842  1.00  0.00    -0.175 C  
HETATM   16  O   UNL     1     -14.372  10.761  71.252  1.00  0.00     1.471 OA 
HETATM   17  C   UNL     1     -12.947  12.308  70.031  1.00  0.00     0.708 A  
ENDROOT
BRANCH   7  18
HETATM   18  C   UNL     1      -8.763  10.640  68.303  1.00  0.00    -0.135 A  
HETATM   19  O   UNL     1      -8.470   7.612  65.441  1.00  0.00    -0.161 OA 
HETATM   20  C   UNL     1      -8.812   8.301  67.674  1.00  0.00    -0.136 A  
HETATM   21  C   UNL     1      -8.329  10.943  67.004  1.00  0.00    -0.132 A  
HETATM   22  H   UNL     1      -8.671   6.712  65.670  1.00  0.00     0.000 HD 
HETATM   23  C   UNL     1      -8.937   9.293  68.645  1.00  0.00    -0.132 A  
HETATM   24  C   UNL     1      -8.483   8.641  66.351  1.00  0.00    -0.112 A  
HETATM   25  C   UNL     1      -8.188   9.963  66.014  1.00  0.00    -0.119 A  
BRANCH  25  26
HETATM   26  O   UNL     1      -7.783  10.509  64.827  1.00  0.00    -0.109 OA 
HETATM   27  C   UNL     1      -8.648  11.322  64.065  1.00  0.00     0.390 C  
ENDBRANCH  25  26
BRANCH  20  28
HETATM   28  O   UNL     1      -9.072   6.969  67.930  1.00  0.00    -0.128 OA 
HETATM   29  C   UNL     1      -7.940   6.142  68.176  1.00  0.00    -0.107 C  
ENDBRANCH  20  28
ENDBRANCH   7  18
BRANCH   8  30
HETATM   30  O   UNL     1     -11.587  15.000  69.337  1.00  0.00    -0.279 OA 
BRANCH  30  31
HETATM   31  C   UNL     1     -11.387  16.293  68.756  1.00  0.00    -0.329 C  
HETATM   32  O   UNL     1     -11.666  16.321  67.350  1.00  0.00     0.248 OA 
HETATM   33  C   UNL     1     -11.163  17.507  66.716  1.00  0.00     0.612 C  
HETATM   34  C   UNL     1     -11.587  17.649  65.253  1.00  0.00     1.972 C  
HETATM   35  O   UNL     1     -10.947  18.780  64.659  1.00  0.00    -0.043 OA 
HETATM   36  C   UNL     1      -9.528  18.664  64.705  1.00  0.00     4.347 C  
HETATM   37  C   UNL     1      -8.894  19.913  64.109  1.00  0.00     5.803 C  
HETATM   38  O   UNL     1      -9.066  18.590  66.050  1.00  0.00    -0.495 OA 
HETATM   39  C   UNL     1      -9.639  17.485  66.751  1.00  0.00    -0.282 C  
HETATM   40  C   UNL     1      -9.206  17.621  68.199  1.00  0.00    -0.282 C  
HETATM   41  O   UNL     1      -7.781  17.454  68.283  1.00  0.00    -0.221 OA 
HETATM   42  C   UNL     1      -9.906  16.617  69.117  1.00  0.00    -0.244 C  
HETATM   43  H   UNL     1      -7.510  17.539  69.189  1.00  0.00     0.000 HD 
HETATM   44  O   UNL     1      -9.857  17.087  70.487  1.00  0.00     1.461 OA 
HETATM   45  H   UNL     1      -8.954  17.285  70.707  1.00  0.00     0.000 HD 
ENDBRANCH  30  31
ENDBRANCH   8  30
TORSDOF 5
ENDMDL
MODEL      198
REMARK 921   NORMALIZED FREE ENERGY PREDICTED BY IDOCK:   15.30 KCAL/MOL
REMARK 922        TOTAL FREE ENERGY PREDICTED BY IDOCK:   18.53 KCAL/MOL
REMARK 923 INTER-LIGAND FREE ENERGY PREDICTED BY IDOCK:   18.31 KCAL/MOL
REMARK 924 INTRA-LIGAND FREE ENERGY PREDICTED BY IDOCK:    0.22 KCAL/MOL
REMARK 927      BINDING AFFINITY PREDICTED BY RF-SCORE:    0.00 PKD
ROOT
HETATM    1  C   UNL     1      -8.094   9.543  67.535  1.00  0.00    -0.110 C  
HETATM    2  C   UNL     1      -7.029   9.461  68.589  1.00  0.00    -0.065 C  
HETATM    3  O   UNL     1      -7.264   8.177  69.189  1.00  0.00    -0.069 OA 
HETATM    4  C   UNL     1      -8.571   7.805  68.991  1.00  0.00    -0.135 C  
HETATM    5  C   UNL     1      -9.276   8.849  68.176  1.00  0.00    -0.145 C  
HETATM    6  O   UNL     1      -9.086   6.836  69.525  1.00  0.00    -0.141 OA 
HETATM    7  C   UNL     1     -10.348   8.483  67.134  1.00  0.00    -0.377 C  
HETATM    8  C   UNL     1      -8.477  10.892  66.955  1.00  0.00    -0.134 C  
HETATM    9  C   UNL     1     -10.553   9.612  66.113  1.00  0.00     0.015 A  
HETATM   10  C   UNL     1     -11.623   9.519  65.198  1.00  0.00     6.269 A  
HETATM   11  O   UNL     1     -12.668  10.492  63.221  1.00  0.00     2.859 OA 
HETATM   12  C   UNL     1     -11.735  10.475  64.210  1.00  0.00     2.829 A  
HETATM   13  C   UNL     1      -9.665  10.731  66.024  1.00  0.00    -0.264 A  
HETATM   14  C   UNL     1     -10.851  11.522  64.107  1.00  0.00    -0.372 A  
HETATM   15  C   UNL     1     -12.209  11.610  62.434  1.00  0.00     2.070 C  
HETATM   16  O   UNL     1     -11.104  12.317  63.034  1.00  0.00    -0.265 OA 
HETATM   17  C   UNL     1      -9.826  11.690  65.005  1.00  0.00    -0.280 A  
ENDROOT
BRANCH   7  18
HETATM   18  C   UNL     1     -10.088   7.114  66.508  1.00  0.00    -0.154 A  
HETATM   19  O   UNL     1      -9.833   3.730  64.073  1.00  0.00    -0.156 OA 
HETATM   20  C   UNL     1     -10.845   4.908  65.852  1.00  0.00    -0.082 A  
HETATM   21  C   UNL     1      -9.013   6.970  65.619  1.00  0.00     0.027 A  
HETATM   22  H   UNL     1     -10.485   3.042  64.135  1.00  0.00     0.000 HD 
HETATM   23  C   UNL     1     -10.968   6.035  66.663  1.00  0.00    -0.229 A  
HETATM   24  C   UNL     1      -9.823   4.834  64.890  1.00  0.00     0.081 A  
HETATM   25  C   UNL     1      -8.865   5.844  64.799  1.00  0.00     0.167 A  
BRANCH  25  26
HETATM   26  O   UNL     1      -7.759   5.952  64.001  1.00  0.00    -0.089 OA 
HETATM   27  C   UNL     1      -7.846   6.495  62.702  1.00  0.00    -0.104 C  
ENDBRANCH  25  26
BRANCH  20  28
HETATM   28  O   UNL     1     -11.743   3.859  65.890  1.00  0.00     2.783 OA 
HETATM   29  C   UNL     1     -11.432   2.734  65.076  1.00  0.00     3.611 C  
ENDBRANCH  20  28
ENDBRANCH   7  18
BRANCH   8  30
HETATM   30  O   UNL     1      -8.556  12.014  67.809  1.00  0.00    -0.143 OA 
BRANCH  30  31
HETATM   31  C   UNL     1      -7.487  12.923  68.089  1.00  0.00    -0.126 C  
HETATM   32  O   UNL     1      -7.182  13.010  69.487  1.00  0.00     0.158 OA 
HETATM   33  C   UNL     1      -6.352  14.140  69.798  1.00  0.00    -0.141 C  
HETATM   34  C   UNL     1      -5.870  14.169  71.250  1.00  0.00    -0.206 C  
HETATM   35  O   UNL     1      -5.159  15.381  71.512  1.00  0.00    -0.169 OA 
HETATM   36  C   UNL     1      -5.976  16.526  71.287  1.00  0.00     1.087 C  
HETATM   37  C   UNL     1      -5.161  17.789  71.530  1.00  0.00     0.046 C  
HETATM   38  O   UNL     1      -6.406  16.588  69.932  1.00  0.00    -0.206 OA 
HETATM   39  C   UNL     1      -7.138  15.422  69.551  1.00  0.00    -0.200 C  
HETATM   40  C   UNL     1      -7.384  15.536  68.058  1.00  0.00    -0.129 C  
HETATM   41  O   UNL     1      -8.251  16.654  67.806  1.00  0.00    -0.173 OA 
HETATM   42  C   UNL     1      -7.988  14.261  67.464  1.00  0.00    -0.188 C  
HETATM   43  H   UNL     1      -8.405  16.725  66.872  1.00  0.00     0.000 HD 
HETATM   44  O   UNL     1      -7.746  14.222  66.036  1.00  0.00     1.160 OA 
HETATM   45  H   UNL     1      -8.052  15.037  65.655  1.00  0.00     0.000 HD 
ENDBRANCH  30  31
ENDBRANCH   8  30
TORSDOF 5
ENDMDL
MODEL      199
REMARK 921   NORMALIZED FREE ENERGY PREDICTED BY IDOCK:   15.59 KCAL/MOL
REMARK 922        TOTAL FREE ENERGY PREDICTED BY IDOCK:   18.92 KCAL/MOL
REMARK 923 INTER-LIGAND FREE ENERGY PREDICTED BY IDOCK:   18.96 KCAL/MOL
REMARK 924 INTRA-LIGAND FREE ENERGY PREDICTED BY IDOCK:   -0.04 KCAL/MOL
REMARK 927      BINDING AFFINITY PREDICTED BY RF-SCORE:    0.00 PKD
ROOT
HETATM    1  C   UNL     1      -8.139  12.072  69.996  1.00  0.00     2.499 C  
HETATM    2  C   UNL     1      -7.089  11.119  69.504  1.00  0.00    -0.088 C  
HETATM    3  O   UNL     1      -6.351  11.910  68.558  1.00  0.00    -0.051 OA 
HETATM    4  C   UNL     1      -7.143  12.929  68.087  1.00  0.00    -0.108 C  
HETATM    5  C   UNL     1      -8.481  12.883  68.765  1.00  0.00     0.158 C  
HETATM    6  O   UNL     1      -6.827  13.657  67.161  1.00  0.00    -0.138 OA 
HETATM    7  C   UNL     1      -9.253  14.164  69.130  1.00  0.00     0.202 C  
HETATM    8  C   UNL     1      -9.382  11.535  70.680  1.00  0.00     5.278 C  
HETATM    9  C   UNL     1     -10.303  13.900  70.219  1.00  0.00     1.434 A  
HETATM   10  C   UNL     1     -11.222  14.921  70.544  1.00  0.00    -0.243 A  
HETATM   11  O   UNL     1     -12.985  15.627  72.074  1.00  0.00    -0.403 OA 
HETATM   12  C   UNL     1     -12.087  14.722  71.600  1.00  0.00    -0.350 A  
HETATM   13  C   UNL     1     -10.350  12.672  70.952  1.00  0.00     5.644 A  
HETATM   14  C   UNL     1     -12.095  13.555  72.325  1.00  0.00     0.949 A  
HETATM   15  C   UNL     1     -13.483  14.932  73.235  1.00  0.00    -0.128 C  
HETATM   16  O   UNL     1     -12.981  13.585  73.355  1.00  0.00    -0.048 OA 
HETATM   17  C   UNL     1     -11.260  12.510  72.015  1.00  0.00     5.982 A  
ENDROOT
BRANCH   7  18
HETATM   18  C   UNL     1      -8.311  15.327  69.439  1.00  0.00    -0.232 A  
HETATM   19  O   UNL     1      -5.156  18.050  69.723  1.00  0.00    -0.178 OA 
HETATM   20  C   UNL     1      -6.404  16.253  70.612  1.00  0.00     0.692 A  
HETATM   21  C   UNL     1      -8.205  16.376  68.514  1.00  0.00    -0.201 A  
HETATM   22  H   UNL     1      -4.522  17.981  70.426  1.00  0.00     0.000 HD 
HETATM   23  C   UNL     1      -7.434  15.318  70.531  1.00  0.00     0.845 A  
HETATM   24  C   UNL     1      -6.251  17.229  69.612  1.00  0.00    -0.232 A  
HETATM   25  C   UNL     1      -7.183  17.331  68.578  1.00  0.00    -0.224 A  
BRANCH  25  26
HETATM   26  O   UNL     1      -7.277  18.229  67.551  1.00  0.00    -0.202 OA 
HETATM   27  C   UNL     1      -7.742  17.837  66.278  1.00  0.00    -0.273 C  
ENDBRANCH  25  26
BRANCH  20  28
HETATM   28  O   UNL     1      -5.450  16.228  71.610  1.00  0.00     0.157 OA 
HETATM   29  C   UNL     1      -5.632  15.253  72.632  1.00  0.00     0.592 C  
ENDBRANCH  20  28
ENDBRANCH   7  18
BRANCH   8  30
HETATM   30  O   UNL     1      -9.990  10.360  70.187  1.00  0.00    -0.105 OA 
BRANCH  30  31
HETATM   31  C   UNL     1      -9.334   9.103  69.988  1.00  0.00    -0.199 C  
HETATM   32  O   UNL     1     -10.171   8.134  69.344  1.00  0.00    -0.201 OA 
HETATM   33  C   UNL     1      -9.640   6.803  69.438  1.00  0.00    -0.146 C  
HETATM   34  C   UNL     1     -10.420   5.771  68.620  1.00  0.00    -0.229 C  
HETATM   35  O   UNL     1      -9.910   4.458  68.864  1.00  0.00    -0.160 OA 
HETATM   36  C   UNL     1     -10.007   4.105  70.241  1.00  0.00    -0.083 C  
HETATM   37  C   UNL     1      -9.406   2.723  70.457  1.00  0.00    -0.216 C  
HETATM   38  O   UNL     1      -9.248   4.998  71.050  1.00  0.00    -0.139 OA 
HETATM   39  C   UNL     1      -9.672   6.352  70.893  1.00  0.00    -0.176 C  
HETATM   40  C   UNL     1      -8.684   7.206  71.666  1.00  0.00    -0.118 C  
HETATM   41  O   UNL     1      -8.798   6.910  73.067  1.00  0.00    -0.125 OA 
HETATM   42  C   UNL     1      -8.892   8.703  71.429  1.00  0.00    -0.215 C  
HETATM   43  H   UNL     1      -8.179   7.444  73.551  1.00  0.00     0.000 HD 
HETATM   44  O   UNL     1      -7.679   9.426  71.756  1.00  0.00    -0.258 OA 
HETATM   45  H   UNL     1      -7.410   9.183  72.634  1.00  0.00     0.000 HD 
ENDBRANCH  30  31
ENDBRANCH   8  30
TORSDOF 5
ENDMDL
MODEL      200
REMARK 921   NORMALIZED FREE ENERGY PREDICTED BY IDOCK:   17.79 KCAL/MOL
REMARK 922        TOTAL FREE ENERGY PREDICTED BY IDOCK:   21.75 KCAL/MOL
REMARK 923 INTER-LIGAND FREE ENERGY PREDICTED BY IDOCK:   14.99 KCAL/MOL
REMARK 924 INTRA-LIGAND FREE ENERGY PREDICTED BY IDOCK:    6.76 KCAL/MOL
REMARK 927      BINDING AFFINITY PREDICTED BY RF-SCORE:    0.00 PKD
ROOT
HETATM    1  C   UNL     1      -9.950  12.187  68.650  1.00  0.00    -0.137 C  
HETATM    2  C   UNL     1     -10.431  13.225  69.621  1.00  0.00     0.659 C  
HETATM    3  O   UNL     1     -10.750  12.453  70.790  1.00  0.00     2.478 OA 
HETATM    4  C   UNL     1     -11.015  11.154  70.431  1.00  0.00     0.416 C  
HETATM    5  C   UNL     1     -10.830  10.992  68.950  1.00  0.00    -0.262 C  
HETATM    6  O   UNL     1     -11.464  10.318  71.198  1.00  0.00    -0.341 OA 
HETATM    7  C   UNL     1     -10.256   9.701  68.337  1.00  0.00    -0.214 C  
HETATM    8  C   UNL     1      -9.916  12.503  67.167  1.00  0.00    -0.216 C  
HETATM    9  C   UNL     1      -9.707   9.943  66.923  1.00  0.00    -0.236 A  
HETATM   10  C   UNL     1      -9.310   8.833  66.147  1.00  0.00    -0.297 A  
HETATM   11  O   UNL     1      -8.219   8.106  64.090  1.00  0.00    -0.150 OA 
HETATM   12  C   UNL     1      -8.710   9.061  64.926  1.00  0.00    -0.166 A  
HETATM   13  C   UNL     1      -9.536  11.258  66.386  1.00  0.00    -0.223 A  
HETATM   14  C   UNL     1      -8.512  10.329  64.437  1.00  0.00    -0.179 A  
HETATM   15  C   UNL     1      -7.605   8.925  63.074  1.00  0.00    -0.108 C  
HETATM   16  O   UNL     1      -7.856  10.335  63.246  1.00  0.00    -0.151 OA 
HETATM   17  C   UNL     1      -8.930  11.441  65.127  1.00  0.00     0.025 A  
ENDROOT
BRANCH   7  18
HETATM   18  C   UNL     1      -9.272   9.012  69.281  1.00  0.00    -0.145 A  
HETATM   19  O   UNL     1      -5.952   7.405  71.240  1.00  0.00    -0.036 OA 
HETATM   20  C   UNL     1      -7.845   7.140  69.853  1.00  0.00    -0.113 A  
HETATM   21  C   UNL     1      -8.551   9.795  70.195  1.00  0.00    -0.214 A  
HETATM   22  H   UNL     1      -5.695   6.503  71.091  1.00  0.00     0.000 HD 
HETATM   23  C   UNL     1      -8.945   7.655  69.170  1.00  0.00    -0.135 A  
HETATM   24  C   UNL     1      -7.070   7.972  70.679  1.00  0.00    -0.045 A  
HETATM   25  C   UNL     1      -7.447   9.298  70.899  1.00  0.00    -0.102 A  
BRANCH  25  26
HETATM   26  O   UNL     1      -6.896  10.258  71.703  1.00  0.00     0.345 OA 
HETATM   27  C   UNL     1      -6.287  11.407  71.156  1.00  0.00     1.198 C  
ENDBRANCH  25  26
BRANCH  20  28
HETATM   28  O   UNL     1      -7.414   5.837  69.701  1.00  0.00    -0.072 OA 
HETATM   29  C   UNL     1      -6.295   5.447  70.490  1.00  0.00    -0.027 C  
ENDBRANCH  20  28
ENDBRANCH   7  18
BRANCH   8  30
HETATM   30  O   UNL     1     -10.968  13.249  66.594  1.00  0.00    -0.279 OA 
BRANCH  30  31
HETATM   31  C   UNL     1     -11.589  14.398  67.179  1.00  0.00    -0.386 C  
HETATM   32  O   UNL     1     -10.644  15.398  67.581  1.00  0.00    -0.267 OA 
HETATM   33  C   UNL     1     -11.226  16.386  68.447  1.00  0.00    -0.324 C  
HETATM   34  C   UNL     1     -10.292  17.557  68.759  1.00  0.00    -0.358 C  
HETATM   35  O   UNL     1     -10.893  18.427  69.720  1.00  0.00     0.977 OA 
HETATM   36  C   UNL     1     -11.180  17.744  70.938  1.00  0.00     2.582 C  
HETATM   37  C   UNL     1     -11.863  18.698  71.909  1.00  0.00     7.898 C  
HETATM   38  O   UNL     1     -12.096  16.677  70.720  1.00  0.00     0.378 OA 
HETATM   39  C   UNL     1     -11.599  15.732  69.772  1.00  0.00    -0.355 C  
HETATM   40  C   UNL     1     -12.728  14.753  69.505  1.00  0.00     0.133 C  
HETATM   41  O   UNL     1     -13.003  14.011  70.705  1.00  0.00    -0.297 OA 
HETATM   42  C   UNL     1     -12.414  13.793  68.357  1.00  0.00     0.308 C  
HETATM   43  H   UNL     1     -13.710  13.399  70.539  1.00  0.00     0.000 HD 
HETATM   44  O   UNL     1     -13.644  13.245  67.823  1.00  0.00     3.428 OA 
HETATM   45  H   UNL     1     -14.147  12.876  68.541  1.00  0.00     0.000 HD 
ENDBRANCH  30  31
ENDBRANCH   8  30
TORSDOF 5
ENDMDL
MODEL      201
REMARK 921   NORMALIZED FREE ENERGY PREDICTED BY IDOCK:   19.16 KCAL/MOL
REMARK 922        TOTAL FREE ENERGY PREDICTED BY IDOCK:   23.53 KCAL/MOL
REMARK 923 INTER-LIGAND FREE ENERGY PREDICTED BY IDOCK:   24.32 KCAL/MOL
REMARK 924 INTRA-LIGAND FREE ENERGY PREDICTED BY IDOCK:   -0.80 KCAL/MOL
REMARK 927      BINDING AFFINITY PREDICTED BY RF-SCORE:    0.00 PKD
ROOT
HETATM    1  C   UNL     1      -7.996  15.584  70.537  1.00  0.00     1.417 C  
HETATM    2  C   UNL     1      -6.505  15.716  70.421  1.00  0.00     0.172 C  
HETATM    3  O   UNL     1      -6.342  16.539  69.255  1.00  0.00    -0.168 OA 
HETATM    4  C   UNL     1      -7.448  16.426  68.448  1.00  0.00    -0.171 C  
HETATM    5  C   UNL     1      -8.455  15.521  69.096  1.00  0.00    -0.248 C  
HETATM    6  O   UNL     1      -7.514  16.891  67.323  1.00  0.00    -0.149 OA 
HETATM    7  C   UNL     1      -9.970  15.770  68.975  1.00  0.00    -0.234 C  
HETATM    8  C   UNL     1      -8.590  14.462  71.367  1.00  0.00     5.233 C  
HETATM    9  C   UNL     1     -10.751  15.050  70.086  1.00  0.00    -0.183 A  
HETATM   10  C   UNL     1     -12.160  15.022  70.020  1.00  0.00    -0.382 A  
HETATM   11  O   UNL     1     -14.215  14.429  71.192  1.00  0.00    -0.256 OA 
HETATM   12  C   UNL     1     -12.861  14.477  71.076  1.00  0.00    -0.350 A  
HETATM   13  C   UNL     1     -10.100  14.452  71.211  1.00  0.00     3.017 A  
HETATM   14  C   UNL     1     -12.228  13.943  72.172  1.00  0.00     0.202 A  
HETATM   15  C   UNL     1     -14.355  13.897  72.525  1.00  0.00    -0.130 C  
HETATM   16  O   UNL     1     -13.099  13.512  73.121  1.00  0.00    -0.374 OA 
HETATM   17  C   UNL     1     -10.858  13.896  72.261  1.00  0.00     4.472 A  
ENDROOT
BRANCH   7  18
HETATM   18  C   UNL     1     -10.293  17.257  68.847  1.00  0.00    -0.352 A  
HETATM   19  O   UNL     1     -10.318  21.376  68.153  1.00  0.00     0.709 OA 
HETATM   20  C   UNL     1     -10.093  19.543  69.625  1.00  0.00     0.141 A  
HETATM   21  C   UNL     1     -10.698  17.755  67.599  1.00  0.00    -0.330 A  
HETATM   22  H   UNL     1     -10.076  21.982  68.844  1.00  0.00     0.000 HD 
HETATM   23  C   UNL     1     -10.056  18.173  69.879  1.00  0.00     0.786 A  
HETATM   24  C   UNL     1     -10.394  20.017  68.336  1.00  0.00    -0.330 A  
HETATM   25  C   UNL     1     -10.750  19.127  67.322  1.00  0.00    -0.488 A  
BRANCH  25  26
HETATM   26  O   UNL     1     -11.144  19.359  66.033  1.00  0.00    -0.210 OA 
HETATM   27  C   UNL     1     -11.011  18.367  65.039  1.00  0.00     1.305 C  
ENDBRANCH  25  26
BRANCH  20  28
HETATM   28  O   UNL     1      -9.768  20.488  70.577  1.00  0.00     0.801 OA 
HETATM   29  C   UNL     1      -8.496  20.343  71.200  1.00  0.00     2.080 C  
ENDBRANCH  20  28
ENDBRANCH   7  18
BRANCH   8  30
HETATM   30  O   UNL     1      -7.994  13.183  71.329  1.00  0.00     6.235 OA 
BRANCH  30  31
HETATM   31  C   UNL     1      -7.002  12.754  70.391  1.00  0.00     1.516 C  
HETATM   32  O   UNL     1      -7.515  12.622  69.059  1.00  0.00    -0.034 OA 
HETATM   33  C   UNL     1      -6.625  11.894  68.198  1.00  0.00    -0.057 C  
HETATM   34  C   UNL     1      -7.063  11.879  66.732  1.00  0.00    -0.003 C  
HETATM   35  O   UNL     1      -6.201  11.034  65.966  1.00  0.00    -0.129 OA 
HETATM   36  C   UNL     1      -6.213   9.695  66.452  1.00  0.00    -0.068 C  
HETATM   37  C   UNL     1      -5.244   8.848  65.639  1.00  0.00    -0.037 C  
HETATM   38  O   UNL     1      -5.755   9.637  67.799  1.00  0.00    -0.040 OA 
HETATM   39  C   UNL     1      -6.549  10.446  68.668  1.00  0.00    -0.052 C  
HETATM   40  C   UNL     1      -5.859  10.432  70.020  1.00  0.00    -0.062 C  
HETATM   41  O   UNL     1      -5.904   9.101  70.559  1.00  0.00    -0.033 OA 
HETATM   42  C   UNL     1      -6.485  11.418  71.008  1.00  0.00     1.260 C  
HETATM   43  H   UNL     1      -5.473   9.092  71.405  1.00  0.00     0.000 HD 
HETATM   44  O   UNL     1      -5.537  11.732  72.057  1.00  0.00    -0.150 OA 
HETATM   45  H   UNL     1      -5.222  10.918  72.433  1.00  0.00     0.000 HD 
ENDBRANCH  30  31
ENDBRANCH   8  30
TORSDOF 5
ENDMDL
MODEL      202
REMARK 921   NORMALIZED FREE ENERGY PREDICTED BY IDOCK:   22.87 KCAL/MOL
REMARK 922        TOTAL FREE ENERGY PREDICTED BY IDOCK:   28.32 KCAL/MOL
REMARK 923 INTER-LIGAND FREE ENERGY PREDICTED BY IDOCK:   29.03 KCAL/MOL
REMARK 924 INTRA-LIGAND FREE ENERGY PREDICTED BY IDOCK:   -0.71 KCAL/MOL
REMARK 927      BINDING AFFINITY PREDICTED BY RF-SCORE:    0.00 PKD
ROOT
HETATM    1  C   UNL     1      -8.048   9.931  69.608  1.00  0.00    -0.171 C  
HETATM    2  C   UNL     1      -6.918  10.848  69.976  1.00  0.00    -0.029 C  
HETATM    3  O   UNL     1      -5.806  10.300  69.250  1.00  0.00    -0.038 OA 
HETATM    4  C   UNL     1      -6.033   8.970  68.988  1.00  0.00    -0.043 C  
HETATM    5  C   UNL     1      -7.383   8.576  69.512  1.00  0.00    -0.065 C  
HETATM    6  O   UNL     1      -5.191   8.220  68.524  1.00  0.00    -0.031 OA 
HETATM    7  C   UNL     1      -8.276   7.560  68.777  1.00  0.00    -0.129 C  
HETATM    8  C   UNL     1      -9.294   9.888  70.474  1.00  0.00     0.095 C  
HETATM    9  C   UNL     1      -9.747   7.690  69.201  1.00  0.00    -0.164 A  
HETATM   10  C   UNL     1     -10.672   6.719  68.762  1.00  0.00    -0.280 A  
HETATM   11  O   UNL     1     -13.026   6.093  68.646  1.00  0.00     6.084 OA 
HETATM   12  C   UNL     1     -12.009   6.902  69.048  1.00  0.00     0.979 A  
HETATM   13  C   UNL     1     -10.220   8.790  69.984  1.00  0.00    -0.208 A  
HETATM   14  C   UNL     1     -12.459   7.984  69.764  1.00  0.00     1.807 A  
HETATM   15  C   UNL     1     -14.168   6.845  69.106  1.00  0.00    12.492 C  
HETATM   16  O   UNL     1     -13.812   8.005  69.886  1.00  0.00     2.641 OA 
HETATM   17  C   UNL     1     -11.595   8.928  70.262  1.00  0.00    -0.049 A  
ENDROOT
BRANCH   7  18
HETATM   18  C   UNL     1      -8.056   7.598  67.265  1.00  0.00    -0.119 A  
HETATM   19  O   UNL     1      -8.216   7.175  63.113  1.00  0.00    -0.305 OA 
HETATM   20  C   UNL     1      -7.316   6.557  65.207  1.00  0.00    -0.077 A  
HETATM   21  C   UNL     1      -8.798   8.507  66.497  1.00  0.00    -0.165 A  
HETATM   22  H   UNL     1      -7.732   6.482  62.681  1.00  0.00     0.000 HD 
HETATM   23  C   UNL     1      -7.259   6.661  66.596  1.00  0.00    -0.073 A  
HETATM   24  C   UNL     1      -8.152   7.408  64.465  1.00  0.00    -0.079 A  
HETATM   25  C   UNL     1      -8.864   8.427  65.100  1.00  0.00    -0.031 A  
BRANCH  25  26
HETATM   26  O   UNL     1      -9.672   9.403  64.584  1.00  0.00    -0.013 OA 
HETATM   27  C   UNL     1      -9.664  10.711  65.111  1.00  0.00    -0.271 C  
ENDBRANCH  25  26
BRANCH  20  28
HETATM   28  O   UNL     1      -6.632   5.586  64.502  1.00  0.00    -0.040 OA 
HETATM   29  C   UNL     1      -6.743   4.254  64.995  1.00  0.00    -0.048 C  
ENDBRANCH  20  28
ENDBRANCH   7  18
BRANCH   8  30
HETATM   30  O   UNL     1      -9.163   9.954  71.878  1.00  0.00     1.177 OA 
BRANCH  30  31
HETATM   31  C   UNL     1      -8.584   8.943  72.709  1.00  0.00     0.483 C  
HETATM   32  O   UNL     1      -7.843   7.967  71.965  1.00  0.00    -0.089 OA 
HETATM   33  C   UNL     1      -7.544   6.797  72.743  1.00  0.00    -0.091 C  
HETATM   34  C   UNL     1      -6.613   5.810  72.035  1.00  0.00    -0.058 C  
HETATM   35  O   UNL     1      -6.465   4.622  72.815  1.00  0.00    -0.035 OA 
HETATM   36  C   UNL     1      -7.718   3.980  73.034  1.00  0.00    -0.080 C  
HETATM   37  C   UNL     1      -7.515   2.751  73.910  1.00  0.00    -0.046 C  
HETATM   38  O   UNL     1      -8.610   4.830  73.747  1.00  0.00    -0.104 OA 
HETATM   39  C   UNL     1      -8.840   6.059  73.057  1.00  0.00    -0.121 C  
HETATM   40  C   UNL     1      -9.657   6.933  73.991  1.00  0.00    -0.266 C  
HETATM   41  O   UNL     1     -10.948   6.335  74.187  1.00  0.00    -0.328 OA 
HETATM   42  C   UNL     1      -9.815   8.362  73.469  1.00  0.00     0.637 C  
HETATM   43  H   UNL     1     -11.460   6.881  74.772  1.00  0.00     0.000 HD 
HETATM   44  O   UNL     1     -10.143   9.252  74.565  1.00  0.00     6.281 OA 
HETATM   45  H   UNL     1     -10.893   8.898  75.028  1.00  0.00     0.000 HD 
ENDBRANCH  30  31
ENDBRANCH   8  30
TORSDOF 5
ENDMDL
MODEL      203
REMARK 921   NORMALIZED FREE ENERGY PREDICTED BY IDOCK:   25.48 KCAL/MOL
REMARK 922        TOTAL FREE ENERGY PREDICTED BY IDOCK:   31.70 KCAL/MOL
REMARK 923 INTER-LIGAND FREE ENERGY PREDICTED BY IDOCK:   32.06 KCAL/MOL
REMARK 924 INTRA-LIGAND FREE ENERGY PREDICTED BY IDOCK:   -0.36 KCAL/MOL
REMARK 927      BINDING AFFINITY PREDICTED BY RF-SCORE:    0.00 PKD
ROOT
HETATM    1  C   UNL     1     -11.002  11.915  64.623  1.00  0.00    -0.370 C  
HETATM    2  C   UNL     1     -12.057  11.475  63.651  1.00  0.00    -0.069 C  
HETATM    3  O   UNL     1     -13.182  11.191  64.499  1.00  0.00     1.515 OA 
HETATM    4  C   UNL     1     -12.745  10.905  65.769  1.00  0.00     5.782 C  
HETATM    5  C   UNL     1     -11.251  11.039  65.831  1.00  0.00     0.071 C  
HETATM    6  O   UNL     1     -13.469  10.477  66.653  1.00  0.00    10.931 OA 
HETATM    7  C   UNL     1     -10.534  11.583  67.080  1.00  0.00    -0.263 C  
HETATM    8  C   UNL     1      -9.543  11.902  64.207  1.00  0.00    -0.020 C  
HETATM    9  C   UNL     1      -9.121  12.085  66.746  1.00  0.00    -0.197 A  
HETATM   10  C   UNL     1      -8.258  12.448  67.802  1.00  0.00    -0.163 A  
HETATM   11  O   UNL     1      -6.121  13.464  68.393  1.00  0.00    -0.077 OA 
HETATM   12  C   UNL     1      -7.035  13.008  67.495  1.00  0.00    -0.151 A  
HETATM   13  C   UNL     1      -8.668  12.246  65.398  1.00  0.00     0.825 A  
HETATM   14  C   UNL     1      -6.626  13.197  66.198  1.00  0.00     3.899 A  
HETATM   15  C   UNL     1      -5.142  14.048  67.510  1.00  0.00     0.230 C  
HETATM   16  O   UNL     1      -5.417  13.812  66.115  1.00  0.00     3.390 OA 
HETATM   17  C   UNL     1      -7.404  12.810  65.134  1.00  0.00     6.288 A  
ENDROOT
BRANCH   7  18
HETATM   18  C   UNL     1     -11.395  12.594  67.835  1.00  0.00    -0.337 A  
HETATM   19  O   UNL     1     -13.042  15.355  70.502  1.00  0.00    -0.631 OA 
HETATM   20  C   UNL     1     -12.898  13.157  69.649  1.00  0.00     0.713 A  
HETATM   21  C   UNL     1     -11.118  13.961  67.688  1.00  0.00    -0.295 A  
HETATM   22  H   UNL     1     -13.625  15.067  71.193  1.00  0.00     0.000 HD 
HETATM   23  C   UNL     1     -12.348  12.211  68.787  1.00  0.00     0.256 A  
HETATM   24  C   UNL     1     -12.521  14.508  69.554  1.00  0.00    -0.125 A  
HETATM   25  C   UNL     1     -11.664  14.932  68.537  1.00  0.00    -0.310 A  
BRANCH  25  26
HETATM   26  O   UNL     1     -11.221  16.184  68.211  1.00  0.00    -0.352 OA 
HETATM   27  C   UNL     1     -11.899  16.972  67.257  1.00  0.00     1.535 C  
ENDBRANCH  25  26
BRANCH  20  28
HETATM   28  O   UNL     1     -13.763  12.822  70.672  1.00  0.00     0.998 OA 
HETATM   29  C   UNL     1     -13.220  12.029  71.722  1.00  0.00    -0.317 C  
ENDBRANCH  20  28
ENDBRANCH   7  18
BRANCH   8  30
HETATM   30  O   UNL     1      -9.059  10.835  63.419  1.00  0.00    -0.202 OA 
BRANCH  30  31
HETATM   31  C   UNL     1      -8.724   9.529  63.900  1.00  0.00    -0.216 C  
HETATM   32  O   UNL     1      -9.708   8.996  64.796  1.00  0.00     0.293 OA 
HETATM   33  C   UNL     1      -9.228   7.852  65.519  1.00  0.00     0.211 C  
HETATM   34  C   UNL     1     -10.303   7.159  66.358  1.00  0.00     0.131 C  
HETATM   35  O   UNL     1      -9.724   6.114  67.141  1.00  0.00    -0.124 OA 
HETATM   36  C   UNL     1      -8.721   6.613  68.021  1.00  0.00    -0.117 C  
HETATM   37  C   UNL     1      -8.100   5.458  68.795  1.00  0.00    -0.087 C  
HETATM   38  O   UNL     1      -7.658   7.218  67.293  1.00  0.00    -0.100 OA 
HETATM   39  C   UNL     1      -8.118   8.289  66.468  1.00  0.00    -0.105 C  
HETATM   40  C   UNL     1      -6.933   8.727  65.627  1.00  0.00    -0.079 C  
HETATM   41  O   UNL     1      -5.926   9.286  66.486  1.00  0.00    -0.057 OA 
HETATM   42  C   UNL     1      -7.322   9.739  64.548  1.00  0.00    -0.135 C  
HETATM   43  H   UNL     1      -5.184   9.559  65.960  1.00  0.00     0.000 HD 
HETATM   44  O   UNL     1      -6.324   9.745  63.497  1.00  0.00    -0.104 OA 
HETATM   45  H   UNL     1      -5.469   9.873  63.892  1.00  0.00     0.000 HD 
ENDBRANCH  30  31
ENDBRANCH   8  30
TORSDOF 5
ENDMDL
MODEL      204
REMARK 921   NORMALIZED FREE ENERGY PREDICTED BY IDOCK:   28.32 KCAL/MOL
REMARK 922        TOTAL FREE ENERGY PREDICTED BY IDOCK:   35.37 KCAL/MOL
REMARK 923 INTER-LIGAND FREE ENERGY PREDICTED BY IDOCK:   30.71 KCAL/MOL
REMARK 924 INTRA-LIGAND FREE ENERGY PREDICTED BY IDOCK:    4.66 KCAL/MOL
REMARK 927      BINDING AFFINITY PREDICTED BY RF-SCORE:    0.00 PKD
ROOT
HETATM    1  C   UNL     1     -11.128  14.268  70.134  1.00  0.00    -0.014 C  
HETATM    2  C   UNL     1     -11.550  13.936  71.535  1.00  0.00     0.920 C  
HETATM    3  O   UNL     1     -11.109  15.078  72.286  1.00  0.00    -0.192 OA 
HETATM    4  C   UNL     1     -10.079  15.700  71.624  1.00  0.00     2.157 C  
HETATM    5  C   UNL     1      -9.814  14.994  70.327  1.00  0.00     0.307 C  
HETATM    6  O   UNL     1      -9.411  16.600  72.105  1.00  0.00     7.438 OA 
HETATM    7  C   UNL     1      -9.398  15.755  69.055  1.00  0.00    -0.244 C  
HETATM    8  C   UNL     1     -11.016  13.164  69.099  1.00  0.00    -0.145 C  
HETATM    9  C   UNL     1      -9.665  14.929  67.788  1.00  0.00    -0.212 A  
HETATM   10  C   UNL     1      -9.178  15.400  66.550  1.00  0.00    -0.323 A  
HETATM   11  O   UNL     1      -9.182  15.074  64.133  1.00  0.00     3.088 OA 
HETATM   12  C   UNL     1      -9.519  14.717  65.402  1.00  0.00     0.173 A  
HETATM   13  C   UNL     1     -10.437  13.723  67.813  1.00  0.00    -0.240 A  
HETATM   14  C   UNL     1     -10.296  13.584  65.431  1.00  0.00    -0.319 A  
HETATM   15  C   UNL     1      -9.917  14.095  63.371  1.00  0.00     5.291 C  
HETATM   16  O   UNL     1     -10.561  13.099  64.190  1.00  0.00    -0.414 OA 
HETATM   17  C   UNL     1     -10.749  13.052  66.614  1.00  0.00    -0.285 A  
ENDROOT
BRANCH   7  18
HETATM   18  C   UNL     1      -9.986  17.165  69.018  1.00  0.00    -0.273 A  
HETATM   19  O   UNL     1     -10.731  21.273  69.132  1.00  0.00     0.707 OA 
HETATM   20  C   UNL     1     -10.819  19.141  70.144  1.00  0.00     2.375 A  
HETATM   21  C   UNL     1      -9.810  17.941  67.863  1.00  0.00    -0.309 A  
HETATM   22  H   UNL     1     -11.045  21.683  69.929  1.00  0.00     0.000 HD 
HETATM   23  C   UNL     1     -10.560  17.772  70.142  1.00  0.00     1.128 A  
HETATM   24  C   UNL     1     -10.531  19.920  69.010  1.00  0.00     0.042 A  
HETATM   25  C   UNL     1     -10.070  19.317  67.839  1.00  0.00    -0.395 A  
BRANCH  25  26
HETATM   26  O   UNL     1      -9.794  19.853  66.612  1.00  0.00    -0.372 OA 
HETATM   27  C   UNL     1     -10.814  20.064  65.661  1.00  0.00    -0.128 C  
ENDBRANCH  25  26
BRANCH  20  28
HETATM   28  O   UNL     1     -11.288  19.811  71.258  1.00  0.00     4.795 OA 
HETATM   29  C   UNL     1     -10.335  20.074  72.282  1.00  0.00     4.024 C  
ENDBRANCH  20  28
ENDBRANCH   7  18
BRANCH   8  30
HETATM   30  O   UNL     1     -10.486  11.912  69.479  1.00  0.00     0.090 OA 
BRANCH  30  31
HETATM   31  C   UNL     1      -9.767  11.017  68.624  1.00  0.00    -0.195 C  
HETATM   32  O   UNL     1      -8.832  11.692  67.772  1.00  0.00    -0.149 OA 
HETATM   33  C   UNL     1      -8.357  10.853  66.707  1.00  0.00    -0.138 C  
HETATM   34  C   UNL     1      -7.236  11.484  65.881  1.00  0.00     0.481 C  
HETATM   35  O   UNL     1      -6.906  10.647  64.770  1.00  0.00    -0.006 OA 
HETATM   36  C   UNL     1      -8.029  10.440  63.919  1.00  0.00    -0.075 C  
HETATM   37  C   UNL     1      -7.643   9.503  62.783  1.00  0.00    -0.111 C  
HETATM   38  O   UNL     1      -9.089   9.796  64.619  1.00  0.00    -0.216 OA 
HETATM   39  C   UNL     1      -9.510  10.548  65.758  1.00  0.00    -0.201 C  
HETATM   40  C   UNL     1     -10.509   9.681  66.502  1.00  0.00    -0.143 C  
HETATM   41  O   UNL     1     -11.678   9.500  65.686  1.00  0.00     3.404 OA 
HETATM   42  C   UNL     1     -10.903  10.272  67.857  1.00  0.00    -0.284 C  
HETATM   43  H   UNL     1     -12.302   8.958  66.152  1.00  0.00     0.000 HD 
HETATM   44  O   UNL     1     -11.430   9.229  68.714  1.00  0.00    -0.330 OA 
HETATM   45  H   UNL     1     -12.122   8.775  68.247  1.00  0.00     0.000 HD 
ENDBRANCH  30  31
ENDBRANCH   8  30
TORSDOF 5
ENDMDL
MODEL      205
REMARK 921   NORMALIZED FREE ENERGY PREDICTED BY IDOCK:   29.46 KCAL/MOL
REMARK 922        TOTAL FREE ENERGY PREDICTED BY IDOCK:   36.84 KCAL/MOL
REMARK 923 INTER-LIGAND FREE ENERGY PREDICTED BY IDOCK:   31.59 KCAL/MOL
REMARK 924 INTRA-LIGAND FREE ENERGY PREDICTED BY IDOCK:    5.25 KCAL/MOL
REMARK 927      BINDING AFFINITY PREDICTED BY RF-SCORE:    0.00 PKD
ROOT
HETATM    1  C   UNL     1      -9.423   7.691  69.675  1.00  0.00    -0.156 C  
HETATM    2  C   UNL     1      -8.762   6.411  69.254  1.00  0.00    -0.125 C  
HETATM    3  O   UNL     1      -7.661   6.864  68.450  1.00  0.00    -0.111 OA 
HETATM    4  C   UNL     1      -7.935   8.114  67.950  1.00  0.00    -0.127 C  
HETATM    5  C   UNL     1      -9.265   8.583  68.463  1.00  0.00    -0.135 C  
HETATM    6  O   UNL     1      -7.246   8.672  67.112  1.00  0.00    -0.075 OA 
HETATM    7  C   UNL     1      -9.530  10.059  68.809  1.00  0.00    -0.162 C  
HETATM    8  C   UNL     1     -10.855   7.670  70.176  1.00  0.00    -0.248 C  
HETATM    9  C   UNL     1     -10.735  10.212  69.750  1.00  0.00    -0.317 A  
HETATM   10  C   UNL     1     -11.228  11.505  70.024  1.00  0.00    -0.108 A  
HETATM   11  O   UNL     1     -12.772  12.824  71.376  1.00  0.00    -0.351 OA 
HETATM   12  C   UNL     1     -12.233  11.646  70.958  1.00  0.00    -0.231 A  
HETATM   13  C   UNL     1     -11.342   9.090  70.399  1.00  0.00    -0.242 A  
HETATM   14  C   UNL     1     -12.781  10.567  71.607  1.00  0.00    -0.445 A  
HETATM   15  C   UNL     1     -13.645  12.364  72.427  1.00  0.00    -0.157 C  
HETATM   16  O   UNL     1     -13.715  10.927  72.526  1.00  0.00     0.103 OA 
HETATM   17  C   UNL     1     -12.376   9.282  71.337  1.00  0.00    -0.421 A  
ENDROOT
BRANCH   7  18
HETATM   18  C   UNL     1      -8.265  10.765  69.295  1.00  0.00    -0.087 A  
HETATM   19  O   UNL     1      -5.316  13.462  70.512  1.00  0.00    -0.111 OA 
HETATM   20  C   UNL     1      -6.268  12.066  68.861  1.00  0.00    -0.072 A  
HETATM   21  C   UNL     1      -8.179  11.148  70.641  1.00  0.00     3.618 A  
HETATM   22  H   UNL     1      -4.685  13.799  69.888  1.00  0.00     0.000 HD 
HETATM   23  C   UNL     1      -7.253  11.184  68.422  1.00  0.00    -0.083 A  
HETATM   24  C   UNL     1      -6.267  12.524  70.190  1.00  0.00    -0.032 A  
HETATM   25  C   UNL     1      -7.194  12.029  71.108  1.00  0.00     5.066 A  
BRANCH  25  26
HETATM   26  O   UNL     1      -7.338  12.271  72.446  1.00  0.00     8.745 OA 
HETATM   27  C   UNL     1      -7.498  13.584  72.937  1.00  0.00     8.181 C  
ENDBRANCH  25  26
BRANCH  20  28
HETATM   28  O   UNL     1      -5.307  12.592  68.020  1.00  0.00    -0.063 OA 
HETATM   29  C   UNL     1      -5.510  13.935  67.593  1.00  0.00     0.046 C  
ENDBRANCH  20  28
ENDBRANCH   7  18
BRANCH   8  30
HETATM   30  O   UNL     1     -11.795   6.825  69.547  1.00  0.00    -0.133 OA 
BRANCH  30  31
HETATM   31  C   UNL     1     -11.487   5.634  68.817  1.00  0.00     1.048 C  
HETATM   32  O   UNL     1     -10.190   5.108  69.129  1.00  0.00    -0.211 OA 
HETATM   33  C   UNL     1      -9.755   4.122  68.180  1.00  0.00    -0.088 C  
HETATM   34  C   UNL     1      -8.453   3.422  68.574  1.00  0.00    -0.083 C  
HETATM   35  O   UNL     1      -8.021   2.552  67.526  1.00  0.00    -0.067 OA 
HETATM   36  C   UNL     1      -7.799   3.264  66.312  1.00  0.00    -0.078 C  
HETATM   37  C   UNL     1      -7.391   2.289  65.216  1.00  0.00    -0.062 C  
HETATM   38  O   UNL     1      -8.995   3.889  65.861  1.00  0.00    -0.121 OA 
HETATM   39  C   UNL     1      -9.524   4.794  66.831  1.00  0.00    -0.155 C  
HETATM   40  C   UNL     1     -10.870   5.254  66.304  1.00  0.00    -0.112 C  
HETATM   41  O   UNL     1     -10.671   6.022  65.107  1.00  0.00     1.301 OA 
HETATM   42  C   UNL     1     -11.652   6.077  67.331  1.00  0.00     1.083 C  
HETATM   43  H   UNL     1     -11.514   6.310  64.777  1.00  0.00     0.000 HD 
HETATM   44  O   UNL     1     -13.062   6.064  67.000  1.00  0.00     7.369 OA 
HETATM   45  H   UNL     1     -13.163   6.334  66.094  1.00  0.00     0.000 HD 
ENDBRANCH  30  31
ENDBRANCH   8  30
TORSDOF 5
ENDMDL
MODEL      206
REMARK 921   NORMALIZED FREE ENERGY PREDICTED BY IDOCK:   30.68 KCAL/MOL
REMARK 922        TOTAL FREE ENERGY PREDICTED BY IDOCK:   38.41 KCAL/MOL
REMARK 923 INTER-LIGAND FREE ENERGY PREDICTED BY IDOCK:   37.06 KCAL/MOL
REMARK 924 INTRA-LIGAND FREE ENERGY PREDICTED BY IDOCK:    1.36 KCAL/MOL
REMARK 927      BINDING AFFINITY PREDICTED BY RF-SCORE:    0.00 PKD
ROOT
HETATM    1  C   UNL     1     -11.049   7.948  67.792  1.00  0.00     0.228 C  
HETATM    2  C   UNL     1     -12.350   8.521  68.275  1.00  0.00     5.396 C  
HETATM    3  O   UNL     1     -12.218   9.921  67.976  1.00  0.00     1.226 OA 
HETATM    4  C   UNL     1     -10.888  10.257  67.905  1.00  0.00    -0.284 C  
HETATM    5  C   UNL     1     -10.046   9.033  68.116  1.00  0.00    -0.229 C  
HETATM    6  O   UNL     1     -10.485  11.405  67.821  1.00  0.00    -0.177 OA 
HETATM    7  C   UNL     1      -8.720   8.818  67.365  1.00  0.00    -0.132 C  
HETATM    8  C   UNL     1     -10.594   6.590  68.292  1.00  0.00    -0.249 C  
HETATM    9  C   UNL     1      -8.308   7.338  67.357  1.00  0.00    -0.119 A  
HETATM   10  C   UNL     1      -7.031   6.987  66.870  1.00  0.00    -0.070 A  
HETATM   11  O   UNL     1      -5.550   5.150  66.251  1.00  0.00    -0.016 OA 
HETATM   12  C   UNL     1      -6.710   5.651  66.756  1.00  0.00    -0.058 A  
HETATM   13  C   UNL     1      -9.196   6.298  67.779  1.00  0.00    -0.115 A  
HETATM   14  C   UNL     1      -7.585   4.658  67.125  1.00  0.00    -0.086 A  
HETATM   15  C   UNL     1      -5.840   3.738  66.254  1.00  0.00    -0.023 C  
HETATM   16  O   UNL     1      -7.098   3.413  66.880  1.00  0.00    -0.057 OA 
HETATM   17  C   UNL     1      -8.819   4.945  67.656  1.00  0.00    -0.107 A  
ENDROOT
BRANCH   7  18
HETATM   18  C   UNL     1      -8.737   9.470  65.983  1.00  0.00    -0.166 A  
HETATM   19  O   UNL     1      -8.906  12.032  62.689  1.00  0.00    -0.429 OA 
HETATM   20  C   UNL     1      -9.933  10.465  64.127  1.00  0.00    -0.267 A  
HETATM   21  C   UNL     1      -7.566  10.078  65.508  1.00  0.00    -0.136 A  
HETATM   22  H   UNL     1      -9.729  12.186  62.241  1.00  0.00     0.000 HD 
HETATM   23  C   UNL     1      -9.911   9.620  65.235  1.00  0.00    -0.159 A  
HETATM   24  C   UNL     1      -8.771  11.152  63.734  1.00  0.00     0.157 A  
HETATM   25  C   UNL     1      -7.562  10.925  64.392  1.00  0.00     0.475 A  
BRANCH  25  26
HETATM   26  O   UNL     1      -6.309  11.417  64.147  1.00  0.00     1.053 OA 
HETATM   27  C   UNL     1      -5.283  11.316  65.109  1.00  0.00     0.394 C  
ENDBRANCH  25  26
BRANCH  20  28
HETATM   28  O   UNL     1     -11.085  10.731  63.414  1.00  0.00     0.189 OA 
HETATM   29  C   UNL     1     -12.309  10.631  64.134  1.00  0.00     3.785 C  
ENDBRANCH  20  28
ENDBRANCH   7  18
BRANCH   8  30
HETATM   30  O   UNL     1     -10.799   6.248  69.647  1.00  0.00    -0.265 OA 
BRANCH  30  31
HETATM   31  C   UNL     1     -10.610   7.121  70.765  1.00  0.00    -0.222 C  
HETATM   32  O   UNL     1     -10.106   8.409  70.387  1.00  0.00    -0.184 OA 
HETATM   33  C   UNL     1      -9.617   9.157  71.511  1.00  0.00    -0.208 C  
HETATM   34  C   UNL     1      -9.227  10.596  71.169  1.00  0.00     4.204 C  
HETATM   35  O   UNL     1      -8.635  11.233  72.303  1.00  0.00    12.041 OA 
HETATM   36  C   UNL     1      -7.467  10.543  72.740  1.00  0.00     6.744 C  
HETATM   37  C   UNL     1      -6.903  11.227  73.978  1.00  0.00     5.700 C  
HETATM   38  O   UNL     1      -7.778   9.210  73.132  1.00  0.00    -0.058 OA 
HETATM   39  C   UNL     1      -8.377   8.468  72.069  1.00  0.00    -0.145 C  
HETATM   40  C   UNL     1      -8.812   7.140  72.662  1.00  0.00    -0.122 C  
HETATM   41  O   UNL     1      -7.648   6.398  73.063  1.00  0.00    -0.094 OA 
HETATM   42  C   UNL     1      -9.652   6.310  71.689  1.00  0.00    -0.154 C  
HETATM   43  H   UNL     1      -7.919   5.568  73.434  1.00  0.00     0.000 HD 
HETATM   44  O   UNL     1     -10.434   5.336  72.423  1.00  0.00    -0.201 OA 
HETATM   45  H   UNL     1      -9.850   4.841  72.986  1.00  0.00     0.000 HD 
ENDBRANCH  30  31
ENDBRANCH   8  30
TORSDOF 5
ENDMDL
MODEL      207
REMARK 921   NORMALIZED FREE ENERGY PREDICTED BY IDOCK:   31.21 KCAL/MOL
REMARK 922        TOTAL FREE ENERGY PREDICTED BY IDOCK:   39.10 KCAL/MOL
REMARK 923 INTER-LIGAND FREE ENERGY PREDICTED BY IDOCK:   26.32 KCAL/MOL
REMARK 924 INTRA-LIGAND FREE ENERGY PREDICTED BY IDOCK:   12.78 KCAL/MOL
REMARK 927      BINDING AFFINITY PREDICTED BY RF-SCORE:    0.00 PKD
ROOT
HETATM    1  C   UNL     1      -7.580  12.720  69.753  1.00  0.00     1.200 C  
HETATM    2  C   UNL     1      -6.750  12.362  70.951  1.00  0.00     2.236 C  
HETATM    3  O   UNL     1      -7.402  11.185  71.457  1.00  0.00     3.359 OA 
HETATM    4  C   UNL     1      -8.714  11.170  71.051  1.00  0.00     6.225 C  
HETATM    5  C   UNL     1      -8.987  12.363  70.182  1.00  0.00     4.180 C  
HETATM    6  O   UNL     1      -9.539  10.372  71.462  1.00  0.00     2.073 OA 
HETATM    7  C   UNL     1      -9.943  12.291  68.978  1.00  0.00     0.167 C  
HETATM    8  C   UNL     1      -7.505  14.121  69.177  1.00  0.00    -0.037 C  
HETATM    9  C   UNL     1      -9.686  13.433  67.983  1.00  0.00    -0.222 A  
HETATM   10  C   UNL     1     -10.589  13.624  66.915  1.00  0.00    -0.271 A  
HETATM   11  O   UNL     1     -11.025  14.836  64.844  1.00  0.00    -0.382 OA 
HETATM   12  C   UNL     1     -10.293  14.574  65.960  1.00  0.00    -0.309 A  
HETATM   13  C   UNL     1      -8.535  14.278  68.073  1.00  0.00    -0.164 A  
HETATM   14  C   UNL     1      -9.163  15.352  66.033  1.00  0.00    -0.298 A  
HETATM   15  C   UNL     1     -10.174  15.793  64.180  1.00  0.00     2.539 C  
HETATM   16  O   UNL     1      -9.030  16.184  64.966  1.00  0.00     0.678 OA 
HETATM   17  C   UNL     1      -8.281  15.245  67.080  1.00  0.00    -0.250 A  
ENDROOT
BRANCH   7  18
HETATM   18  C   UNL     1      -9.955  10.901  68.343  1.00  0.00    -0.188 A  
HETATM   19  O   UNL     1      -9.362   6.909  67.267  1.00  0.00    -0.130 OA 
HETATM   20  C   UNL     1      -8.948   9.209  66.931  1.00  0.00    -0.123 A  
HETATM   21  C   UNL     1     -10.727   9.892  68.940  1.00  0.00    -0.244 A  
HETATM   22  H   UNL     1      -8.726   6.679  66.601  1.00  0.00     0.000 HD 
HETATM   23  C   UNL     1      -9.110  10.548  67.284  1.00  0.00    -0.152 A  
HETATM   24  C   UNL     1      -9.651   8.205  67.618  1.00  0.00    -0.152 A  
HETATM   25  C   UNL     1     -10.587   8.541  68.597  1.00  0.00    -0.118 A  
BRANCH  25  26
HETATM   26  O   UNL     1     -11.425   7.752  69.335  1.00  0.00     0.190 OA 
HETATM   27  C   UNL     1     -12.062   8.247  70.493  1.00  0.00     0.153 C  
ENDBRANCH  25  26
BRANCH  20  28
HETATM   28  O   UNL     1      -8.053   8.795  65.965  1.00  0.00    -0.106 OA 
HETATM   29  C   UNL     1      -6.795   9.460  65.944  1.00  0.00    -0.089 C  
ENDBRANCH  20  28
ENDBRANCH   7  18
BRANCH   8  30
HETATM   30  O   UNL     1      -7.420  15.225  70.053  1.00  0.00    -0.119 OA 
BRANCH  30  31
HETATM   31  C   UNL     1      -7.583  16.598  69.682  1.00  0.00     0.330 C  
HETATM   32  O   UNL     1      -8.827  17.152  70.131  1.00  0.00     1.606 OA 
HETATM   33  C   UNL     1      -9.131  18.402  69.493  1.00  0.00     0.592 C  
HETATM   34  C   UNL     1     -10.364  19.102  70.068  1.00  0.00     1.066 C  
HETATM   35  O   UNL     1     -10.675  20.268  69.303  1.00  0.00     0.091 OA 
HETATM   36  C   UNL     1     -10.936  19.946  67.940  1.00  0.00     0.133 C  
HETATM   37  C   UNL     1     -11.210  21.223  67.157  1.00  0.00     4.427 C  
HETATM   38  O   UNL     1      -9.798  19.345  67.330  1.00  0.00    -0.318 OA 
HETATM   39  C   UNL     1      -9.393  18.157  68.011  1.00  0.00    -0.283 C  
HETATM   40  C   UNL     1      -8.087  17.719  67.375  1.00  0.00    -0.209 C  
HETATM   41  O   UNL     1      -8.332  17.336  66.012  1.00  0.00    -0.490 OA 
HETATM   42  C   UNL     1      -7.424  16.566  68.131  1.00  0.00    -0.159 C  
HETATM   43  H   UNL     1      -7.515  17.062  65.613  1.00  0.00     0.000 HD 
HETATM   44  O   UNL     1      -6.011  16.519  67.814  1.00  0.00    -0.110 OA 
HETATM   45  H   UNL     1      -5.914  16.499  66.869  1.00  0.00     0.000 HD 
ENDBRANCH  30  31
ENDBRANCH   8  30
TORSDOF 5
ENDMDL
MODEL      208
REMARK 921   NORMALIZED FREE ENERGY PREDICTED BY IDOCK:   34.58 KCAL/MOL
REMARK 922        TOTAL FREE ENERGY PREDICTED BY IDOCK:   43.46 KCAL/MOL
REMARK 923 INTER-LIGAND FREE ENERGY PREDICTED BY IDOCK:   43.02 KCAL/MOL
REMARK 924 INTRA-LIGAND FREE ENERGY PREDICTED BY IDOCK:    0.43 KCAL/MOL
REMARK 927      BINDING AFFINITY PREDICTED BY RF-SCORE:    0.00 PKD
ROOT
HETATM    1  C   UNL     1     -10.334   7.240  67.832  1.00  0.00    -0.253 C  
HETATM    2  C   UNL     1      -9.936   7.697  66.459  1.00  0.00    -0.155 C  
HETATM    3  O   UNL     1      -8.676   8.348  66.687  1.00  0.00    -0.122 OA 
HETATM    4  C   UNL     1      -8.599   8.768  67.993  1.00  0.00    -0.134 C  
HETATM    5  C   UNL     1      -9.839   8.353  68.730  1.00  0.00    -0.180 C  
HETATM    6  O   UNL     1      -7.710   9.485  68.421  1.00  0.00    -0.084 OA 
HETATM    7  C   UNL     1      -9.801   7.914  70.205  1.00  0.00    -0.184 C  
HETATM    8  C   UNL     1     -11.782   6.887  68.118  1.00  0.00     0.995 C  
HETATM    9  C   UNL     1     -11.041   7.088  70.581  1.00  0.00    -0.307 A  
HETATM   10  C   UNL     1     -11.257   6.759  71.936  1.00  0.00    -0.294 A  
HETATM   11  O   UNL     1     -12.608   5.464  73.500  1.00  0.00     1.140 OA 
HETATM   12  C   UNL     1     -12.305   5.922  72.255  1.00  0.00     0.106 A  
HETATM   13  C   UNL     1     -11.957   6.598  69.597  1.00  0.00     0.114 A  
HETATM   14  C   UNL     1     -13.154   5.421  71.298  1.00  0.00     4.054 A  
HETATM   15  C   UNL     1     -13.678   4.546  73.198  1.00  0.00     3.261 C  
HETATM   16  O   UNL     1     -14.082   4.573  71.814  1.00  0.00     4.929 OA 
HETATM   17  C   UNL     1     -13.022   5.755  69.972  1.00  0.00     5.801 A  
ENDROOT
BRANCH   7  18
HETATM   18  C   UNL     1      -8.474   7.249  70.566  1.00  0.00    -0.138 A  
HETATM   19  O   UNL     1      -5.212   5.399  72.406  1.00  0.00    -0.015 OA 
HETATM   20  C   UNL     1      -6.263   7.334  71.553  1.00  0.00    -0.037 A  
HETATM   21  C   UNL     1      -8.421   5.851  70.655  1.00  0.00    -0.129 A  
HETATM   22  H   UNL     1      -4.491   5.917  72.742  1.00  0.00     0.000 HD 
HETATM   23  C   UNL     1      -7.347   7.981  70.963  1.00  0.00    -0.059 A  
HETATM   24  C   UNL     1      -6.280   5.940  71.732  1.00  0.00    -0.044 A  
HETATM   25  C   UNL     1      -7.339   5.178  71.238  1.00  0.00    -0.078 A  
BRANCH  25  26
HETATM   26  O   UNL     1      -7.535   3.824  71.234  1.00  0.00    -0.042 OA 
HETATM   27  C   UNL     1      -8.238   3.185  72.276  1.00  0.00    -0.067 C  
ENDBRANCH  25  26
BRANCH  20  28
HETATM   28  O   UNL     1      -5.171   8.014  72.056  1.00  0.00    -0.035 OA 
HETATM   29  C   UNL     1      -5.424   9.317  72.573  1.00  0.00    -0.060 C  
ENDBRANCH  20  28
ENDBRANCH   7  18
BRANCH   8  30
HETATM   30  O   UNL     1     -12.809   7.674  67.554  1.00  0.00     7.559 OA 
BRANCH  30  31
HETATM   31  C   UNL     1     -12.953   9.090  67.705  1.00  0.00    12.091 C  
HETATM   32  O   UNL     1     -11.948   9.831  66.999  1.00  0.00     1.811 OA 
HETATM   33  C   UNL     1     -11.894  11.207  67.408  1.00  0.00     0.248 C  
HETATM   34  C   UNL     1     -10.951  12.062  66.560  1.00  0.00    -0.295 C  
HETATM   35  O   UNL     1     -10.855  13.381  67.103  1.00  0.00    -0.271 OA 
HETATM   36  C   UNL     1     -10.365  13.363  68.440  1.00  0.00    -0.251 C  
HETATM   37  C   UNL     1     -10.330  14.782  68.991  1.00  0.00    -0.243 C  
HETATM   38  O   UNL     1     -11.237  12.629  69.293  1.00  0.00    -0.243 OA 
HETATM   39  C   UNL     1     -11.408  11.282  68.850  1.00  0.00    -0.275 C  
HETATM   40  C   UNL     1     -12.480  10.670  69.734  1.00  0.00    -0.119 C  
HETATM   41  O   UNL     1     -11.990  10.589  71.082  1.00  0.00    -0.352 OA 
HETATM   42  C   UNL     1     -12.917   9.286  69.252  1.00  0.00     3.756 C  
HETATM   43  H   UNL     1     -12.661  10.207  71.636  1.00  0.00     0.000 HD 
HETATM   44  O   UNL     1     -14.226   8.970  69.787  1.00  0.00     1.623 OA 
HETATM   45  H   UNL     1     -14.205   9.089  70.729  1.00  0.00     0.000 HD 
ENDBRANCH  30  31
ENDBRANCH   8  30
TORSDOF 5
ENDMDL
MODEL      209
REMARK 921   NORMALIZED FREE ENERGY PREDICTED BY IDOCK:   34.98 KCAL/MOL
REMARK 922        TOTAL FREE ENERGY PREDICTED BY IDOCK:   43.97 KCAL/MOL
REMARK 923 INTER-LIGAND FREE ENERGY PREDICTED BY IDOCK:   40.09 KCAL/MOL
REMARK 924 INTRA-LIGAND FREE ENERGY PREDICTED BY IDOCK:    3.88 KCAL/MOL
REMARK 927      BINDING AFFINITY PREDICTED BY RF-SCORE:    0.00 PKD
ROOT
HETATM    1  C   UNL     1     -10.060  13.683  68.290  1.00  0.00    -0.240 C  
HETATM    2  C   UNL     1     -10.296  15.135  67.994  1.00  0.00    -0.240 C  
HETATM    3  O   UNL     1      -9.434  15.382  66.872  1.00  0.00    -0.215 OA 
HETATM    4  C   UNL     1      -8.411  14.465  66.862  1.00  0.00    -0.078 C  
HETATM    5  C   UNL     1      -8.586  13.501  67.999  1.00  0.00    -0.177 C  
HETATM    6  O   UNL     1      -7.449  14.533  66.116  1.00  0.00     1.564 OA 
HETATM    7  C   UNL     1      -8.217  12.012  67.869  1.00  0.00    -0.153 C  
HETATM    8  C   UNL     1     -10.441  13.119  69.647  1.00  0.00     0.707 C  
HETATM    9  C   UNL     1      -8.923  11.159  68.933  1.00  0.00    -0.089 A  
HETATM   10  C   UNL     1      -8.559   9.803  69.073  1.00  0.00    -0.146 A  
HETATM   11  O   UNL     1      -9.088   7.680  70.151  1.00  0.00    -0.150 OA 
HETATM   12  C   UNL     1      -9.274   9.012  69.948  1.00  0.00    -0.173 A  
HETATM   13  C   UNL     1      -9.974  11.679  69.753  1.00  0.00     1.076 A  
HETATM   14  C   UNL     1     -10.310   9.511  70.700  1.00  0.00    -0.302 A  
HETATM   15  C   UNL     1     -10.186   7.385  71.038  1.00  0.00    -0.191 C  
HETATM   16  O   UNL     1     -10.917   8.556  71.453  1.00  0.00    -0.237 OA 
HETATM   17  C   UNL     1     -10.669  10.835  70.643  1.00  0.00     0.592 A  
ENDROOT
BRANCH   7  18
HETATM   18  C   UNL     1      -8.398  11.504  66.439  1.00  0.00    -0.118 A  
HETATM   19  O   UNL     1      -9.777  10.007  62.792  1.00  0.00    -0.488 OA 
HETATM   20  C   UNL     1      -8.672   9.692  64.855  1.00  0.00    -0.181 A  
HETATM   21  C   UNL     1      -8.909  12.381  65.470  1.00  0.00     0.629 A  
HETATM   22  H   UNL     1      -9.724   9.078  62.602  1.00  0.00     0.000 HD 
HETATM   23  C   UNL     1      -8.222  10.160  66.088  1.00  0.00    -0.125 A  
HETATM   24  C   UNL     1      -9.282  10.570  63.942  1.00  0.00    -0.256 A  
HETATM   25  C   UNL     1      -9.360  11.935  64.221  1.00  0.00     0.206 A  
BRANCH  25  26
HETATM   26  O   UNL     1      -9.838  12.971  63.467  1.00  0.00     0.042 OA 
HETATM   27  C   UNL     1     -11.038  13.629  63.808  1.00  0.00     0.208 C  
ENDBRANCH  25  26
BRANCH  20  28
HETATM   28  O   UNL     1      -8.619   8.359  64.497  1.00  0.00    -0.114 OA 
HETATM   29  C   UNL     1      -7.545   7.979  63.642  1.00  0.00    -0.129 C  
ENDBRANCH  20  28
ENDBRANCH   7  18
BRANCH   8  30
HETATM   30  O   UNL     1     -10.210  13.892  70.806  1.00  0.00     2.145 OA 
BRANCH  30  31
HETATM   31  C   UNL     1     -10.547  15.274  70.966  1.00  0.00     0.142 C  
HETATM   32  O   UNL     1     -10.147  15.800  72.238  1.00  0.00     2.491 OA 
HETATM   33  C   UNL     1     -10.761  17.067  72.525  1.00  0.00     3.440 C  
HETATM   34  C   UNL     1     -10.230  17.734  73.794  1.00  0.00     6.687 C  
HETATM   35  O   UNL     1     -10.974  18.921  74.079  1.00  0.00     1.597 OA 
HETATM   36  C   UNL     1     -12.358  18.639  74.265  1.00  0.00     4.345 C  
HETATM   37  C   UNL     1     -13.114  19.937  74.514  1.00  0.00    12.276 C  
HETATM   38  O   UNL     1     -12.926  18.070  73.090  1.00  0.00     4.986 OA 
HETATM   39  C   UNL     1     -12.261  16.866  72.706  1.00  0.00     0.421 C  
HETATM   40  C   UNL     1     -12.842  16.462  71.363  1.00  0.00     1.177 C  
HETATM   41  O   UNL     1     -14.227  16.119  71.532  1.00  0.00     0.076 OA 
HETATM   42  C   UNL     1     -12.087  15.293  70.726  1.00  0.00    -0.351 C  
HETATM   43  H   UNL     1     -14.591  15.867  70.692  1.00  0.00     0.000 HD 
HETATM   44  O   UNL     1     -12.332  15.270  69.298  1.00  0.00    -0.564 OA 
HETATM   45  H   UNL     1     -13.271  15.282  69.152  1.00  0.00     0.000 HD 
ENDBRANCH  30  31
ENDBRANCH   8  30
TORSDOF 5
ENDMDL
MODEL      210
REMARK 921   NORMALIZED FREE ENERGY PREDICTED BY IDOCK:   37.54 KCAL/MOL
REMARK 922        TOTAL FREE ENERGY PREDICTED BY IDOCK:   47.27 KCAL/MOL
REMARK 923 INTER-LIGAND FREE ENERGY PREDICTED BY IDOCK:   46.34 KCAL/MOL
REMARK 924 INTRA-LIGAND FREE ENERGY PREDICTED BY IDOCK:    0.93 KCAL/MOL
REMARK 927      BINDING AFFINITY PREDICTED BY RF-SCORE:    0.00 PKD
ROOT
HETATM    1  C   UNL     1      -8.696  13.932  70.002  1.00  0.00     2.068 C  
HETATM    2  C   UNL     1      -9.212  12.860  70.917  1.00  0.00     9.672 C  
HETATM    3  O   UNL     1     -10.068  13.584  71.815  1.00  0.00     6.872 OA 
HETATM    4  C   UNL     1      -9.685  14.903  71.860  1.00  0.00     3.933 C  
HETATM    5  C   UNL     1      -8.540  15.128  70.917  1.00  0.00     2.409 C  
HETATM    6  O   UNL     1     -10.136  15.711  72.655  1.00  0.00     2.994 OA 
HETATM    7  C   UNL     1      -8.388  16.434  70.116  1.00  0.00     1.638 C  
HETATM    8  C   UNL     1      -7.445  13.683  69.181  1.00  0.00     0.098 C  
HETATM    9  C   UNL     1      -7.473  16.247  68.897  1.00  0.00    -0.209 A  
HETATM   10  C   UNL     1      -7.081  17.383  68.157  1.00  0.00    -0.196 A  
HETATM   11  O   UNL     1      -5.956  18.182  66.146  1.00  0.00    -0.158 OA 
HETATM   12  C   UNL     1      -6.356  17.200  66.998  1.00  0.00    -0.185 A  
HETATM   13  C   UNL     1      -7.046  14.954  68.455  1.00  0.00    -0.108 A  
HETATM   14  C   UNL     1      -5.987  15.951  66.559  1.00  0.00     1.310 A  
HETATM   15  C   UNL     1      -5.384  17.399  65.079  1.00  0.00     1.155 C  
HETATM   16  O   UNL     1      -5.329  15.988  65.371  1.00  0.00     3.638 OA 
HETATM   17  C   UNL     1      -6.295  14.818  67.271  1.00  0.00     0.282 A  
ENDROOT
BRANCH   7  18
HETATM   18  C   UNL     1      -9.743  17.061  69.791  1.00  0.00     0.487 A  
HETATM   19  O   UNL     1     -13.387  18.257  68.135  1.00  0.00     6.008 OA 
HETATM   20  C   UNL     1     -11.099  18.654  68.569  1.00  0.00     0.897 A  
HETATM   21  C   UNL     1     -10.909  16.331  70.063  1.00  0.00    -0.329 A  
HETATM   22  H   UNL     1     -13.437  19.036  67.596  1.00  0.00     0.000 HD 
HETATM   23  C   UNL     1      -9.866  18.269  69.091  1.00  0.00    -0.174 A  
HETATM   24  C   UNL     1     -12.235  17.848  68.762  1.00  0.00     4.791 A  
HETATM   25  C   UNL     1     -12.161  16.702  69.555  1.00  0.00     1.063 A  
BRANCH  25  26
HETATM   26  O   UNL     1     -13.133  15.818  69.934  1.00  0.00    -0.035 OA 
HETATM   27  C   UNL     1     -13.167  15.287  71.240  1.00  0.00    -0.488 C  
ENDBRANCH  25  26
BRANCH  20  28
HETATM   28  O   UNL     1     -11.259  19.780  67.785  1.00  0.00    -0.080 OA 
HETATM   29  C   UNL     1     -10.415  19.878  66.644  1.00  0.00    -0.460 C  
ENDBRANCH  20  28
ENDBRANCH   7  18
BRANCH   8  30
HETATM   30  O   UNL     1      -6.365  12.982  69.762  1.00  0.00    -0.119 OA 
BRANCH  30  31
HETATM   31  C   UNL     1      -5.944  11.660  69.411  1.00  0.00    -0.079 C  
HETATM   32  O   UNL     1      -5.814  11.475  67.995  1.00  0.00    -0.043 OA 
HETATM   33  C   UNL     1      -5.713  10.089  67.631  1.00  0.00    -0.042 C  
HETATM   34  C   UNL     1      -5.406   9.863  66.150  1.00  0.00    -0.044 C  
HETATM   35  O   UNL     1      -5.447   8.468  65.842  1.00  0.00    -0.031 OA 
HETATM   36  C   UNL     1      -6.724   7.905  66.127  1.00  0.00    -0.054 C  
HETATM   37  C   UNL     1      -6.701   6.412  65.832  1.00  0.00    -0.048 C  
HETATM   38  O   UNL     1      -7.040   8.031  67.509  1.00  0.00    -0.076 OA 
HETATM   39  C   UNL     1      -7.035   9.393  67.936  1.00  0.00    -0.080 C  
HETATM   40  C   UNL     1      -7.213   9.374  69.443  1.00  0.00    -0.066 C  
HETATM   41  O   UNL     1      -8.517   8.861  69.758  1.00  0.00    -0.121 OA 
HETATM   42  C   UNL     1      -7.028  10.756  70.073  1.00  0.00    -0.084 C  
HETATM   43  H   UNL     1      -8.629   8.848  70.701  1.00  0.00     0.000 HD 
HETATM   44  O   UNL     1      -6.715  10.617  71.481  1.00  0.00     0.333 OA 
HETATM   45  H   UNL     1      -7.376  10.066  71.885  1.00  0.00     0.000 HD 
ENDBRANCH  30  31
ENDBRANCH   8  30
TORSDOF 5
ENDMDL
MODEL      211
REMARK 921   NORMALIZED FREE ENERGY PREDICTED BY IDOCK:   37.69 KCAL/MOL
REMARK 922        TOTAL FREE ENERGY PREDICTED BY IDOCK:   47.47 KCAL/MOL
REMARK 923 INTER-LIGAND FREE ENERGY PREDICTED BY IDOCK:   48.79 KCAL/MOL
REMARK 924 INTRA-LIGAND FREE ENERGY PREDICTED BY IDOCK:   -1.32 KCAL/MOL
REMARK 927      BINDING AFFINITY PREDICTED BY RF-SCORE:    0.00 PKD
ROOT
HETATM    1  C   UNL     1      -8.040   9.269  70.750  1.00  0.00    -0.194 C  
HETATM    2  C   UNL     1      -7.283  10.276  71.565  1.00  0.00     2.019 C  
HETATM    3  O   UNL     1      -7.369   9.745  72.897  1.00  0.00     1.208 OA 
HETATM    4  C   UNL     1      -8.468   8.927  73.002  1.00  0.00     0.606 C  
HETATM    5  C   UNL     1      -9.160   8.841  71.673  1.00  0.00    -0.314 C  
HETATM    6  O   UNL     1      -8.871   8.468  74.057  1.00  0.00    -0.082 OA 
HETATM    7  C   UNL     1      -9.828   7.542  71.186  1.00  0.00    -0.180 C  
HETATM    8  C   UNL     1      -8.557   9.649  69.375  1.00  0.00    -0.158 C  
HETATM    9  C   UNL     1     -10.017   7.541  69.661  1.00  0.00    -0.184 A  
HETATM   10  C   UNL     1     -10.775   6.509  69.068  1.00  0.00    -0.324 A  
HETATM   11  O   UNL     1     -11.482   5.484  66.971  1.00  0.00     0.627 OA 
HETATM   12  C   UNL     1     -10.846   6.446  67.692  1.00  0.00    -0.339 A  
HETATM   13  C   UNL     1      -9.407   8.522  68.817  1.00  0.00    -0.143 A  
HETATM   14  C   UNL     1     -10.221   7.369  66.889  1.00  0.00    -0.276 A  
HETATM   15  C   UNL     1     -11.101   5.855  65.630  1.00  0.00     1.687 C  
HETATM   16  O   UNL     1     -10.368   7.095  65.566  1.00  0.00     1.563 OA 
HETATM   17  C   UNL     1      -9.517   8.424  67.415  1.00  0.00    -0.185 A  
ENDROOT
BRANCH   7  18
HETATM   18  C   UNL     1      -9.121   6.301  71.729  1.00  0.00    -0.144 A  
HETATM   19  O   UNL     1      -7.598   2.488  72.496  1.00  0.00    -0.049 OA 
HETATM   20  C   UNL     1      -9.159   4.204  72.941  1.00  0.00    -0.111 A  
HETATM   21  C   UNL     1      -7.916   5.897  71.138  1.00  0.00    -0.113 A  
HETATM   22  H   UNL     1      -8.049   1.900  73.090  1.00  0.00     0.000 HD 
HETATM   23  C   UNL     1      -9.702   5.462  72.689  1.00  0.00    -0.173 A  
HETATM   24  C   UNL     1      -8.010   3.776  72.254  1.00  0.00    -0.069 A  
HETATM   25  C   UNL     1      -7.347   4.640  71.381  1.00  0.00    -0.068 A  
BRANCH  25  26
HETATM   26  O   UNL     1      -6.193   4.470  70.667  1.00  0.00    -0.020 OA 
HETATM   27  C   UNL     1      -6.220   4.266  69.272  1.00  0.00    -0.028 C  
ENDBRANCH  25  26
BRANCH  20  28
HETATM   28  O   UNL     1      -9.746   3.295  73.799  1.00  0.00    -0.104 OA 
HETATM   29  C   UNL     1     -11.170   3.274  73.816  1.00  0.00    -0.143 C  
ENDBRANCH  20  28
ENDBRANCH   7  18
BRANCH   8  30
HETATM   30  O   UNL     1      -9.095  10.938  69.170  1.00  0.00    -0.142 OA 
BRANCH  30  31
HETATM   31  C   UNL     1      -8.527  11.955  68.339  1.00  0.00    -0.155 C  
HETATM   32  O   UNL     1      -9.455  12.467  67.373  1.00  0.00    -0.179 OA 
HETATM   33  C   UNL     1      -8.808  13.235  66.346  1.00  0.00     0.122 C  
HETATM   34  C   UNL     1      -9.783  13.933  65.395  1.00  0.00    -0.062 C  
HETATM   35  O   UNL     1      -9.069  14.569  64.333  1.00  0.00     2.282 OA 
HETATM   36  C   UNL     1      -8.302  13.632  63.582  1.00  0.00    10.618 C  
HETATM   37  C   UNL     1      -7.522  14.363  62.498  1.00  0.00    21.560 C  
HETATM   38  O   UNL     1      -7.332  12.991  64.403  1.00  0.00     8.608 OA 
HETATM   39  C   UNL     1      -7.932  12.312  65.507  1.00  0.00     1.883 C  
HETATM   40  C   UNL     1      -6.794  11.827  66.386  1.00  0.00     0.236 C  
HETATM   41  O   UNL     1      -6.034  10.838  65.671  1.00  0.00    -0.161 OA 
HETATM   42  C   UNL     1      -7.285  11.250  67.715  1.00  0.00    -0.088 C  
HETATM   43  H   UNL     1      -5.322  10.534  66.221  1.00  0.00     0.000 HD 
HETATM   44  O   UNL     1      -6.209  11.268  68.686  1.00  0.00    -0.043 OA 
HETATM   45  H   UNL     1      -5.451  10.838  68.306  1.00  0.00     0.000 HD 
ENDBRANCH  30  31
ENDBRANCH   8  30
TORSDOF 5
ENDMDL
MODEL      212
REMARK 921   NORMALIZED FREE ENERGY PREDICTED BY IDOCK:   41.30 KCAL/MOL
REMARK 922        TOTAL FREE ENERGY PREDICTED BY IDOCK:   52.14 KCAL/MOL
REMARK 923 INTER-LIGAND FREE ENERGY PREDICTED BY IDOCK:   51.38 KCAL/MOL
REMARK 924 INTRA-LIGAND FREE ENERGY PREDICTED BY IDOCK:    0.76 KCAL/MOL
REMARK 927      BINDING AFFINITY PREDICTED BY RF-SCORE:    0.00 PKD
ROOT
HETATM    1  C   UNL     1     -10.118   5.334  68.647  1.00  0.00    -0.238 C  
HETATM    2  C   UNL     1      -9.717   5.767  67.267  1.00  0.00    -0.129 C  
HETATM    3  O   UNL     1      -8.469   6.444  67.489  1.00  0.00    -0.116 OA 
HETATM    4  C   UNL     1      -8.409   6.893  68.786  1.00  0.00    -0.121 C  
HETATM    5  C   UNL     1      -9.647   6.474  69.523  1.00  0.00    -0.152 C  
HETATM    6  O   UNL     1      -7.534   7.633  69.205  1.00  0.00    -0.090 OA 
HETATM    7  C   UNL     1      -9.613   6.068  71.008  1.00  0.00    -0.197 C  
HETATM    8  C   UNL     1     -11.562   4.964  68.930  1.00  0.00     4.641 C  
HETATM    9  C   UNL     1     -10.842   5.231  71.394  1.00  0.00    -0.152 A  
HETATM   10  C   UNL     1     -11.062   4.928  72.754  1.00  0.00    -0.283 A  
HETATM   11  O   UNL     1     -12.403   3.646  74.337  1.00  0.00     1.979 OA 
HETATM   12  C   UNL     1     -12.099   4.081  73.084  1.00  0.00     0.465 A  
HETATM   13  C   UNL     1     -11.743   4.704  70.415  1.00  0.00     4.901 A  
HETATM   14  C   UNL     1     -12.933   3.547  72.133  1.00  0.00     5.648 A  
HETATM   15  C   UNL     1     -13.456   2.704  74.048  1.00  0.00     3.189 C  
HETATM   16  O   UNL     1     -13.852   2.695  72.661  1.00  0.00     1.657 OA 
HETATM   17  C   UNL     1     -12.797   3.853  70.801  1.00  0.00    15.717 A  
ENDROOT
BRANCH   7  18
HETATM   18  C   UNL     1      -8.278   5.433  71.393  1.00  0.00    -0.117 A  
HETATM   19  O   UNL     1      -5.158   3.151  72.977  1.00  0.00     0.000 OA 
HETATM   20  C   UNL     1      -6.450   5.128  72.953  1.00  0.00    -0.056 A  
HETATM   21  C   UNL     1      -7.887   4.245  70.758  1.00  0.00    -0.060 A  
HETATM   22  H   UNL     1      -4.692   3.444  73.750  1.00  0.00     0.000 HD 
HETATM   23  C   UNL     1      -7.500   5.900  72.459  1.00  0.00    -0.096 A  
HETATM   24  C   UNL     1      -6.146   3.886  72.369  1.00  0.00    -0.009 A  
HETATM   25  C   UNL     1      -6.831   3.455  71.232  1.00  0.00    -0.032 A  
BRANCH  25  26
HETATM   26  O   UNL     1      -6.664   2.336  70.464  1.00  0.00    -0.031 OA 
HETATM   27  C   UNL     1      -7.315   2.200  69.220  1.00  0.00    -0.043 C  
ENDBRANCH  25  26
BRANCH  20  28
HETATM   28  O   UNL     1      -5.716   5.490  74.066  1.00  0.00    -0.037 OA 
HETATM   29  C   UNL     1      -5.422   6.877  74.203  1.00  0.00    -0.051 C  
ENDBRANCH  20  28
ENDBRANCH   7  18
BRANCH   8  30
HETATM   30  O   UNL     1     -12.598   5.722  68.342  1.00  0.00     5.477 OA 
BRANCH  30  31
HETATM   31  C   UNL     1     -12.605   7.145  68.188  1.00  0.00     6.283 C  
HETATM   32  O   UNL     1     -11.605   7.611  67.272  1.00  0.00     0.798 OA 
HETATM   33  C   UNL     1     -11.397   9.029  67.363  1.00  0.00     1.042 C  
HETATM   34  C   UNL     1     -10.461   9.584  66.287  1.00  0.00    -0.067 C  
HETATM   35  O   UNL     1     -10.205  10.970  66.519  1.00  0.00    -0.218 OA 
HETATM   36  C   UNL     1      -9.603  11.186  67.793  1.00  0.00    -0.172 C  
HETATM   37  C   UNL     1      -9.398  12.678  68.014  1.00  0.00    -0.209 C  
HETATM   38  O   UNL     1     -10.458  10.744  68.842  1.00  0.00    -0.184 OA 
HETATM   39  C   UNL     1     -10.783   9.359  68.718  1.00  0.00    -0.171 C  
HETATM   40  C   UNL     1     -11.822   9.063  69.784  1.00  0.00     0.545 C  
HETATM   41  O   UNL     1     -11.226   9.220  71.082  1.00  0.00    -0.284 OA 
HETATM   42  C   UNL     1     -12.418   7.660  69.648  1.00  0.00     1.817 C  
HETATM   43  H   UNL     1     -11.876   9.035  71.749  1.00  0.00     0.000 HD 
HETATM   44  O   UNL     1     -13.698   7.602  70.325  1.00  0.00     0.533 OA 
HETATM   45  H   UNL     1     -13.584   7.915  71.215  1.00  0.00     0.000 HD 
ENDBRANCH  30  31
ENDBRANCH   8  30
TORSDOF 5
ENDMDL
MODEL      213
REMARK 921   NORMALIZED FREE ENERGY PREDICTED BY IDOCK:   45.40 KCAL/MOL
REMARK 922        TOTAL FREE ENERGY PREDICTED BY IDOCK:   57.44 KCAL/MOL
REMARK 923 INTER-LIGAND FREE ENERGY PREDICTED BY IDOCK:   55.04 KCAL/MOL
REMARK 924 INTRA-LIGAND FREE ENERGY PREDICTED BY IDOCK:    2.41 KCAL/MOL
REMARK 927      BINDING AFFINITY PREDICTED BY RF-SCORE:    0.00 PKD
ROOT
HETATM    1  C   UNL     1     -12.145  12.187  68.233  1.00  0.00    -0.071 C  
HETATM    2  C   UNL     1     -12.826  13.044  69.261  1.00  0.00     1.091 C  
HETATM    3  O   UNL     1     -12.518  14.378  68.825  1.00  0.00    -0.134 OA 
HETATM    4  C   UNL     1     -11.375  14.366  68.064  1.00  0.00    -0.294 C  
HETATM    5  C   UNL     1     -10.881  12.957  67.917  1.00  0.00    -0.246 C  
HETATM    6  O   UNL     1     -10.798  15.376  67.696  1.00  0.00    -0.289 OA 
HETATM    7  C   UNL     1     -10.225  12.455  66.618  1.00  0.00    -0.241 C  
HETATM    8  C   UNL     1     -11.855  10.730  68.541  1.00  0.00    -0.096 C  
HETATM    9  C   UNL     1     -10.262  10.923  66.521  1.00  0.00    -0.282 A  
HETATM   10  C   UNL     1      -9.546  10.287  65.485  1.00  0.00    -0.299 A  
HETATM   11  O   UNL     1      -9.102   8.173  64.351  1.00  0.00     0.477 OA 
HETATM   12  C   UNL     1      -9.675   8.922  65.331  1.00  0.00     0.197 A  
HETATM   13  C   UNL     1     -11.039  10.121  67.416  1.00  0.00    -0.219 A  
HETATM   14  C   UNL     1     -10.457   8.166  66.170  1.00  0.00     0.808 A  
HETATM   15  C   UNL     1      -9.694   6.885  64.613  1.00  0.00     2.754 C  
HETATM   16  O   UNL     1     -10.492   6.855  65.813  1.00  0.00     0.998 OA 
HETATM   17  C   UNL     1     -11.130   8.727  67.228  1.00  0.00     0.366 A  
ENDROOT
BRANCH   7  18
HETATM   18  C   UNL     1     -10.779  13.173  65.388  1.00  0.00    -0.308 A  
HETATM   19  O   UNL     1     -11.986  15.894  62.458  1.00  0.00     3.458 OA 
HETATM   20  C   UNL     1     -12.484  14.511  64.307  1.00  0.00    -0.264 A  
HETATM   21  C   UNL     1      -9.894  13.536  64.361  1.00  0.00     0.361 A  
HETATM   22  H   UNL     1     -12.867  16.251  62.466  1.00  0.00     0.000 HD 
HETATM   23  C   UNL     1     -12.104  13.620  65.309  1.00  0.00    -0.429 A  
HETATM   24  C   UNL     1     -11.550  14.947  63.352  1.00  0.00     1.675 A  
HETATM   25  C   UNL     1     -10.256  14.423  63.340  1.00  0.00     5.010 A  
BRANCH  25  26
HETATM   26  O   UNL     1      -9.216  14.642  62.480  1.00  0.00    14.273 OA 
HETATM   27  C   UNL     1      -8.028  13.886  62.564  1.00  0.00    17.167 C  
ENDBRANCH  25  26
BRANCH  20  28
HETATM   28  O   UNL     1     -13.748  15.065  64.240  1.00  0.00     1.397 OA 
HETATM   29  C   UNL     1     -14.004  16.156  65.117  1.00  0.00     5.280 C  
ENDBRANCH  20  28
ENDBRANCH   7  18
BRANCH   8  30
HETATM   30  O   UNL     1     -11.421  10.369  69.835  1.00  0.00    -0.258 OA 
BRANCH  30  31
HETATM   31  C   UNL     1     -10.964   9.071  70.229  1.00  0.00    -0.244 C  
HETATM   32  O   UNL     1      -9.943   8.555  69.367  1.00  0.00    -0.185 OA 
HETATM   33  C   UNL     1      -9.721   7.149  69.561  1.00  0.00    -0.157 C  
HETATM   34  C   UNL     1      -8.526   6.602  68.778  1.00  0.00    -0.123 C  
HETATM   35  O   UNL     1      -8.447   5.182  68.923  1.00  0.00    -0.091 OA 
HETATM   36  C   UNL     1      -9.627   4.540  68.449  1.00  0.00    -0.145 C  
HETATM   37  C   UNL     1      -9.516   3.038  68.671  1.00  0.00    -0.194 C  
HETATM   38  O   UNL     1     -10.770   4.966  69.184  1.00  0.00     0.063 OA 
HETATM   39  C   UNL     1     -10.956   6.380  69.109  1.00  0.00    -0.355 C  
HETATM   40  C   UNL     1     -12.088   6.717  70.063  1.00  0.00     0.036 C  
HETATM   41  O   UNL     1     -13.305   6.126  69.578  1.00  0.00     4.330 OA 
HETATM   42  C   UNL     1     -12.274   8.225  70.242  1.00  0.00     0.540 C  
HETATM   43  H   UNL     1     -14.013   6.336  70.174  1.00  0.00     0.000 HD 
HETATM   44  O   UNL     1     -12.981   8.489  71.479  1.00  0.00    -0.321 OA 
HETATM   45  H   UNL     1     -13.779   7.972  71.487  1.00  0.00     0.000 HD 
ENDBRANCH  30  31
ENDBRANCH   8  30
TORSDOF 5
ENDMDL
MODEL      214
REMARK 921   NORMALIZED FREE ENERGY PREDICTED BY IDOCK:   47.24 KCAL/MOL
REMARK 922        TOTAL FREE ENERGY PREDICTED BY IDOCK:   59.82 KCAL/MOL
REMARK 923 INTER-LIGAND FREE ENERGY PREDICTED BY IDOCK:   51.40 KCAL/MOL
REMARK 924 INTRA-LIGAND FREE ENERGY PREDICTED BY IDOCK:    8.42 KCAL/MOL
REMARK 927      BINDING AFFINITY PREDICTED BY RF-SCORE:    0.00 PKD
ROOT
HETATM    1  C   UNL     1      -8.015  15.543  70.653  1.00  0.00     1.750 C  
HETATM    2  C   UNL     1      -6.571  15.684  70.269  1.00  0.00     0.123 C  
HETATM    3  O   UNL     1      -6.630  16.481  69.075  1.00  0.00    -0.168 OA 
HETATM    4  C   UNL     1      -7.861  16.341  68.483  1.00  0.00    -0.192 C  
HETATM    5  C   UNL     1      -8.725  15.444  69.321  1.00  0.00    -0.252 C  
HETATM    6  O   UNL     1      -8.134  16.780  67.378  1.00  0.00    -0.164 OA 
HETATM    7  C   UNL     1     -10.239  15.678  69.469  1.00  0.00    -0.277 C  
HETATM    8  C   UNL     1      -8.437  14.436  71.601  1.00  0.00     5.915 C  
HETATM    9  C   UNL     1     -10.800  14.979  70.717  1.00  0.00    -0.112 A  
HETATM   10  C   UNL     1     -12.197  14.938  70.906  1.00  0.00    -0.389 A  
HETATM   11  O   UNL     1     -14.002  14.357  72.441  1.00  0.00    -0.466 OA 
HETATM   12  C   UNL     1     -12.691  14.413  72.082  1.00  0.00    -0.323 A  
HETATM   13  C   UNL     1      -9.950  14.412  71.719  1.00  0.00     4.530 A  
HETATM   14  C   UNL     1     -11.865  13.909  73.058  1.00  0.00     1.458 A  
HETATM   15  C   UNL     1     -13.893  13.854  73.789  1.00  0.00     4.125 C  
HETATM   16  O   UNL     1     -12.547  13.493  74.157  1.00  0.00     2.207 OA 
HETATM   17  C   UNL     1     -10.501  13.874  72.899  1.00  0.00     6.991 A  
ENDROOT
BRANCH   7  18
HETATM   18  C   UNL     1     -10.598  17.160  69.369  1.00  0.00    -0.161 A  
HETATM   19  O   UNL     1     -10.803  21.258  68.590  1.00  0.00     1.070 OA 
HETATM   20  C   UNL     1     -10.274  19.466  70.035  1.00  0.00     0.738 A  
HETATM   21  C   UNL     1     -11.245  17.622  68.213  1.00  0.00     0.336 A  
HETATM   22  H   UNL     1     -10.437  21.884  69.204  1.00  0.00     0.000 HD 
HETATM   23  C   UNL     1     -10.173  18.104  70.311  1.00  0.00     1.451 A  
HETATM   24  C   UNL     1     -10.827  19.904  68.819  1.00  0.00     0.671 A  
HETATM   25  C   UNL     1     -11.365  18.986  67.917  1.00  0.00     0.636 A  
BRANCH  25  26
HETATM   26  O   UNL     1     -12.007  19.181  66.725  1.00  0.00     1.582 OA 
HETATM   27  C   UNL     1     -11.395  18.836  65.502  1.00  0.00     1.315 C  
ENDBRANCH  25  26
BRANCH  20  28
HETATM   28  O   UNL     1      -9.778  20.439  70.881  1.00  0.00     1.000 OA 
HETATM   29  C   UNL     1      -9.700  20.094  72.260  1.00  0.00     2.970 C  
ENDBRANCH  20  28
ENDBRANCH   7  18
BRANCH   8  30
HETATM   30  O   UNL     1      -7.843  13.161  71.483  1.00  0.00     6.751 OA 
BRANCH  30  31
HETATM   31  C   UNL     1      -8.361  12.068  70.719  1.00  0.00     7.274 C  
HETATM   32  O   UNL     1      -7.341  11.160  70.281  1.00  0.00     0.168 OA 
HETATM   33  C   UNL     1      -7.807  10.263  69.262  1.00  0.00    -0.142 C  
HETATM   34  C   UNL     1      -6.796   9.175  68.892  1.00  0.00    -0.056 C  
HETATM   35  O   UNL     1      -7.279   8.404  67.789  1.00  0.00    -0.085 OA 
HETATM   36  C   UNL     1      -7.505   9.217  66.641  1.00  0.00    -0.086 C  
HETATM   37  C   UNL     1      -8.065   8.361  65.513  1.00  0.00    -0.129 C  
HETATM   38  O   UNL     1      -8.486  10.214  66.906  1.00  0.00    -0.125 OA 
HETATM   39  C   UNL     1      -8.109  11.056  67.996  1.00  0.00    -0.121 C  
HETATM   40  C   UNL     1      -9.301  11.951  68.282  1.00  0.00    -0.193 C  
HETATM   41  O   UNL     1      -9.519  12.821  67.159  1.00  0.00    -0.209 OA 
HETATM   42  C   UNL     1      -9.121  12.777  69.557  1.00  0.00     1.653 C  
HETATM   43  H   UNL     1     -10.265  13.380  67.338  1.00  0.00     0.000 HD 
HETATM   44  O   UNL     1     -10.414  13.209  70.049  1.00  0.00     0.333 OA 
HETATM   45  H   UNL     1     -10.878  13.642  69.341  1.00  0.00     0.000 HD 
ENDBRANCH  30  31
ENDBRANCH   8  30
TORSDOF 5
ENDMDL
MODEL      215
REMARK 921   NORMALIZED FREE ENERGY PREDICTED BY IDOCK:   47.31 KCAL/MOL
REMARK 922        TOTAL FREE ENERGY PREDICTED BY IDOCK:   59.91 KCAL/MOL
REMARK 923 INTER-LIGAND FREE ENERGY PREDICTED BY IDOCK:   60.54 KCAL/MOL
REMARK 924 INTRA-LIGAND FREE ENERGY PREDICTED BY IDOCK:   -0.63 KCAL/MOL
REMARK 927      BINDING AFFINITY PREDICTED BY RF-SCORE:    0.00 PKD
ROOT
HETATM    1  C   UNL     1      -8.015  15.543  70.653  1.00  0.00     1.750 C  
HETATM    2  C   UNL     1      -6.574  15.680  70.256  1.00  0.00     0.123 C  
HETATM    3  O   UNL     1      -6.642  16.478  69.063  1.00  0.00    -0.168 OA 
HETATM    4  C   UNL     1      -7.879  16.342  68.482  1.00  0.00    -0.192 C  
HETATM    5  C   UNL     1      -8.737  15.446  69.327  1.00  0.00    -0.252 C  
HETATM    6  O   UNL     1      -8.160  16.781  67.380  1.00  0.00    -0.164 OA 
HETATM    7  C   UNL     1     -10.249  15.684  69.489  1.00  0.00    -0.277 C  
HETATM    8  C   UNL     1      -8.432  14.437  71.604  1.00  0.00     5.915 C  
HETATM    9  C   UNL     1     -10.801  14.986  70.742  1.00  0.00    -0.112 A  
HETATM   10  C   UNL     1     -12.196  14.948  70.944  1.00  0.00    -0.389 A  
HETATM   11  O   UNL     1     -13.988  14.372  72.495  1.00  0.00    -0.478 OA 
HETATM   12  C   UNL     1     -12.680  14.424  72.124  1.00  0.00    -0.323 A  
HETATM   13  C   UNL     1      -9.943  14.416  71.736  1.00  0.00     4.530 A  
HETATM   14  C   UNL     1     -11.847  13.918  73.092  1.00  0.00     1.545 A  
HETATM   15  C   UNL     1     -13.868  13.868  73.841  1.00  0.00     4.988 C  
HETATM   16  O   UNL     1     -12.520  13.503  74.198  1.00  0.00     2.283 OA 
HETATM   17  C   UNL     1     -10.485  13.879  72.921  1.00  0.00     6.991 A  
ENDROOT
BRANCH   7  18
HETATM   18  C   UNL     1     -10.605  17.167  69.393  1.00  0.00    -0.161 A  
HETATM   19  O   UNL     1     -10.807  21.266  68.618  1.00  0.00     1.070 OA 
HETATM   20  C   UNL     1     -10.269  19.472  70.057  1.00  0.00     0.657 A  
HETATM   21  C   UNL     1     -11.262  17.631  68.243  1.00  0.00     0.336 A  
HETATM   22  H   UNL     1     -10.434  21.890  69.228  1.00  0.00     0.000 HD 
HETATM   23  C   UNL     1     -10.169  18.110  70.332  1.00  0.00     1.705 A  
HETATM   24  C   UNL     1     -10.832  19.912  68.846  1.00  0.00     0.779 A  
HETATM   25  C   UNL     1     -11.381  18.995  67.948  1.00  0.00     0.636 A  
BRANCH  25  26
HETATM   26  O   UNL     1     -12.033  19.192  66.762  1.00  0.00     1.582 OA 
HETATM   27  C   UNL     1     -11.433  18.847  65.534  1.00  0.00     1.763 C  
ENDBRANCH  25  26
BRANCH  20  28
HETATM   28  O   UNL     1      -9.764  20.443  70.898  1.00  0.00     1.000 OA 
HETATM   29  C   UNL     1      -9.674  20.098  72.276  1.00  0.00     2.970 C  
ENDBRANCH  20  28
ENDBRANCH   7  18
BRANCH   8  30
HETATM   30  O   UNL     1      -7.841  13.160  71.481  1.00  0.00     6.751 OA 
BRANCH  30  31
HETATM   31  C   UNL     1      -8.369  12.068  70.721  1.00  0.00     7.274 C  
HETATM   32  O   UNL     1      -9.799  11.983  70.788  1.00  0.00     4.665 OA 
HETATM   33  C   UNL     1     -10.295  10.724  70.307  1.00  0.00     0.502 C  
HETATM   34  C   UNL     1     -11.820  10.662  70.208  1.00  0.00    -0.342 C  
HETATM   35  O   UNL     1     -12.241   9.345  69.845  1.00  0.00     0.298 OA 
HETATM   36  C   UNL     1     -11.812   8.377  70.798  1.00  0.00    -0.163 C  
HETATM   37  C   UNL     1     -12.239   6.988  70.342  1.00  0.00    -0.138 C  
HETATM   38  O   UNL     1     -10.392   8.344  70.890  1.00  0.00    -0.189 OA 
HETATM   39  C   UNL     1      -9.852   9.615  71.254  1.00  0.00     0.184 C  
HETATM   40  C   UNL     1      -8.343   9.489  71.148  1.00  0.00     0.342 C  
HETATM   41  O   UNL     1      -7.877   8.557  72.138  1.00  0.00    -0.188 OA 
HETATM   42  C   UNL     1      -7.629  10.832  71.317  1.00  0.00     3.771 C  
HETATM   43  H   UNL     1      -6.933   8.478  72.071  1.00  0.00     0.000 HD 
HETATM   44  O   UNL     1      -6.305  10.761  70.733  1.00  0.00    -0.338 OA 
HETATM   45  H   UNL     1      -5.854  10.008  71.096  1.00  0.00     0.000 HD 
ENDBRANCH  30  31
ENDBRANCH   8  30
TORSDOF 5
ENDMDL
MODEL      216
REMARK 921   NORMALIZED FREE ENERGY PREDICTED BY IDOCK:   51.46 KCAL/MOL
REMARK 922        TOTAL FREE ENERGY PREDICTED BY IDOCK:   65.27 KCAL/MOL
REMARK 923 INTER-LIGAND FREE ENERGY PREDICTED BY IDOCK:   60.18 KCAL/MOL
REMARK 924 INTRA-LIGAND FREE ENERGY PREDICTED BY IDOCK:    5.09 KCAL/MOL
REMARK 927      BINDING AFFINITY PREDICTED BY RF-SCORE:    0.00 PKD
ROOT
HETATM    1  C   UNL     1      -6.517  17.686  69.664  1.00  0.00    -0.136 C  
HETATM    2  C   UNL     1      -5.219  18.293  70.109  1.00  0.00    -0.234 C  
HETATM    3  O   UNL     1      -5.421  19.697  69.878  1.00  0.00    -0.214 OA 
HETATM    4  C   UNL     1      -6.384  19.875  68.915  1.00  0.00    -0.302 C  
HETATM    5  C   UNL     1      -6.917  18.540  68.481  1.00  0.00    -0.284 C  
HETATM    6  O   UNL     1      -6.645  20.955  68.411  1.00  0.00    -0.248 OA 
HETATM    7  C   UNL     1      -8.397  18.336  68.112  1.00  0.00    -0.296 C  
HETATM    8  C   UNL     1      -6.583  16.206  69.339  1.00  0.00    -0.197 C  
HETATM    9  C   UNL     1      -8.800  16.855  68.189  1.00  0.00    -0.223 A  
HETATM   10  C   UNL     1     -10.069  16.467  67.709  1.00  0.00    -0.264 A  
HETATM   11  O   UNL     1     -11.682  14.646  67.536  1.00  0.00    -0.365 OA 
HETATM   12  C   UNL     1     -10.472  15.160  67.885  1.00  0.00    -0.245 A  
HETATM   13  C   UNL     1      -7.952  15.865  68.778  1.00  0.00    -0.188 A  
HETATM   14  C   UNL     1      -9.667  14.225  68.490  1.00  0.00    -0.225 A  
HETATM   15  C   UNL     1     -11.578  13.314  68.080  1.00  0.00    -0.336 C  
HETATM   16  O   UNL     1     -10.273  13.015  68.616  1.00  0.00    -0.232 OA 
HETATM   17  C   UNL     1      -8.402  14.537  68.925  1.00  0.00    -0.112 A  
ENDROOT
BRANCH   7  18
HETATM   18  C   UNL     1      -9.314  19.275  68.895  1.00  0.00    -0.408 A  
HETATM   19  O   UNL     1     -12.065  21.063  71.480  1.00  0.00    10.700 OA 
HETATM   20  C   UNL     1     -11.507  20.196  69.355  1.00  0.00     3.295 A  
HETATM   21  C   UNL     1      -8.898  19.729  70.155  1.00  0.00     1.163 A  
HETATM   22  H   UNL     1     -12.967  21.189  71.211  1.00  0.00     0.000 HD 
HETATM   23  C   UNL     1     -10.616  19.578  68.479  1.00  0.00    -0.138 A  
HETATM   24  C   UNL     1     -11.098  20.543  70.654  1.00  0.00     3.928 A  
HETATM   25  C   UNL     1      -9.772  20.359  71.050  1.00  0.00     1.978 A  
BRANCH  25  26
HETATM   26  O   UNL     1      -9.140  20.681  72.219  1.00  0.00     1.505 OA 
HETATM   27  C   UNL     1      -8.616  19.681  73.065  1.00  0.00     4.539 C  
ENDBRANCH  25  26
BRANCH  20  28
HETATM   28  O   UNL     1     -12.830  20.426  69.036  1.00  0.00     5.589 OA 
HETATM   29  C   UNL     1     -13.072  21.364  67.992  1.00  0.00     9.338 C  
ENDBRANCH  20  28
ENDBRANCH   7  18
BRANCH   8  30
HETATM   30  O   UNL     1      -5.507  15.599  68.654  1.00  0.00    -0.092 OA 
BRANCH  30  31
HETATM   31  C   UNL     1      -5.590  14.417  67.853  1.00  0.00    -0.092 C  
HETATM   32  O   UNL     1      -6.311  14.621  66.631  1.00  0.00     0.916 OA 
HETATM   33  C   UNL     1      -6.671  13.385  65.993  1.00  0.00     5.002 C  
HETATM   34  C   UNL     1      -7.292  13.567  64.607  1.00  0.00    13.800 C  
HETATM   35  O   UNL     1      -7.736  12.309  64.094  1.00  0.00     3.628 OA 
HETATM   36  C   UNL     1      -8.707  11.709  64.947  1.00  0.00     0.530 C  
HETATM   37  C   UNL     1      -9.110  10.352  64.387  1.00  0.00    -0.267 C  
HETATM   38  O   UNL     1      -8.166  11.458  66.240  1.00  0.00    -0.160 OA 
HETATM   39  C   UNL     1      -7.689  12.653  66.859  1.00  0.00     0.090 C  
HETATM   40  C   UNL     1      -6.990  12.227  68.138  1.00  0.00    -0.087 C  
HETATM   41  O   UNL     1      -7.958  11.667  69.040  1.00  0.00    -0.315 OA 
HETATM   42  C   UNL     1      -6.251  13.383  68.815  1.00  0.00    -0.090 C  
HETATM   43  H   UNL     1      -7.521  11.400  69.840  1.00  0.00     0.000 HD 
HETATM   44  O   UNL     1      -5.231  12.861  69.702  1.00  0.00    -0.072 OA 
HETATM   45  H   UNL     1      -5.633  12.231  70.289  1.00  0.00     0.000 HD 
ENDBRANCH  30  31
ENDBRANCH   8  30
TORSDOF 5
ENDMDL
MODEL      217
REMARK 921   NORMALIZED FREE ENERGY PREDICTED BY IDOCK:   56.54 KCAL/MOL
REMARK 922        TOTAL FREE ENERGY PREDICTED BY IDOCK:   71.83 KCAL/MOL
REMARK 923 INTER-LIGAND FREE ENERGY PREDICTED BY IDOCK:   66.52 KCAL/MOL
REMARK 924 INTRA-LIGAND FREE ENERGY PREDICTED BY IDOCK:    5.31 KCAL/MOL
REMARK 927      BINDING AFFINITY PREDICTED BY RF-SCORE:    0.00 PKD
ROOT
HETATM    1  C   UNL     1     -10.190   7.745  69.720  1.00  0.00    -0.211 C  
HETATM    2  C   UNL     1     -11.164   8.887  69.752  1.00  0.00    -0.006 C  
HETATM    3  O   UNL     1     -11.921   8.702  68.545  1.00  0.00     1.882 OA 
HETATM    4  C   UNL     1     -11.180   7.984  67.638  1.00  0.00     0.613 C  
HETATM    5  C   UNL     1      -9.863   7.606  68.249  1.00  0.00    -0.181 C  
HETATM    6  O   UNL     1     -11.513   7.815  66.477  1.00  0.00     1.387 OA 
HETATM    7  C   UNL     1      -9.182   6.258  67.947  1.00  0.00    -0.116 C  
HETATM    8  C   UNL     1      -8.937   7.800  70.573  1.00  0.00    -0.150 C  
HETATM    9  C   UNL     1      -8.150   5.892  69.025  1.00  0.00    -0.103 A  
HETATM   10  C   UNL     1      -7.306   4.782  68.813  1.00  0.00    -0.061 A  
HETATM   11  O   UNL     1      -5.636   3.307  69.805  1.00  0.00    -0.015 OA 
HETATM   12  C   UNL     1      -6.463   4.387  69.830  1.00  0.00    -0.032 A  
HETATM   13  C   UNL     1      -8.050   6.610  70.259  1.00  0.00    -0.121 A  
HETATM   14  C   UNL     1      -6.404   5.057  71.028  1.00  0.00    -0.023 A  
HETATM   15  C   UNL     1      -5.131   3.322  71.156  1.00  0.00     0.000 C  
HETATM   16  O   UNL     1      -5.552   4.475  71.912  1.00  0.00    -0.007 OA 
HETATM   17  C   UNL     1      -7.163   6.177  71.265  1.00  0.00    -0.079 A  
ENDROOT
BRANCH   7  18
HETATM   18  C   UNL     1     -10.203   5.158  67.660  1.00  0.00    -0.197 A  
HETATM   19  O   UNL     1     -12.300   1.585  67.126  1.00  0.00    12.980 OA 
HETATM   20  C   UNL     1     -11.081   3.403  66.239  1.00  0.00     4.038 A  
HETATM   21  C   UNL     1     -10.904   4.590  68.734  1.00  0.00     1.558 A  
HETATM   22  H   UNL     1     -12.328   1.166  66.274  1.00  0.00     0.000 HD 
HETATM   23  C   UNL     1     -10.357   4.584  66.392  1.00  0.00    -0.194 A  
HETATM   24  C   UNL     1     -11.685   2.792  67.352  1.00  0.00    13.623 A  
HETATM   25  C   UNL     1     -11.645   3.408  68.604  1.00  0.00    11.617 A  
BRANCH  25  26
HETATM   26  O   UNL     1     -12.210   3.042  69.794  1.00  0.00    14.700 OA 
HETATM   27  C   UNL     1     -11.618   2.056  70.611  1.00  0.00     6.319 C  
ENDBRANCH  25  26
BRANCH  20  28
HETATM   28  O   UNL     1     -11.181   2.739  65.033  1.00  0.00     1.602 OA 
HETATM   29  C   UNL     1     -10.076   2.877  64.145  1.00  0.00    -0.109 C  
ENDBRANCH  20  28
ENDBRANCH   7  18
BRANCH   8  30
HETATM   30  O   UNL     1      -8.244   9.023  70.706  1.00  0.00    -0.148 OA 
BRANCH  30  31
HETATM   31  C   UNL     1      -8.758  10.314  70.363  1.00  0.00     0.712 C  
HETATM   32  O   UNL     1     -10.029  10.249  69.702  1.00  0.00    -0.228 OA 
HETATM   33  C   UNL     1     -10.384  11.493  69.077  1.00  0.00    -0.118 C  
HETATM   34  C   UNL     1     -11.804  11.510  68.507  1.00  0.00    -0.297 C  
HETATM   35  O   UNL     1     -12.038  12.727  67.795  1.00  0.00    -0.314 OA 
HETATM   36  C   UNL     1     -11.120  12.889  66.718  1.00  0.00    -0.281 C  
HETATM   37  C   UNL     1     -11.375  14.220  66.025  1.00  0.00    -0.335 C  
HETATM   38  O   UNL     1      -9.779  12.942  67.194  1.00  0.00    -0.212 OA 
HETATM   39  C   UNL     1      -9.425  11.767  67.925  1.00  0.00    -0.191 C  
HETATM   40  C   UNL     1      -8.051  12.023  68.515  1.00  0.00    -0.123 C  
HETATM   41  O   UNL     1      -7.093  12.136  67.450  1.00  0.00    -0.123 OA 
HETATM   42  C   UNL     1      -7.619  10.928  69.492  1.00  0.00    -0.050 C  
HETATM   43  H   UNL     1      -6.233  12.297  67.819  1.00  0.00     0.000 HD 
HETATM   44  O   UNL     1      -6.588  11.435  70.375  1.00  0.00    -0.486 OA 
HETATM   45  H   UNL     1      -5.894  11.810  69.845  1.00  0.00     0.000 HD 
ENDBRANCH  30  31
ENDBRANCH   8  30
TORSDOF 5
ENDMDL
MODEL      218
REMARK 921   NORMALIZED FREE ENERGY PREDICTED BY IDOCK:   57.71 KCAL/MOL
REMARK 922        TOTAL FREE ENERGY PREDICTED BY IDOCK:   73.35 KCAL/MOL
REMARK 923 INTER-LIGAND FREE ENERGY PREDICTED BY IDOCK:   73.79 KCAL/MOL
REMARK 924 INTRA-LIGAND FREE ENERGY PREDICTED BY IDOCK:   -0.44 KCAL/MOL
REMARK 927      BINDING AFFINITY PREDICTED BY RF-SCORE:    0.00 PKD
ROOT
HETATM    1  C   UNL     1      -7.993  13.050  70.361  1.00  0.00     4.016 C  
HETATM    2  C   UNL     1      -7.995  11.760  71.128  1.00  0.00     7.988 C  
HETATM    3  O   UNL     1      -8.577  12.132  72.388  1.00  0.00    18.031 OA 
HETATM    4  C   UNL     1      -8.399  13.477  72.603  1.00  0.00    13.305 C  
HETATM    5  C   UNL     1      -7.702  14.088  71.423  1.00  0.00     4.656 C  
HETATM    6  O   UNL     1      -8.654  14.032  73.658  1.00  0.00     6.976 OA 
HETATM    7  C   UNL     1      -8.032  15.508  70.928  1.00  0.00     2.471 C  
HETATM    8  C   UNL     1      -7.087  13.207  69.155  1.00  0.00     0.021 C  
HETATM    9  C   UNL     1      -7.585  15.719  69.474  1.00  0.00    -0.177 A  
HETATM   10  C   UNL     1      -7.646  17.015  68.921  1.00  0.00    -0.233 A  
HETATM   11  O   UNL     1      -7.426  18.348  66.890  1.00  0.00    -0.205 OA 
HETATM   12  C   UNL     1      -7.355  17.180  67.583  1.00  0.00    -0.164 A  
HETATM   13  C   UNL     1      -7.157  14.634  68.643  1.00  0.00    -0.115 A  
HETATM   14  C   UNL     1      -6.986  16.125  66.784  1.00  0.00    -0.072 A  
HETATM   15  C   UNL     1      -7.157  17.886  65.551  1.00  0.00     0.128 C  
HETATM   16  O   UNL     1      -6.799  16.491  65.488  1.00  0.00     1.232 OA 
HETATM   17  C   UNL     1      -6.857  14.853  67.284  1.00  0.00    -0.000 A  
ENDROOT
BRANCH   7  18
HETATM   18  C   UNL     1      -9.490  15.879  71.194  1.00  0.00     2.909 A  
HETATM   19  O   UNL     1     -13.311  16.523  72.755  1.00  0.00     0.079 OA 
HETATM   20  C   UNL     1     -11.823  15.264  71.421  1.00  0.00    -0.372 A  
HETATM   21  C   UNL     1      -9.771  17.062  71.894  1.00  0.00     7.696 A  
HETATM   22  H   UNL     1     -14.001  15.885  72.617  1.00  0.00     0.000 HD 
HETATM   23  C   UNL     1     -10.553  15.013  70.905  1.00  0.00     0.152 A  
HETATM   24  C   UNL     1     -12.054  16.402  72.213  1.00  0.00    -0.385 A  
HETATM   25  C   UNL     1     -11.041  17.340  72.415  1.00  0.00     1.925 A  
BRANCH  25  26
HETATM   26  O   UNL     1     -11.054  18.536  73.079  1.00  0.00     1.352 OA 
HETATM   27  C   UNL     1     -10.030  19.487  72.890  1.00  0.00     3.668 C  
ENDBRANCH  25  26
BRANCH  20  28
HETATM   28  O   UNL     1     -12.882  14.394  71.255  1.00  0.00    -0.306 OA 
HETATM   29  C   UNL     1     -12.671  13.310  70.356  1.00  0.00    -0.033 C  
ENDBRANCH  20  28
ENDBRANCH   7  18
BRANCH   8  30
HETATM   30  O   UNL     1      -5.783  12.667  69.195  1.00  0.00    -0.069 OA 
BRANCH  30  31
HETATM   31  C   UNL     1      -5.385  11.409  68.642  1.00  0.00    -0.043 C  
HETATM   32  O   UNL     1      -5.812  11.236  67.285  1.00  0.00    -0.054 OA 
HETATM   33  C   UNL     1      -5.702   9.873  66.845  1.00  0.00    -0.050 C  
HETATM   34  C   UNL     1      -5.990   9.683  65.354  1.00  0.00    -0.067 C  
HETATM   35  O   UNL     1      -5.985   8.293  65.022  1.00  0.00    -0.045 OA 
HETATM   36  C   UNL     1      -6.965   7.573  65.764  1.00  0.00    -0.061 C  
HETATM   37  C   UNL     1      -6.886   6.094  65.413  1.00  0.00    -0.048 C  
HETATM   38  O   UNL     1      -6.713   7.662  67.162  1.00  0.00    -0.063 OA 
HETATM   39  C   UNL     1      -6.698   9.016  67.617  1.00  0.00    -0.065 C  
HETATM   40  C   UNL     1      -6.254   8.980  69.067  1.00  0.00    -0.043 C  
HETATM   41  O   UNL     1      -7.253   8.305  69.850  1.00  0.00    -0.057 OA 
HETATM   42  C   UNL     1      -5.998  10.376  69.637  1.00  0.00    -0.048 C  
HETATM   43  H   UNL     1      -6.975   8.282  70.758  1.00  0.00     0.000 HD 
HETATM   44  O   UNL     1      -5.133  10.283  70.796  1.00  0.00    -0.045 OA 
HETATM   45  H   UNL     1      -5.506   9.654  71.403  1.00  0.00     0.000 HD 
ENDBRANCH  30  31
ENDBRANCH   8  30
TORSDOF 5
ENDMDL
MODEL      219
REMARK 921   NORMALIZED FREE ENERGY PREDICTED BY IDOCK:   65.32 KCAL/MOL
REMARK 922        TOTAL FREE ENERGY PREDICTED BY IDOCK:   83.18 KCAL/MOL
REMARK 923 INTER-LIGAND FREE ENERGY PREDICTED BY IDOCK:   65.47 KCAL/MOL
REMARK 924 INTRA-LIGAND FREE ENERGY PREDICTED BY IDOCK:   17.71 KCAL/MOL
REMARK 927      BINDING AFFINITY PREDICTED BY RF-SCORE:    0.00 PKD
ROOT
HETATM    1  C   UNL     1     -13.195  13.244  67.914  1.00  0.00     3.863 C  
HETATM    2  C   UNL     1     -14.282  12.248  68.194  1.00  0.00    14.583 C  
HETATM    3  O   UNL     1     -14.126  11.983  69.598  1.00  0.00     4.962 OA 
HETATM    4  C   UNL     1     -12.836  12.261  69.982  1.00  0.00     0.534 C  
HETATM    5  C   UNL     1     -12.063  12.789  68.809  1.00  0.00    -0.165 C  
HETATM    6  O   UNL     1     -12.383  11.981  71.079  1.00  0.00    -0.346 OA 
HETATM    7  C   UNL     1     -10.992  13.884  68.965  1.00  0.00    -0.281 C  
HETATM    8  C   UNL     1     -12.731  13.470  66.487  1.00  0.00     0.078 C  
HETATM    9  C   UNL     1     -10.710  14.593  67.632  1.00  0.00    -0.271 A  
HETATM   10  C   UNL     1      -9.630  15.497  67.555  1.00  0.00    -0.212 A  
HETATM   11  O   UNL     1      -8.499  17.167  66.183  1.00  0.00    -0.406 OA 
HETATM   12  C   UNL     1      -9.450  16.218  66.393  1.00  0.00    -0.294 A  
HETATM   13  C   UNL     1     -11.537  14.406  66.479  1.00  0.00    -0.388 A  
HETATM   14  C   UNL     1     -10.275  16.062  65.305  1.00  0.00    -0.211 A  
HETATM   15  C   UNL     1      -8.885  17.655  64.882  1.00  0.00     4.074 C  
HETATM   16  O   UNL     1      -9.962  16.904  64.286  1.00  0.00     1.989 OA 
HETATM   17  C   UNL     1     -11.307  15.155  65.308  1.00  0.00    -0.318 A  
ENDROOT
BRANCH   7  18
HETATM   18  C   UNL     1     -11.312  14.831  70.121  1.00  0.00    -0.291 A  
HETATM   19  O   UNL     1     -12.511  16.650  73.685  1.00  0.00    -0.410 OA 
HETATM   20  C   UNL     1     -12.891  16.140  71.410  1.00  0.00     0.265 A  
HETATM   21  C   UNL     1     -10.427  14.894  71.207  1.00  0.00     0.844 A  
HETATM   22  H   UNL     1     -13.371  17.045  73.758  1.00  0.00     0.000 HD 
HETATM   23  C   UNL     1     -12.526  15.523  70.215  1.00  0.00    -0.403 A  
HETATM   24  C   UNL     1     -12.032  16.096  72.522  1.00  0.00    -0.561 A  
HETATM   25  C   UNL     1     -10.768  15.514  72.416  1.00  0.00     1.200 A  
BRANCH  25  26
HETATM   26  O   UNL     1      -9.753  15.419  73.328  1.00  0.00     5.610 OA 
HETATM   27  C   UNL     1      -9.943  14.769  74.565  1.00  0.00     9.679 C  
ENDBRANCH  25  26
BRANCH  20  28
HETATM   28  O   UNL     1     -14.117  16.748  71.593  1.00  0.00     2.973 OA 
HETATM   29  C   UNL     1     -14.090  18.089  72.070  1.00  0.00    17.002 C  
ENDBRANCH  20  28
ENDBRANCH   7  18
BRANCH   8  30
HETATM   30  O   UNL     1     -12.610  12.365  65.617  1.00  0.00    -0.575 OA 
BRANCH  30  31
HETATM   31  C   UNL     1     -11.541  12.148  64.690  1.00  0.00    -0.328 C  
HETATM   32  O   UNL     1     -11.071  10.793  64.688  1.00  0.00    -0.012 OA 
HETATM   33  C   UNL     1      -9.811  10.652  64.014  1.00  0.00    -0.338 C  
HETATM   34  C   UNL     1      -9.363   9.198  63.848  1.00  0.00     0.552 C  
HETATM   35  O   UNL     1      -8.050   9.146  63.286  1.00  0.00    -0.146 OA 
HETATM   36  C   UNL     1      -7.100   9.817  64.108  1.00  0.00    -0.126 C  
HETATM   37  C   UNL     1      -5.731   9.778  63.444  1.00  0.00    -0.096 C  
HETATM   38  O   UNL     1      -7.432  11.194  64.250  1.00  0.00     0.600 OA 
HETATM   39  C   UNL     1      -8.732  11.375  64.812  1.00  0.00     0.335 C  
HETATM   40  C   UNL     1      -9.027  12.862  64.749  1.00  0.00     1.651 C  
HETATM   41  O   UNL     1      -8.117  13.561  65.613  1.00  0.00     1.699 OA 
HETATM   42  C   UNL     1     -10.471  13.191  65.134  1.00  0.00    -0.324 C  
HETATM   43  H   UNL     1      -8.300  14.492  65.574  1.00  0.00     0.000 HD 
HETATM   44  O   UNL     1     -10.840  14.486  64.598  1.00  0.00    -0.521 OA 
HETATM   45  H   UNL     1     -10.187  15.122  64.868  1.00  0.00     0.000 HD 
ENDBRANCH  30  31
ENDBRANCH   8  30
TORSDOF 5
ENDMDL
MODEL      220
REMARK 921   NORMALIZED FREE ENERGY PREDICTED BY IDOCK:   85.68 KCAL/MOL
REMARK 922        TOTAL FREE ENERGY PREDICTED BY IDOCK:  109.49 KCAL/MOL
REMARK 923 INTER-LIGAND FREE ENERGY PREDICTED BY IDOCK:  107.67 KCAL/MOL
REMARK 924 INTRA-LIGAND FREE ENERGY PREDICTED BY IDOCK:    1.82 KCAL/MOL
REMARK 927      BINDING AFFINITY PREDICTED BY RF-SCORE:    0.00 PKD
ROOT
HETATM    1  C   UNL     1      -8.090  13.000  70.532  1.00  0.00     4.980 C  
HETATM    2  C   UNL     1      -8.535  11.875  71.419  1.00  0.00    12.305 C  
HETATM    3  O   UNL     1      -8.863  12.542  72.649  1.00  0.00    20.034 OA 
HETATM    4  C   UNL     1      -8.179  13.730  72.729  1.00  0.00    11.030 C  
HETATM    5  C   UNL     1      -7.369  13.932  71.482  1.00  0.00     4.000 C  
HETATM    6  O   UNL     1      -8.147  14.425  73.731  1.00  0.00     5.342 OA 
HETATM    7  C   UNL     1      -7.166  15.325  70.859  1.00  0.00     1.298 C  
HETATM    8  C   UNL     1      -7.259  12.701  69.297  1.00  0.00     0.162 C  
HETATM    9  C   UNL     1      -6.754  15.230  69.382  1.00  0.00    -0.164 A  
HETATM   10  C   UNL     1      -6.352  16.403  68.709  1.00  0.00    -0.135 A  
HETATM   11  O   UNL     1      -5.759  17.381  66.555  1.00  0.00    -0.176 OA 
HETATM   12  C   UNL     1      -6.096  16.334  67.355  1.00  0.00    -0.164 A  
HETATM   13  C   UNL     1      -6.814  14.001  68.652  1.00  0.00    -0.103 A  
HETATM   14  C   UNL     1      -6.197  15.157  66.654  1.00  0.00     1.945 A  
HETATM   15  C   UNL     1      -5.759  16.744  65.261  1.00  0.00     3.068 C  
HETATM   16  O   UNL     1      -5.958  15.317  65.326  1.00  0.00     8.409 OA 
HETATM   17  C   UNL     1      -6.530  13.977  67.272  1.00  0.00     0.325 A  
ENDROOT
BRANCH   7  18
HETATM   18  C   UNL     1      -8.360  16.243  71.118  1.00  0.00     5.323 A  
HETATM   19  O   UNL     1     -11.189  18.920  72.626  1.00  0.00     1.442 OA 
HETATM   20  C   UNL     1     -10.477  16.709  72.199  1.00  0.00     3.724 A  
HETATM   21  C   UNL     1      -8.218  17.619  70.882  1.00  0.00     6.224 A  
HETATM   22  H   UNL     1     -11.944  18.602  73.106  1.00  0.00     0.000 HD 
HETATM   23  C   UNL     1      -9.539  15.794  71.725  1.00  0.00     4.304 A  
HETATM   24  C   UNL     1     -10.260  18.090  72.048  1.00  0.00     5.346 A  
HETATM   25  C   UNL     1      -9.151  18.557  71.342  1.00  0.00     7.421 A  
BRANCH  25  26
HETATM   26  O   UNL     1      -8.777  19.831  71.014  1.00  0.00     1.756 OA 
HETATM   27  C   UNL     1      -8.775  20.269  69.673  1.00  0.00     1.047 C  
ENDBRANCH  25  26
BRANCH  20  28
HETATM   28  O   UNL     1     -11.606  16.328  72.896  1.00  0.00    -0.352 OA 
HETATM   29  C   UNL     1     -11.405  15.418  73.973  1.00  0.00     1.165 C  
ENDBRANCH  20  28
ENDBRANCH   7  18
BRANCH   8  30
HETATM   30  O   UNL     1      -6.255  11.711  69.362  1.00  0.00    -0.079 OA 
BRANCH  30  31
HETATM   31  C   UNL     1      -6.444  10.315  69.110  1.00  0.00    -0.050 C  
HETATM   32  O   UNL     1      -7.109  10.059  67.866  1.00  0.00    -0.083 OA 
HETATM   33  C   UNL     1      -7.583   8.707  67.766  1.00  0.00    -0.098 C  
HETATM   34  C   UNL     1      -8.148   8.353  66.389  1.00  0.00    -0.104 C  
HETATM   35  O   UNL     1      -8.711   7.040  66.406  1.00  0.00    -0.130 OA 
HETATM   36  C   UNL     1      -9.761   6.933  67.363  1.00  0.00    -0.139 C  
HETATM   37  C   UNL     1     -10.292   5.506  67.380  1.00  0.00    -0.279 C  
HETATM   38  O   UNL     1      -9.281   7.192  68.678  1.00  0.00    -0.137 OA 
HETATM   39  C   UNL     1      -8.694   8.489  68.786  1.00  0.00    -0.139 C  
HETATM   40  C   UNL     1      -8.077   8.570  70.170  1.00  0.00    -0.111 C  
HETATM   41  O   UNL     1      -9.120   8.518  71.157  1.00  0.00    -0.157 OA 
HETATM   42  C   UNL     1      -7.235   9.832  70.364  1.00  0.00    -0.142 C  
HETATM   43  H   UNL     1      -8.734   8.568  72.023  1.00  0.00     0.000 HD 
HETATM   44  O   UNL     1      -6.298   9.637  71.452  1.00  0.00    -0.245 OA 
HETATM   45  H   UNL     1      -6.780   9.342  72.217  1.00  0.00     0.000 HD 
ENDBRANCH  30  31
ENDBRANCH   8  30
TORSDOF 5
ENDMDL
MODEL      221
REMARK 921   NORMALIZED FREE ENERGY PREDICTED BY IDOCK:   91.20 KCAL/MOL
REMARK 922        TOTAL FREE ENERGY PREDICTED BY IDOCK:  116.63 KCAL/MOL
REMARK 923 INTER-LIGAND FREE ENERGY PREDICTED BY IDOCK:  111.55 KCAL/MOL
REMARK 924 INTRA-LIGAND FREE ENERGY PREDICTED BY IDOCK:    5.08 KCAL/MOL
REMARK 927      BINDING AFFINITY PREDICTED BY RF-SCORE:    0.00 PKD
ROOT
HETATM    1  C   UNL     1     -10.644  13.998  68.819  1.00  0.00    -0.260 C  
HETATM    2  C   UNL     1     -11.448  12.923  68.148  1.00  0.00    -0.315 C  
HETATM    3  O   UNL     1     -12.766  13.119  68.686  1.00  0.00     0.483 OA 
HETATM    4  C   UNL     1     -12.682  13.760  69.898  1.00  0.00     0.061 C  
HETATM    5  C   UNL     1     -11.246  14.071  70.206  1.00  0.00     0.063 C  
HETATM    6  O   UNL     1     -13.631  13.915  70.648  1.00  0.00     0.054 OA 
HETATM    7  C   UNL     1     -10.830  15.362  70.934  1.00  0.00    -0.253 C  
HETATM    8  C   UNL     1      -9.132  13.888  68.866  1.00  0.00     0.098 C  
HETATM    9  C   UNL     1      -9.349  15.693  70.697  1.00  0.00     1.456 A  
HETATM   10  C   UNL     1      -8.757  16.740  71.434  1.00  0.00     8.076 A  
HETATM   11  O   UNL     1      -6.774  18.133  71.711  1.00  0.00     3.169 OA 
HETATM   12  C   UNL     1      -7.462  17.110  71.136  1.00  0.00     5.697 A  
HETATM   13  C   UNL     1      -8.562  15.008  69.716  1.00  0.00     0.116 A  
HETATM   14  C   UNL     1      -6.729  16.474  70.164  1.00  0.00     0.472 A  
HETATM   15  C   UNL     1      -5.568  18.127  70.919  1.00  0.00    -0.035 C  
HETATM   16  O   UNL     1      -5.500  17.027  69.990  1.00  0.00    -0.188 OA 
HETATM   17  C   UNL     1      -7.238  15.413  69.456  1.00  0.00    -0.202 A  
ENDROOT
BRANCH   7  18
HETATM   18  C   UNL     1     -11.785  16.517  70.633  1.00  0.00     0.161 A  
HETATM   19  O   UNL     1     -13.816  19.829  69.100  1.00  0.00    10.873 OA 
HETATM   20  C   UNL     1     -12.330  18.877  70.669  1.00  0.00    15.559 A  
HETATM   21  C   UNL     1     -12.769  16.341  69.649  1.00  0.00     1.293 A  
HETATM   22  H   UNL     1     -13.635  20.700  69.431  1.00  0.00     0.000 HD 
HETATM   23  C   UNL     1     -11.622  17.793  71.185  1.00  0.00     3.687 A  
HETATM   24  C   UNL     1     -13.232  18.694  69.607  1.00  0.00    20.987 A  
HETATM   25  C   UNL     1     -13.498  17.414  69.120  1.00  0.00     9.999 A  
BRANCH  25  26
HETATM   26  O   UNL     1     -14.374  16.992  68.157  1.00  0.00     6.560 OA 
HETATM   27  C   UNL     1     -13.914  16.493  66.921  1.00  0.00     9.678 C  
ENDBRANCH  25  26
BRANCH  20  28
HETATM   28  O   UNL     1     -12.134  20.173  71.105  1.00  0.00     9.680 OA 
HETATM   29  C   UNL     1     -10.865  20.458  71.683  1.00  0.00     5.938 C  
ENDBRANCH  20  28
ENDBRANCH   7  18
BRANCH   8  30
HETATM   30  O   UNL     1      -8.537  12.627  69.091  1.00  0.00     0.391 OA 
BRANCH  30  31
HETATM   31  C   UNL     1      -9.137  11.360  68.806  1.00  0.00    -0.089 C  
HETATM   32  O   UNL     1      -8.436  10.264  69.408  1.00  0.00    -0.156 OA 
HETATM   33  C   UNL     1      -8.835   8.995  68.866  1.00  0.00    -0.139 C  
HETATM   34  C   UNL     1      -8.232   7.796  69.601  1.00  0.00    -0.127 C  
HETATM   35  O   UNL     1      -8.571   6.581  68.929  1.00  0.00    -0.124 OA 
HETATM   36  C   UNL     1      -8.093   6.573  67.587  1.00  0.00    -0.118 C  
HETATM   37  C   UNL     1      -8.522   5.284  66.900  1.00  0.00    -0.106 C  
HETATM   38  O   UNL     1      -8.669   7.634  66.833  1.00  0.00    -0.122 OA 
HETATM   39  C   UNL     1      -8.391   8.911  67.411  1.00  0.00    -0.108 C  
HETATM   40  C   UNL     1      -9.196   9.926  66.620  1.00  0.00    -0.153 C  
HETATM   41  O   UNL     1      -8.698   9.978  65.273  1.00  0.00    -0.146 OA 
HETATM   42  C   UNL     1      -9.157  11.321  67.247  1.00  0.00    -0.156 C  
HETATM   43  H   UNL     1      -9.201  10.613  64.779  1.00  0.00     0.000 HD 
HETATM   44  O   UNL     1     -10.286  12.101  66.781  1.00  0.00    -0.202 OA 
HETATM   45  H   UNL     1     -10.298  12.078  65.831  1.00  0.00     0.000 HD 
ENDBRANCH  30  31
ENDBRANCH   8  30
TORSDOF 5
ENDMDL
MODEL      222
REMARK 921   NORMALIZED FREE ENERGY PREDICTED BY IDOCK:   92.20 KCAL/MOL
REMARK 922        TOTAL FREE ENERGY PREDICTED BY IDOCK:  117.92 KCAL/MOL
REMARK 923 INTER-LIGAND FREE ENERGY PREDICTED BY IDOCK:  117.93 KCAL/MOL
REMARK 924 INTRA-LIGAND FREE ENERGY PREDICTED BY IDOCK:   -0.01 KCAL/MOL
REMARK 927      BINDING AFFINITY PREDICTED BY RF-SCORE:    0.00 PKD
ROOT
HETATM    1  C   UNL     1      -8.074   9.947  69.601  1.00  0.00    -0.171 C  
HETATM    2  C   UNL     1      -6.947  10.813  70.085  1.00  0.00     0.002 C  
HETATM    3  O   UNL     1      -5.789  10.195  69.502  1.00  0.00    -0.037 OA 
HETATM    4  C   UNL     1      -6.053   8.874  69.235  1.00  0.00    -0.041 C  
HETATM    5  C   UNL     1      -7.473   8.558  69.602  1.00  0.00    -0.075 C  
HETATM    6  O   UNL     1      -5.203   8.073  68.883  1.00  0.00    -0.022 OA 
HETATM    7  C   UNL     1      -8.327   7.574  68.783  1.00  0.00    -0.129 C  
HETATM    8  C   UNL     1      -9.412   9.984  70.315  1.00  0.00     0.016 C  
HETATM    9  C   UNL     1      -9.828   7.786  69.030  1.00  0.00    -0.169 A  
HETATM   10  C   UNL     1     -10.746   6.854  68.500  1.00  0.00    -0.252 A  
HETATM   11  O   UNL     1     -13.100   6.346  68.118  1.00  0.00     7.638 OA 
HETATM   12  C   UNL     1     -12.095   7.110  68.625  1.00  0.00     2.134 A  
HETATM   13  C   UNL     1     -10.331   8.925  69.736  1.00  0.00    -0.213 A  
HETATM   14  C   UNL     1     -12.568   8.228  69.268  1.00  0.00     3.643 A  
HETATM   15  C   UNL     1     -14.247   7.163  68.431  1.00  0.00    19.048 C  
HETATM   16  O   UNL     1     -13.924   8.319  69.230  1.00  0.00     6.176 OA 
HETATM   17  C   UNL     1     -11.720   9.137  69.850  1.00  0.00     0.219 A  
ENDROOT
BRANCH   7  18
HETATM   18  C   UNL     1      -7.931   7.570  67.307  1.00  0.00    -0.118 A  
HETATM   19  O   UNL     1      -7.649   8.016  63.163  1.00  0.00    -0.111 OA 
HETATM   20  C   UNL     1      -8.154   6.699  65.058  1.00  0.00    -0.124 A  
HETATM   21  C   UNL     1      -7.332   8.717  66.765  1.00  0.00    -0.079 A  
HETATM   22  H   UNL     1      -7.964   7.334  62.583  1.00  0.00     0.000 HD 
HETATM   23  C   UNL     1      -8.279   6.531  66.435  1.00  0.00    -0.116 A  
HETATM   24  C   UNL     1      -7.652   7.902  64.532  1.00  0.00    -0.111 A  
HETATM   25  C   UNL     1      -7.188   8.905  65.384  1.00  0.00    -0.084 A  
BRANCH  25  26
HETATM   26  O   UNL     1      -6.604  10.110  65.105  1.00  0.00    -0.113 OA 
HETATM   27  C   UNL     1      -7.010  11.288  65.766  1.00  0.00     0.314 C  
ENDBRANCH  25  26
BRANCH  20  28
HETATM   28  O   UNL     1      -8.576   5.749  64.148  1.00  0.00    -0.046 OA 
HETATM   29  C   UNL     1      -8.449   4.390  64.552  1.00  0.00    -0.119 C  
ENDBRANCH  20  28
ENDBRANCH   7  18
BRANCH   8  30
HETATM   30  O   UNL     1      -9.441  10.072  71.724  1.00  0.00     1.247 OA 
BRANCH  30  31
HETATM   31  C   UNL     1     -10.243  10.981  72.486  1.00  0.00    12.103 C  
HETATM   32  O   UNL     1     -11.252  11.626  71.699  1.00  0.00     2.662 OA 
HETATM   33  C   UNL     1     -11.831  12.756  72.371  1.00  0.00     3.314 C  
HETATM   34  C   UNL     1     -13.024  13.366  71.633  1.00  0.00    -0.355 C  
HETATM   35  O   UNL     1     -13.463  14.554  72.295  1.00  0.00    -0.353 OA 
HETATM   36  C   UNL     1     -12.427  15.531  72.359  1.00  0.00    -0.401 C  
HETATM   37  C   UNL     1     -12.926  16.754  73.116  1.00  0.00     0.649 C  
HETATM   38  O   UNL     1     -11.309  15.041  73.091  1.00  0.00    -0.151 OA 
HETATM   39  C   UNL     1     -10.776  13.847  72.516  1.00  0.00     5.449 C  
HETATM   40  C   UNL     1      -9.715  13.342  73.476  1.00  0.00    14.481 C  
HETATM   41  O   UNL     1      -8.631  14.284  73.519  1.00  0.00     5.933 OA 
HETATM   42  C   UNL     1      -9.190  11.957  73.094  1.00  0.00    24.887 C  
HETATM   43  H   UNL     1      -7.966  13.969  74.120  1.00  0.00     0.000 HD 
HETATM   44  O   UNL     1      -8.587  11.324  74.250  1.00  0.00    11.406 OA 
HETATM   45  H   UNL     1      -7.945  11.918  74.620  1.00  0.00     0.000 HD 
ENDBRANCH  30  31
ENDBRANCH   8  30
TORSDOF 5
ENDMDL
MODEL      223
REMARK 921   NORMALIZED FREE ENERGY PREDICTED BY IDOCK:   92.23 KCAL/MOL
REMARK 922        TOTAL FREE ENERGY PREDICTED BY IDOCK:  117.95 KCAL/MOL
REMARK 923 INTER-LIGAND FREE ENERGY PREDICTED BY IDOCK:  117.88 KCAL/MOL
REMARK 924 INTRA-LIGAND FREE ENERGY PREDICTED BY IDOCK:    0.08 KCAL/MOL
REMARK 927      BINDING AFFINITY PREDICTED BY RF-SCORE:    0.00 PKD
ROOT
HETATM    1  C   UNL     1      -8.074   9.947  69.601  1.00  0.00    -0.171 C  
HETATM    2  C   UNL     1      -6.947  10.813  70.085  1.00  0.00     0.002 C  
HETATM    3  O   UNL     1      -5.789  10.195  69.502  1.00  0.00    -0.037 OA 
HETATM    4  C   UNL     1      -6.053   8.874  69.235  1.00  0.00    -0.041 C  
HETATM    5  C   UNL     1      -7.473   8.558  69.602  1.00  0.00    -0.075 C  
HETATM    6  O   UNL     1      -5.203   8.073  68.883  1.00  0.00    -0.022 OA 
HETATM    7  C   UNL     1      -8.327   7.574  68.783  1.00  0.00    -0.129 C  
HETATM    8  C   UNL     1      -9.412   9.984  70.315  1.00  0.00     0.016 C  
HETATM    9  C   UNL     1      -9.828   7.786  69.030  1.00  0.00    -0.169 A  
HETATM   10  C   UNL     1     -10.746   6.854  68.500  1.00  0.00    -0.252 A  
HETATM   11  O   UNL     1     -13.100   6.346  68.118  1.00  0.00     7.638 OA 
HETATM   12  C   UNL     1     -12.095   7.110  68.625  1.00  0.00     2.134 A  
HETATM   13  C   UNL     1     -10.331   8.925  69.736  1.00  0.00    -0.213 A  
HETATM   14  C   UNL     1     -12.568   8.228  69.268  1.00  0.00     3.643 A  
HETATM   15  C   UNL     1     -14.247   7.163  68.431  1.00  0.00    19.048 C  
HETATM   16  O   UNL     1     -13.924   8.319  69.230  1.00  0.00     6.176 OA 
HETATM   17  C   UNL     1     -11.720   9.137  69.850  1.00  0.00     0.219 A  
ENDROOT
BRANCH   7  18
HETATM   18  C   UNL     1      -7.931   7.570  67.307  1.00  0.00    -0.118 A  
HETATM   19  O   UNL     1      -6.105   7.099  63.580  1.00  0.00    -0.043 OA 
HETATM   20  C   UNL     1      -6.606   8.426  65.468  1.00  0.00    -0.055 A  
HETATM   21  C   UNL     1      -8.187   6.423  66.541  1.00  0.00    -0.113 A  
HETATM   22  H   UNL     1      -5.537   7.776  63.233  1.00  0.00     0.000 HD 
HETATM   23  C   UNL     1      -7.185   8.602  66.724  1.00  0.00    -0.078 A  
HETATM   24  C   UNL     1      -6.787   7.222  64.766  1.00  0.00    -0.050 A  
HETATM   25  C   UNL     1      -7.622   6.227  65.275  1.00  0.00    -0.090 A  
BRANCH  25  26
HETATM   26  O   UNL     1      -7.997   5.023  64.744  1.00  0.00    -0.091 OA 
HETATM   27  C   UNL     1      -7.985   3.847  65.523  1.00  0.00    -0.093 C  
ENDBRANCH  25  26
BRANCH  20  28
HETATM   28  O   UNL     1      -5.778   9.367  64.890  1.00  0.00    -0.060 OA 
HETATM   29  C   UNL     1      -6.079  10.730  65.171  1.00  0.00     0.032 C  
ENDBRANCH  20  28
ENDBRANCH   7  18
BRANCH   8  30
HETATM   30  O   UNL     1      -9.441  10.072  71.724  1.00  0.00     1.247 OA 
BRANCH  30  31
HETATM   31  C   UNL     1     -10.243  10.981  72.486  1.00  0.00    12.103 C  
HETATM   32  O   UNL     1     -11.252  11.626  71.699  1.00  0.00     2.662 OA 
HETATM   33  C   UNL     1     -11.831  12.756  72.371  1.00  0.00     3.314 C  
HETATM   34  C   UNL     1     -13.024  13.366  71.633  1.00  0.00    -0.355 C  
HETATM   35  O   UNL     1     -13.463  14.554  72.295  1.00  0.00    -0.353 OA 
HETATM   36  C   UNL     1     -12.427  15.531  72.359  1.00  0.00    -0.401 C  
HETATM   37  C   UNL     1     -12.926  16.754  73.116  1.00  0.00     0.649 C  
HETATM   38  O   UNL     1     -11.309  15.041  73.091  1.00  0.00    -0.151 OA 
HETATM   39  C   UNL     1     -10.776  13.847  72.516  1.00  0.00     5.449 C  
HETATM   40  C   UNL     1      -9.715  13.342  73.476  1.00  0.00    14.481 C  
HETATM   41  O   UNL     1      -8.631  14.284  73.519  1.00  0.00     5.933 OA 
HETATM   42  C   UNL     1      -9.190  11.957  73.094  1.00  0.00    24.887 C  
HETATM   43  H   UNL     1      -7.966  13.969  74.120  1.00  0.00     0.000 HD 
HETATM   44  O   UNL     1      -8.587  11.324  74.250  1.00  0.00    11.406 OA 
HETATM   45  H   UNL     1      -7.945  11.918  74.620  1.00  0.00     0.000 HD 
ENDBRANCH  30  31
ENDBRANCH   8  30
TORSDOF 5
ENDMDL
MODEL      224
REMARK 921   NORMALIZED FREE ENERGY PREDICTED BY IDOCK:   94.18 KCAL/MOL
REMARK 922        TOTAL FREE ENERGY PREDICTED BY IDOCK:  120.48 KCAL/MOL
REMARK 923 INTER-LIGAND FREE ENERGY PREDICTED BY IDOCK:  113.19 KCAL/MOL
REMARK 924 INTRA-LIGAND FREE ENERGY PREDICTED BY IDOCK:    7.29 KCAL/MOL
REMARK 927      BINDING AFFINITY PREDICTED BY RF-SCORE:    0.00 PKD
ROOT
HETATM    1  C   UNL     1     -10.632  13.066  69.315  1.00  0.00     0.107 C  
HETATM    2  C   UNL     1      -9.991  14.417  69.185  1.00  0.00    -0.069 C  
HETATM    3  O   UNL     1      -9.489  14.667  70.508  1.00  0.00     0.964 OA 
HETATM    4  C   UNL     1     -10.204  13.931  71.422  1.00  0.00     5.109 C  
HETATM    5  C   UNL     1     -11.222  13.091  70.708  1.00  0.00     1.569 C  
HETATM    6  O   UNL     1     -10.097  14.066  72.629  1.00  0.00     5.510 OA 
HETATM    7  C   UNL     1     -11.591  11.676  71.189  1.00  0.00     0.993 C  
HETATM    8  C   UNL     1     -11.645  12.611  68.281  1.00  0.00    -0.332 C  
HETATM    9  C   UNL     1     -12.243  10.850  70.070  1.00  0.00    -0.422 A  
HETATM   10  C   UNL     1     -12.807   9.596  70.386  1.00  0.00     0.193 A  
HETATM   11  O   UNL     1     -13.802   7.556  69.493  1.00  0.00     4.361 OA 
HETATM   12  C   UNL     1     -13.287   8.808  69.361  1.00  0.00     5.271 A  
HETATM   13  C   UNL     1     -12.252  11.287  68.707  1.00  0.00    -0.101 A  
HETATM   14  C   UNL     1     -13.253   9.219  68.050  1.00  0.00    12.200 A  
HETATM   15  C   UNL     1     -13.993   7.194  68.111  1.00  0.00    19.220 C  
HETATM   16  O   UNL     1     -13.721   8.273  67.194  1.00  0.00    17.816 OA 
HETATM   17  C   UNL     1     -12.765  10.452  67.694  1.00  0.00     5.608 A  
ENDROOT
BRANCH   7  18
HETATM   18  C   UNL     1     -10.414  10.983  71.873  1.00  0.00     6.838 A  
HETATM   19  O   UNL     1      -7.194   8.562  72.978  1.00  0.00    -0.262 OA 
HETATM   20  C   UNL     1      -9.484   9.123  73.116  1.00  0.00     2.019 A  
HETATM   21  C   UNL     1      -9.110  11.338  71.498  1.00  0.00    10.327 A  
HETATM   22  H   UNL     1      -7.335   7.785  73.505  1.00  0.00     0.000 HD 
HETATM   23  C   UNL     1     -10.580   9.900  72.746  1.00  0.00     4.588 A  
HETATM   24  C   UNL     1      -8.200   9.434  72.638  1.00  0.00     1.834 A  
HETATM   25  C   UNL     1      -7.992  10.576  71.864  1.00  0.00     5.857 A  
BRANCH  25  26
HETATM   26  O   UNL     1      -6.840  11.109  71.355  1.00  0.00     1.425 OA 
HETATM   27  C   UNL     1      -6.570  11.076  69.970  1.00  0.00    -0.134 C  
ENDBRANCH  25  26
BRANCH  20  28
HETATM   28  O   UNL     1      -9.603   7.985  73.890  1.00  0.00    -0.081 OA 
HETATM   29  C   UNL     1      -8.393   7.297  74.188  1.00  0.00    -0.177 C  
ENDBRANCH  20  28
ENDBRANCH   7  18
BRANCH   8  30
HETATM   30  O   UNL     1     -12.577  13.541  67.771  1.00  0.00     0.094 OA 
BRANCH  30  31
HETATM   31  C   UNL     1     -12.267  14.852  67.289  1.00  0.00     0.164 C  
HETATM   32  O   UNL     1     -11.311  14.842  66.221  1.00  0.00    -0.343 OA 
HETATM   33  C   UNL     1     -10.764  16.144  65.963  1.00  0.00    -0.241 C  
HETATM   34  C   UNL     1      -9.867  16.200  64.725  1.00  0.00     1.274 C  
HETATM   35  O   UNL     1      -9.264  17.490  64.607  1.00  0.00     3.102 OA 
HETATM   36  C   UNL     1      -8.472  17.805  65.749  1.00  0.00     0.293 C  
HETATM   37  C   UNL     1      -7.894  19.205  65.600  1.00  0.00     0.122 C  
HETATM   38  O   UNL     1      -9.267  17.828  66.930  1.00  0.00    -0.245 OA 
HETATM   39  C   UNL     1      -9.923  16.580  67.157  1.00  0.00    -0.266 C  
HETATM   40  C   UNL     1     -10.859  16.792  68.332  1.00  0.00    -0.355 C  
HETATM   41  O   UNL     1     -10.084  17.058  69.512  1.00  0.00    -0.180 OA 
HETATM   42  C   UNL     1     -11.781  15.595  68.571  1.00  0.00    -0.327 C  
HETATM   43  H   UNL     1     -10.670  17.191  70.248  1.00  0.00     0.000 HD 
HETATM   44  O   UNL     1     -12.943  16.012  69.330  1.00  0.00    -0.139 OA 
HETATM   45  H   UNL     1     -12.647  16.465  70.111  1.00  0.00     0.000 HD 
ENDBRANCH  30  31
ENDBRANCH   8  30
TORSDOF 5
ENDMDL
MODEL      225
REMARK 921   NORMALIZED FREE ENERGY PREDICTED BY IDOCK:   97.17 KCAL/MOL
REMARK 922        TOTAL FREE ENERGY PREDICTED BY IDOCK:  124.34 KCAL/MOL
REMARK 923 INTER-LIGAND FREE ENERGY PREDICTED BY IDOCK:  123.54 KCAL/MOL
REMARK 924 INTRA-LIGAND FREE ENERGY PREDICTED BY IDOCK:    0.80 KCAL/MOL
REMARK 927      BINDING AFFINITY PREDICTED BY RF-SCORE:    0.00 PKD
ROOT
HETATM    1  C   UNL     1      -9.194  12.774  72.144  1.00  0.00    20.539 C  
HETATM    2  C   UNL     1      -8.633  12.339  73.466  1.00  0.00    22.016 C  
HETATM    3  O   UNL     1      -8.196  13.574  74.055  1.00  0.00     6.729 OA 
HETATM    4  C   UNL     1      -7.953  14.499  73.069  1.00  0.00     7.616 C  
HETATM    5  C   UNL     1      -8.278  13.905  71.729  1.00  0.00     8.232 C  
HETATM    6  O   UNL     1      -7.424  15.579  73.271  1.00  0.00     7.034 OA 
HETATM    7  C   UNL     1      -8.894  14.744  70.595  1.00  0.00     1.999 C  
HETATM    8  C   UNL     1      -9.374  11.758  71.032  1.00  0.00     8.904 C  
HETATM    9  C   UNL     1      -9.579  13.857  69.544  1.00  0.00     0.739 A  
HETATM   10  C   UNL     1     -10.038  14.446  68.347  1.00  0.00    -0.244 A  
HETATM   11  O   UNL     1     -11.314  14.103  66.297  1.00  0.00    -0.322 OA 
HETATM   12  C   UNL     1     -10.754  13.671  67.460  1.00  0.00    -0.259 A  
HETATM   13  C   UNL     1      -9.814  12.462  69.761  1.00  0.00     1.825 A  
HETATM   14  C   UNL     1     -11.011  12.343  67.696  1.00  0.00    -0.236 A  
HETATM   15  C   UNL     1     -12.031  12.921  65.886  1.00  0.00    -0.448 C  
HETATM   16  O   UNL     1     -11.778  11.778  66.727  1.00  0.00    -0.555 OA 
HETATM   17  C   UNL     1     -10.540  11.707  68.818  1.00  0.00    -0.241 A  
ENDROOT
BRANCH   7  18
HETATM   18  C   UNL     1      -9.776  15.869  71.134  1.00  0.00     2.342 A  
HETATM   19  O   UNL     1     -11.833  18.690  73.427  1.00  0.00     1.818 OA 
HETATM   20  C   UNL     1     -11.776  16.633  72.269  1.00  0.00    -0.106 A  
HETATM   21  C   UNL     1      -9.194  17.118  71.396  1.00  0.00     7.821 A  
HETATM   22  H   UNL     1     -12.706  18.503  73.751  1.00  0.00     0.000 HD 
HETATM   23  C   UNL     1     -11.106  15.664  71.524  1.00  0.00    -0.252 A  
HETATM   24  C   UNL     1     -11.132  17.834  72.614  1.00  0.00     2.495 A  
HETATM   25  C   UNL     1      -9.850  18.110  72.137  1.00  0.00     7.655 A  
BRANCH  25  26
HETATM   26  O   UNL     1      -9.067  19.222  72.281  1.00  0.00     4.743 OA 
HETATM   27  C   UNL     1      -8.790  20.066  71.186  1.00  0.00     2.249 C  
ENDBRANCH  25  26
BRANCH  20  28
HETATM   28  O   UNL     1     -13.050  16.443  72.767  1.00  0.00    -0.238 OA 
HETATM   29  C   UNL     1     -14.103  17.097  72.067  1.00  0.00     7.553 C  
ENDBRANCH  20  28
ENDBRANCH   7  18
BRANCH   8  30
HETATM   30  O   UNL     1      -8.389  10.766  70.835  1.00  0.00     1.868 OA 
BRANCH  30  31
HETATM   31  C   UNL     1      -7.580  10.616  69.664  1.00  0.00    -0.092 C  
HETATM   32  O   UNL     1      -7.875  11.590  68.654  1.00  0.00    -0.133 OA 
HETATM   33  C   UNL     1      -7.309  11.246  67.380  1.00  0.00    -0.115 C  
HETATM   34  C   UNL     1      -7.462  12.342  66.324  1.00  0.00     1.006 C  
HETATM   35  O   UNL     1      -6.989  11.880  65.057  1.00  0.00     2.024 OA 
HETATM   36  C   UNL     1      -7.707  10.730  64.618  1.00  0.00     0.239 C  
HETATM   37  C   UNL     1      -7.135  10.246  63.293  1.00  0.00    -0.099 C  
HETATM   38  O   UNL     1      -7.552   9.651  65.534  1.00  0.00    -0.102 OA 
HETATM   39  C   UNL     1      -7.998   9.996  66.846  1.00  0.00    -0.113 C  
HETATM   40  C   UNL     1      -7.622   8.836  67.749  1.00  0.00    -0.097 C  
HETATM   41  O   UNL     1      -8.374   7.674  67.363  1.00  0.00    -0.114 OA 
HETATM   42  C   UNL     1      -7.859   9.144  69.229  1.00  0.00    -0.095 C  
HETATM   43  H   UNL     1      -8.138   6.948  67.927  1.00  0.00     0.000 HD 
HETATM   44  O   UNL     1      -7.055   8.261  70.049  1.00  0.00    -0.043 OA 
HETATM   45  H   UNL     1      -7.225   7.364  69.784  1.00  0.00     0.000 HD 
ENDBRANCH  30  31
ENDBRANCH   8  30
TORSDOF 5
ENDMDL
MODEL      226
REMARK 921   NORMALIZED FREE ENERGY PREDICTED BY IDOCK:  119.96 KCAL/MOL
REMARK 922        TOTAL FREE ENERGY PREDICTED BY IDOCK:  153.79 KCAL/MOL
REMARK 923 INTER-LIGAND FREE ENERGY PREDICTED BY IDOCK:  147.65 KCAL/MOL
REMARK 924 INTRA-LIGAND FREE ENERGY PREDICTED BY IDOCK:    6.14 KCAL/MOL
REMARK 927      BINDING AFFINITY PREDICTED BY RF-SCORE:    0.00 PKD
ROOT
HETATM    1  C   UNL     1     -10.751   5.707  68.630  1.00  0.00    -0.249 C  
HETATM    2  C   UNL     1     -10.327   6.242  67.293  1.00  0.00    -0.216 C  
HETATM    3  O   UNL     1      -9.298   7.185  67.633  1.00  0.00    -0.127 OA 
HETATM    4  C   UNL     1      -9.472   7.617  68.925  1.00  0.00    -0.149 C  
HETATM    5  C   UNL     1     -10.646   6.912  69.539  1.00  0.00    -0.261 C  
HETATM    6  O   UNL     1      -8.839   8.533  69.423  1.00  0.00    -0.138 OA 
HETATM    7  C   UNL     1     -10.666   6.503  71.023  1.00  0.00    -0.289 C  
HETATM    8  C   UNL     1     -12.090   5.009  68.771  1.00  0.00     8.040 C  
HETATM    9  C   UNL     1     -11.699   5.398  71.291  1.00  0.00     0.772 A  
HETATM   10  C   UNL     1     -11.976   5.033  72.625  1.00  0.00     0.104 A  
HETATM   11  O   UNL     1     -13.134   3.451  74.077  1.00  0.00     1.940 OA 
HETATM   12  C   UNL     1     -12.816   3.963  72.858  1.00  0.00     1.767 A  
HETATM   13  C   UNL     1     -12.352   4.692  70.232  1.00  0.00     9.620 A  
HETATM   14  C   UNL     1     -13.406   3.264  71.832  1.00  0.00     8.241 A  
HETATM   15  C   UNL     1     -13.906   2.295  73.693  1.00  0.00     1.395 C  
HETATM   16  O   UNL     1     -14.149   2.216  72.274  1.00  0.00     2.288 OA 
HETATM   17  C   UNL     1     -13.213   3.614  70.518  1.00  0.00    21.820 A  
ENDROOT
BRANCH   7  18
HETATM   18  C   UNL     1      -9.264   6.188  71.544  1.00  0.00    -0.152 A  
HETATM   19  O   UNL     1      -5.249   5.169  72.075  1.00  0.00    -0.005 OA 
HETATM   20  C   UNL     1      -7.540   4.600  72.154  1.00  0.00    -0.083 A  
HETATM   21  C   UNL     1      -8.273   7.177  71.459  1.00  0.00    -0.107 A  
HETATM   22  H   UNL     1      -5.002   4.275  72.280  1.00  0.00     0.000 HD 
HETATM   23  C   UNL     1      -8.886   4.906  71.962  1.00  0.00    -0.139 A  
HETATM   24  C   UNL     1      -6.553   5.581  71.955  1.00  0.00    -0.056 A  
HETATM   25  C   UNL     1      -6.915   6.895  71.654  1.00  0.00    -0.070 A  
BRANCH  25  26
HETATM   26  O   UNL     1      -6.146   8.014  71.488  1.00  0.00    -0.034 OA 
HETATM   27  C   UNL     1      -5.160   8.080  70.482  1.00  0.00    -0.023 C  
ENDBRANCH  25  26
BRANCH  20  28
HETATM   28  O   UNL     1      -7.100   3.329  72.465  1.00  0.00    -0.039 OA 
HETATM   29  C   UNL     1      -6.903   3.052  73.848  1.00  0.00    -0.035 C  
ENDBRANCH  20  28
ENDBRANCH   7  18
BRANCH   8  30
HETATM   30  O   UNL     1     -13.210   5.515  68.076  1.00  0.00    12.325 OA 
BRANCH  30  31
HETATM   31  C   UNL     1     -13.191   6.598  67.140  1.00  0.00    13.769 C  
HETATM   32  O   UNL     1     -12.180   6.446  66.135  1.00  0.00     2.764 OA 
HETATM   33  C   UNL     1     -11.946   7.662  65.406  1.00  0.00    11.351 C  
HETATM   34  C   UNL     1     -10.997   7.493  64.218  1.00  0.00    13.081 C  
HETATM   35  O   UNL     1     -10.716   8.762  63.624  1.00  0.00     6.610 OA 
HETATM   36  C   UNL     1     -10.115   9.656  64.556  1.00  0.00     0.734 C  
HETATM   37  C   UNL     1      -9.883  11.007  63.892  1.00  0.00    -0.368 C  
HETATM   38  O   UNL     1     -10.981   9.901  65.659  1.00  0.00     0.466 OA 
HETATM   39  C   UNL     1     -11.331   8.696  66.341  1.00  0.00     2.738 C  
HETATM   40  C   UNL     1     -12.379   9.072  67.372  1.00  0.00     7.431 C  
HETATM   41  O   UNL     1     -11.784   9.932  68.358  1.00  0.00    -0.534 OA 
HETATM   42  C   UNL     1     -12.999   7.849  68.051  1.00  0.00    11.631 C  
HETATM   43  H   UNL     1     -12.440  10.168  69.003  1.00  0.00     0.000 HD 
HETATM   44  O   UNL     1     -14.282   8.203  68.623  1.00  0.00    11.836 OA 
HETATM   45  H   UNL     1     -14.166   8.966  69.178  1.00  0.00     0.000 HD 
ENDBRANCH  30  31
ENDBRANCH   8  30
TORSDOF 5
ENDMDL
