MODEL        1
REMARK 921   NORMALIZED FREE ENERGY PREDICTED BY IDOCK:   -7.30 KCAL/MOL
REMARK 922        TOTAL FREE ENERGY PREDICTED BY IDOCK:   -9.45 KCAL/MOL
REMARK 923 INTER-LIGAND FREE ENERGY PREDICTED BY IDOCK:   -8.58 KCAL/MOL
REMARK 924 INTRA-LIGAND FREE ENERGY PREDICTED BY IDOCK:   -0.86 KCAL/MOL
REMARK 927      BINDING AFFINITY PREDICTED BY RF-SCORE:    0.00 PKD
ROOT
HETATM    1  C   UNL     1     -12.494  12.185  64.301  1.00  0.00    -0.461 C  
HETATM    2  C   UNL     1     -12.094  12.799  65.609  1.00  0.00    -0.459 A  
HETATM    3  N   UNL     1     -11.841  11.961  66.639  1.00  0.00    -0.590 NA 
HETATM    4  C   UNL     1     -11.666  12.514  67.868  1.00  0.00    -0.359 A  
HETATM    5  C   UNL     1     -11.804  13.868  68.153  1.00  0.00    -0.407 A  
HETATM    6  C   UNL     1     -12.036  14.177  65.748  1.00  0.00    -0.433 A  
HETATM    7  C   UNL     1     -11.899  14.706  67.029  1.00  0.00    -0.358 A  
ENDROOT
BRANCH   5   8
HETATM    8  C   UNL     1     -11.923  14.426  69.520  1.00  0.00    -0.330 A  
HETATM    9  C   UNL     1     -11.199  15.532  70.045  1.00  0.00    -0.325 A  
HETATM   10  C   UNL     1     -11.427  15.827  71.413  1.00  0.00    -0.496 A  
HETATM   11  N   UNL     1     -12.757  13.670  70.303  1.00  0.00    -0.171 NA 
HETATM   12  C   UNL     1     -12.282  15.062  72.195  1.00  0.00    -0.368 A  
HETATM   13  C   UNL     1     -12.909  13.992  71.606  1.00  0.00    -0.352 A  
HETATM   14 CL   UNL     1     -12.513  15.429  73.855  1.00  0.00    -0.700 Cl 
BRANCH   9  15
HETATM   15  C   UNL     1     -10.190  16.370  69.328  1.00  0.00    -0.278 A  
HETATM   16  C   UNL     1      -8.863  15.910  69.158  1.00  0.00    -0.253 A  
HETATM   17  C   UNL     1      -7.911  16.636  68.431  1.00  0.00    -0.205 A  
HETATM   18  C   UNL     1      -8.259  17.870  67.891  1.00  0.00    -0.246 A  
HETATM   19  C   UNL     1      -9.542  18.379  68.071  1.00  0.00    -0.316 A  
HETATM   20  C   UNL     1     -10.504  17.609  68.737  1.00  0.00    -0.287 A  
BRANCH  18  21
HETATM   21  S   UNL     1      -7.060  18.804  66.978  1.00  0.00    -0.206 S  
HETATM   22  C   UNL     1      -7.380  20.477  67.495  1.00  0.00    -0.323 C  
HETATM   23  O   UNL     1      -5.747  18.425  67.461  1.00  0.00    -0.148 OA 
HETATM   24  O   UNL     1      -7.401  18.699  65.572  1.00  0.00    -0.513 OA 
ENDBRANCH  18  21
ENDBRANCH   9  15
ENDBRANCH   5   8
TORSDOF 3
ENDMDL
MODEL        2
REMARK 921   NORMALIZED FREE ENERGY PREDICTED BY IDOCK:   -7.12 KCAL/MOL
REMARK 922        TOTAL FREE ENERGY PREDICTED BY IDOCK:   -9.23 KCAL/MOL
REMARK 923 INTER-LIGAND FREE ENERGY PREDICTED BY IDOCK:   -8.59 KCAL/MOL
REMARK 924 INTRA-LIGAND FREE ENERGY PREDICTED BY IDOCK:   -0.64 KCAL/MOL
REMARK 927      BINDING AFFINITY PREDICTED BY RF-SCORE:    0.00 PKD
ROOT
HETATM    1  C   UNL     1     -12.625  16.375  73.473  1.00  0.00    -0.531 C  
HETATM    2  C   UNL     1     -12.258  15.486  72.324  1.00  0.00    -0.415 A  
HETATM    3  N   UNL     1     -11.392  15.977  71.409  1.00  0.00    -0.361 NA 
HETATM    4  C   UNL     1     -11.205  15.254  70.273  1.00  0.00    -0.297 A  
HETATM    5  C   UNL     1     -11.896  14.089  69.954  1.00  0.00    -0.393 A  
HETATM    6  C   UNL     1     -12.830  14.230  72.199  1.00  0.00    -0.424 A  
HETATM    7  C   UNL     1     -12.651  13.539  71.004  1.00  0.00    -0.438 A  
ENDROOT
BRANCH   5   8
HETATM    8  C   UNL     1     -11.925  13.480  68.604  1.00  0.00    -0.343 A  
HETATM    9  C   UNL     1     -11.540  12.152  68.272  1.00  0.00    -0.382 A  
HETATM   10  C   UNL     1     -11.578  11.824  66.893  1.00  0.00    -0.310 A  
HETATM   11  N   UNL     1     -12.272  14.395  67.644  1.00  0.00    -0.269 NA 
HETATM   12  C   UNL     1     -11.941  12.755  65.928  1.00  0.00    -0.449 A  
HETATM   13  C   UNL     1     -12.263  14.023  66.345  1.00  0.00    -0.460 A  
HETATM   14 CL   UNL     1     -11.949  12.335  64.265  1.00  0.00    -0.471 Cl 
BRANCH   9  15
HETATM   15  C   UNL     1     -11.047  11.095  69.208  1.00  0.00    -0.318 A  
HETATM   16  C   UNL     1      -9.690  10.698  69.193  1.00  0.00    -0.205 A  
HETATM   17  C   UNL     1      -9.179   9.763  70.103  1.00  0.00    -0.253 A  
HETATM   18  C   UNL     1     -10.034   9.169  71.026  1.00  0.00    -0.297 A  
HETATM   19  C   UNL     1     -11.385   9.500  71.046  1.00  0.00    -0.423 A  
HETATM   20  C   UNL     1     -11.867  10.489  70.179  1.00  0.00    -0.404 A  
BRANCH  18  21
HETATM   21  S   UNL     1      -9.402   7.976  72.175  1.00  0.00    -0.214 S  
HETATM   22  C   UNL     1     -10.854   7.484  73.078  1.00  0.00    -0.392 C  
HETATM   23  O   UNL     1      -8.935   6.835  71.413  1.00  0.00    -0.142 OA 
HETATM   24  O   UNL     1      -8.523   8.675  73.093  1.00  0.00    -0.398 OA 
ENDBRANCH  18  21
ENDBRANCH   9  15
ENDBRANCH   5   8
TORSDOF 3
ENDMDL
MODEL        3
REMARK 921   NORMALIZED FREE ENERGY PREDICTED BY IDOCK:   -7.10 KCAL/MOL
REMARK 922        TOTAL FREE ENERGY PREDICTED BY IDOCK:   -9.21 KCAL/MOL
REMARK 923 INTER-LIGAND FREE ENERGY PREDICTED BY IDOCK:   -8.52 KCAL/MOL
REMARK 924 INTRA-LIGAND FREE ENERGY PREDICTED BY IDOCK:   -0.68 KCAL/MOL
REMARK 927      BINDING AFFINITY PREDICTED BY RF-SCORE:    0.00 PKD
ROOT
HETATM    1  C   UNL     1     -12.779  16.182  74.160  1.00  0.00    -0.582 C  
HETATM    2  C   UNL     1     -12.433  15.298  73.000  1.00  0.00    -0.422 A  
HETATM    3  N   UNL     1     -11.363  15.644  72.249  1.00  0.00    -0.346 NA 
HETATM    4  C   UNL     1     -11.162  14.959  71.093  1.00  0.00    -0.143 A  
HETATM    5  C   UNL     1     -12.017  13.983  70.592  1.00  0.00    -0.376 A  
HETATM    6  C   UNL     1     -13.221  14.197  72.699  1.00  0.00    -0.612 A  
HETATM    7  C   UNL     1     -13.011  13.548  71.485  1.00  0.00    -0.440 A  
ENDROOT
BRANCH   5   8
HETATM    8  C   UNL     1     -11.971  13.465  69.205  1.00  0.00    -0.317 A  
HETATM    9  C   UNL     1     -11.694  12.126  68.815  1.00  0.00    -0.374 A  
HETATM   10  C   UNL     1     -11.624  11.891  67.419  1.00  0.00    -0.367 A  
HETATM   11  N   UNL     1     -12.121  14.470  68.285  1.00  0.00    -0.255 NA 
HETATM   12  C   UNL     1     -11.788  12.914  66.494  1.00  0.00    -0.407 A  
HETATM   13  C   UNL     1     -12.018  14.181  66.970  1.00  0.00    -0.439 A  
HETATM   14 CL   UNL     1     -11.669  12.601  64.811  1.00  0.00    -0.378 Cl 
BRANCH   9  15
HETATM   15  C   UNL     1     -11.412  10.965  69.714  1.00  0.00    -0.390 A  
HETATM   16  C   UNL     1     -12.429  10.429  70.538  1.00  0.00    -0.403 A  
HETATM   17  C   UNL     1     -12.219   9.299  71.338  1.00  0.00    -0.426 A  
HETATM   18  C   UNL     1     -10.963   8.703  71.364  1.00  0.00    -0.271 A  
HETATM   19  C   UNL     1      -9.922   9.225  70.602  1.00  0.00    -0.336 A  
HETATM   20  C   UNL     1     -10.165  10.310  69.751  1.00  0.00    -0.262 A  
BRANCH  18  21
HETATM   21  S   UNL     1     -10.682   7.279  72.382  1.00  0.00    -0.265 S  
HETATM   22  C   UNL     1      -9.406   6.404  71.502  1.00  0.00    -0.148 C  
HETATM   23  O   UNL     1     -10.127   7.740  73.640  1.00  0.00    -0.294 OA 
HETATM   24  O   UNL     1     -11.884   6.470  72.345  1.00  0.00    -0.269 OA 
ENDBRANCH  18  21
ENDBRANCH   9  15
ENDBRANCH   5   8
TORSDOF 3
ENDMDL
MODEL        4
REMARK 921   NORMALIZED FREE ENERGY PREDICTED BY IDOCK:   -7.09 KCAL/MOL
REMARK 922        TOTAL FREE ENERGY PREDICTED BY IDOCK:   -9.20 KCAL/MOL
REMARK 923 INTER-LIGAND FREE ENERGY PREDICTED BY IDOCK:   -8.33 KCAL/MOL
REMARK 924 INTRA-LIGAND FREE ENERGY PREDICTED BY IDOCK:   -0.86 KCAL/MOL
REMARK 927      BINDING AFFINITY PREDICTED BY RF-SCORE:    0.00 PKD
ROOT
HETATM    1  C   UNL     1     -12.465  12.266  64.245  1.00  0.00    -0.508 C  
HETATM    2  C   UNL     1     -12.074  12.842  65.571  1.00  0.00    -0.458 A  
HETATM    3  N   UNL     1     -11.844  11.977  66.584  1.00  0.00    -0.610 NA 
HETATM    4  C   UNL     1     -11.678  12.498  67.828  1.00  0.00    -0.359 A  
HETATM    5  C   UNL     1     -11.802  13.847  68.144  1.00  0.00    -0.407 A  
HETATM    6  C   UNL     1     -12.000  14.216  65.744  1.00  0.00    -0.410 A  
HETATM    7  C   UNL     1     -11.872  14.712  67.039  1.00  0.00    -0.358 A  
ENDROOT
BRANCH   5   8
HETATM    8  C   UNL     1     -11.930  14.374  69.522  1.00  0.00    -0.330 A  
HETATM    9  C   UNL     1     -11.167  15.428  70.096  1.00  0.00    -0.318 A  
HETATM   10  C   UNL     1     -11.417  15.698  71.465  1.00  0.00    -0.494 A  
HETATM   11  N   UNL     1     -12.821  13.640  70.262  1.00  0.00    -0.088 NA 
HETATM   12  C   UNL     1     -12.330  14.956  72.204  1.00  0.00    -0.351 A  
HETATM   13  C   UNL     1     -12.993  13.935  71.569  1.00  0.00    -0.358 A  
HETATM   14 CL   UNL     1     -12.589  15.290  73.866  1.00  0.00    -0.706 Cl 
BRANCH   9  15
HETATM   15  C   UNL     1     -10.098  16.233  69.429  1.00  0.00    -0.253 A  
HETATM   16  C   UNL     1     -10.356  17.556  69.000  1.00  0.00    -0.303 A  
HETATM   17  C   UNL     1      -9.358  18.362  68.437  1.00  0.00    -0.347 A  
HETATM   18  C   UNL     1      -8.082  17.842  68.250  1.00  0.00    -0.283 A  
HETATM   19  C   UNL     1      -7.798  16.530  68.618  1.00  0.00    -0.226 A  
HETATM   20  C   UNL     1      -8.785  15.760  69.247  1.00  0.00    -0.261 A  
BRANCH  18  21
HETATM   21  S   UNL     1      -6.814  18.849  67.528  1.00  0.00    -0.200 S  
HETATM   22  C   UNL     1      -7.534  19.345  65.977  1.00  0.00    -0.289 C  
HETATM   23  O   UNL     1      -6.665  20.029  68.355  1.00  0.00    -0.282 OA 
HETATM   24  O   UNL     1      -5.684  17.988  67.239  1.00  0.00    -0.134 OA 
ENDBRANCH  18  21
ENDBRANCH   9  15
ENDBRANCH   5   8
TORSDOF 3
ENDMDL
MODEL        5
REMARK 921   NORMALIZED FREE ENERGY PREDICTED BY IDOCK:   -6.95 KCAL/MOL
REMARK 922        TOTAL FREE ENERGY PREDICTED BY IDOCK:   -9.03 KCAL/MOL
REMARK 923 INTER-LIGAND FREE ENERGY PREDICTED BY IDOCK:   -8.06 KCAL/MOL
REMARK 924 INTRA-LIGAND FREE ENERGY PREDICTED BY IDOCK:   -0.98 KCAL/MOL
REMARK 927      BINDING AFFINITY PREDICTED BY RF-SCORE:    0.00 PKD
ROOT
HETATM    1  C   UNL     1      -7.481  19.717  67.991  1.00  0.00    -0.329 C  
HETATM    2  C   UNL     1      -8.389  18.556  68.264  1.00  0.00    -0.322 A  
HETATM    3  N   UNL     1      -9.721  18.786  68.235  1.00  0.00    -0.342 NA 
HETATM    4  C   UNL     1     -10.538  17.789  68.666  1.00  0.00    -0.195 A  
HETATM    5  C   UNL     1     -10.099  16.583  69.204  1.00  0.00    -0.287 A  
HETATM    6  C   UNL     1      -7.861  17.313  68.576  1.00  0.00    -0.266 A  
HETATM    7  C   UNL     1      -8.725  16.331  69.055  1.00  0.00    -0.246 A  
ENDROOT
BRANCH   5   8
HETATM    8  C   UNL     1     -10.962  15.640  69.951  1.00  0.00    -0.318 A  
HETATM    9  C   UNL     1     -11.504  14.422  69.457  1.00  0.00    -0.333 A  
HETATM   10  C   UNL     1     -12.373  13.729  70.338  1.00  0.00    -0.423 A  
HETATM   11  N   UNL     1     -11.292  16.130  71.188  1.00  0.00    -0.373 NA 
HETATM   12  C   UNL     1     -12.693  14.228  71.594  1.00  0.00    -0.352 A  
HETATM   13  C   UNL     1     -12.145  15.430  71.968  1.00  0.00    -0.399 A  
HETATM   14 CL   UNL     1     -13.769  13.379  72.625  1.00  0.00    -0.616 Cl 
BRANCH   9  15
HETATM   15  C   UNL     1     -11.305  13.833  68.097  1.00  0.00    -0.315 A  
HETATM   16  C   UNL     1     -10.163  13.048  67.814  1.00  0.00    -0.228 A  
HETATM   17  C   UNL     1      -9.980  12.422  66.574  1.00  0.00    -0.242 A  
HETATM   18  C   UNL     1     -10.923  12.607  65.569  1.00  0.00    -0.279 A  
HETATM   19  C   UNL     1     -12.040  13.407  65.792  1.00  0.00    -0.481 A  
HETATM   20  C   UNL     1     -12.247  13.967  67.059  1.00  0.00    -0.392 A  
BRANCH  18  21
HETATM   21  S   UNL     1     -10.697  11.830  63.991  1.00  0.00    -0.419 S  
HETATM   22  C   UNL     1     -10.011  10.245  64.422  1.00  0.00    -0.261 C  
HETATM   23  O   UNL     1     -12.009  11.613  63.415  1.00  0.00    -0.424 OA 
HETATM   24  O   UNL     1      -9.679  12.577  63.278  1.00  0.00    -0.215 OA 
ENDBRANCH  18  21
ENDBRANCH   9  15
ENDBRANCH   5   8
TORSDOF 3
ENDMDL
MODEL        6
REMARK 921   NORMALIZED FREE ENERGY PREDICTED BY IDOCK:   -6.92 KCAL/MOL
REMARK 922        TOTAL FREE ENERGY PREDICTED BY IDOCK:   -9.00 KCAL/MOL
REMARK 923 INTER-LIGAND FREE ENERGY PREDICTED BY IDOCK:   -8.51 KCAL/MOL
REMARK 924 INTRA-LIGAND FREE ENERGY PREDICTED BY IDOCK:   -0.49 KCAL/MOL
REMARK 927      BINDING AFFINITY PREDICTED BY RF-SCORE:    0.00 PKD
ROOT
HETATM    1  C   UNL     1      -9.497  10.954  65.081  1.00  0.00    -0.268 C  
HETATM    2  C   UNL     1     -10.101  11.893  66.081  1.00  0.00    -0.228 A  
HETATM    3  N   UNL     1      -9.272  12.455  66.989  1.00  0.00    -0.201 NA 
HETATM    4  C   UNL     1      -9.839  13.152  68.009  1.00  0.00    -0.231 A  
HETATM    5  C   UNL     1     -11.208  13.264  68.225  1.00  0.00    -0.309 A  
HETATM    6  C   UNL     1     -11.467  12.129  66.086  1.00  0.00    -0.429 A  
HETATM    7  C   UNL     1     -12.016  12.810  67.169  1.00  0.00    -0.351 A  
ENDROOT
BRANCH   5   8
HETATM    8  C   UNL     1     -11.817  13.748  69.486  1.00  0.00    -0.339 A  
HETATM    9  C   UNL     1     -12.251  12.943  70.575  1.00  0.00    -0.395 A  
HETATM   10  C   UNL     1     -12.881  13.634  71.641  1.00  0.00    -0.427 A  
HETATM   11  N   UNL     1     -12.032  15.102  69.455  1.00  0.00    -0.323 NA 
HETATM   12  C   UNL     1     -13.085  15.007  71.606  1.00  0.00    -0.364 A  
HETATM   13  C   UNL     1     -12.660  15.693  70.495  1.00  0.00    -0.379 A  
HETATM   14 CL   UNL     1     -13.875  15.808  72.901  1.00  0.00    -0.641 Cl 
BRANCH   9  15
HETATM   15  C   UNL     1     -12.168  11.454  70.684  1.00  0.00    -0.484 A  
HETATM   16  C   UNL     1     -11.183  10.734  69.969  1.00  0.00    -0.366 A  
HETATM   17  C   UNL     1     -11.032   9.348  70.104  1.00  0.00    -0.282 A  
HETATM   18  C   UNL     1     -11.899   8.642  70.931  1.00  0.00    -0.225 A  
HETATM   19  C   UNL     1     -12.910   9.307  71.619  1.00  0.00    -0.447 A  
HETATM   20  C   UNL     1     -13.003  10.702  71.532  1.00  0.00    -0.566 A  
BRANCH  18  21
HETATM   21  S   UNL     1     -11.724   6.886  71.100  1.00  0.00    -0.354 S  
HETATM   22  C   UNL     1     -10.154   6.718  71.921  1.00  0.00    -0.180 C  
HETATM   23  O   UNL     1     -12.759   6.426  72.006  1.00  0.00    -0.281 OA 
HETATM   24  O   UNL     1     -11.592   6.329  69.768  1.00  0.00    -0.436 OA 
ENDBRANCH  18  21
ENDBRANCH   9  15
ENDBRANCH   5   8
TORSDOF 3
ENDMDL
MODEL        7
REMARK 921   NORMALIZED FREE ENERGY PREDICTED BY IDOCK:   -6.86 KCAL/MOL
REMARK 922        TOTAL FREE ENERGY PREDICTED BY IDOCK:   -8.93 KCAL/MOL
REMARK 923 INTER-LIGAND FREE ENERGY PREDICTED BY IDOCK:   -8.42 KCAL/MOL
REMARK 924 INTRA-LIGAND FREE ENERGY PREDICTED BY IDOCK:   -0.50 KCAL/MOL
REMARK 927      BINDING AFFINITY PREDICTED BY RF-SCORE:    0.00 PKD
ROOT
HETATM    1  C   UNL     1     -12.006  15.949  64.345  1.00  0.00    -0.018 C  
HETATM    2  C   UNL     1     -11.610  14.547  64.697  1.00  0.00    -0.408 A  
HETATM    3  N   UNL     1     -12.576  13.602  64.673  1.00  0.00    -0.641 NA 
HETATM    4  C   UNL     1     -12.266  12.376  65.172  1.00  0.00    -0.384 A  
HETATM    5  C   UNL     1     -11.054  12.049  65.771  1.00  0.00    -0.371 A  
HETATM    6  C   UNL     1     -10.306  14.260  65.072  1.00  0.00    -0.448 A  
HETATM    7  C   UNL     1     -10.037  13.007  65.617  1.00  0.00    -0.276 A  
ENDROOT
BRANCH   5   8
HETATM    8  C   UNL     1     -10.825  10.832  66.583  1.00  0.00    -0.164 A  
HETATM    9  C   UNL     1     -11.081  10.688  67.975  1.00  0.00    -0.361 A  
HETATM   10  C   UNL     1     -10.701   9.448  68.548  1.00  0.00    -0.203 A  
HETATM   11  N   UNL     1     -10.214   9.846  65.854  1.00  0.00    -0.237 NA 
HETATM   12  C   UNL     1     -10.092   8.450  67.798  1.00  0.00    -0.207 A  
HETATM   13  C   UNL     1      -9.857   8.696  66.468  1.00  0.00    -0.278 A  
HETATM   14 CL   UNL     1      -9.620   6.971  68.528  1.00  0.00    -0.137 Cl 
BRANCH   9  15
HETATM   15  C   UNL     1     -11.646  11.719  68.899  1.00  0.00    -0.370 A  
HETATM   16  C   UNL     1     -12.183  11.344  70.153  1.00  0.00    -0.401 A  
HETATM   17  C   UNL     1     -12.654  12.290  71.072  1.00  0.00    -0.352 A  
HETATM   18  C   UNL     1     -12.638  13.639  70.735  1.00  0.00    -0.325 A  
HETATM   19  C   UNL     1     -12.157  14.047  69.494  1.00  0.00    -0.397 A  
HETATM   20  C   UNL     1     -11.622  13.098  68.614  1.00  0.00    -0.356 A  
BRANCH  18  21
HETATM   21  S   UNL     1     -13.243  14.845  71.885  1.00  0.00    -0.387 S  
HETATM   22  C   UNL     1     -11.879  15.979  72.028  1.00  0.00    -0.533 C  
HETATM   23  O   UNL     1     -14.346  15.541  71.254  1.00  0.00    -0.536 OA 
HETATM   24  O   UNL     1     -13.408  14.184  73.165  1.00  0.00    -0.634 OA 
ENDBRANCH  18  21
ENDBRANCH   9  15
ENDBRANCH   5   8
TORSDOF 3
ENDMDL
MODEL        8
REMARK 921   NORMALIZED FREE ENERGY PREDICTED BY IDOCK:   -6.74 KCAL/MOL
REMARK 922        TOTAL FREE ENERGY PREDICTED BY IDOCK:   -8.79 KCAL/MOL
REMARK 923 INTER-LIGAND FREE ENERGY PREDICTED BY IDOCK:   -8.28 KCAL/MOL
REMARK 924 INTRA-LIGAND FREE ENERGY PREDICTED BY IDOCK:   -0.50 KCAL/MOL
REMARK 927      BINDING AFFINITY PREDICTED BY RF-SCORE:    0.00 PKD
ROOT
HETATM    1  C   UNL     1     -12.725  15.705  74.000  1.00  0.00    -0.710 C  
HETATM    2  C   UNL     1     -12.451  15.624  72.529  1.00  0.00    -0.428 A  
HETATM    3  N   UNL     1     -13.508  15.434  71.707  1.00  0.00    -0.453 NA 
HETATM    4  C   UNL     1     -13.245  15.171  70.400  1.00  0.00    -0.133 A  
HETATM    5  C   UNL     1     -11.971  15.009  69.866  1.00  0.00    -0.374 A  
HETATM    6  C   UNL     1     -11.151  15.700  72.053  1.00  0.00    -0.068 A  
HETATM    7  C   UNL     1     -10.918  15.382  70.718  1.00  0.00    -0.349 A  
ENDROOT
BRANCH   5   8
HETATM    8  C   UNL     1     -11.692  14.423  68.534  1.00  0.00    -0.335 A  
HETATM    9  C   UNL     1     -11.567  13.039  68.233  1.00  0.00    -0.375 A  
HETATM   10  C   UNL     1     -11.214  12.727  66.896  1.00  0.00    -0.339 A  
HETATM   11  N   UNL     1     -11.448  15.393  67.597  1.00  0.00    -0.298 NA 
HETATM   12  C   UNL     1     -10.979  13.716  65.950  1.00  0.00    -0.282 A  
HETATM   13  C   UNL     1     -11.092  15.026  66.346  1.00  0.00    -0.329 A  
HETATM   14 CL   UNL     1     -10.527  13.306  64.347  1.00  0.00    -0.439 Cl 
BRANCH   9  15
HETATM   15  C   UNL     1     -11.707  11.893  69.184  1.00  0.00    -0.380 A  
HETATM   16  C   UNL     1     -10.985  10.695  68.976  1.00  0.00    -0.295 A  
HETATM   17  C   UNL     1     -11.038   9.629  69.884  1.00  0.00    -0.268 A  
HETATM   18  C   UNL     1     -11.854   9.726  71.006  1.00  0.00    -0.356 A  
HETATM   19  C   UNL     1     -12.614  10.871  71.225  1.00  0.00    -0.526 A  
HETATM   20  C   UNL     1     -12.496  11.957  70.348  1.00  0.00    -0.252 A  
BRANCH  18  21
HETATM   21  S   UNL     1     -11.938   8.379  72.156  1.00  0.00    -0.392 S  
HETATM   22  C   UNL     1     -12.215   6.971  71.103  1.00  0.00    -0.382 C  
HETATM   23  O   UNL     1     -10.629   8.238  72.765  1.00  0.00    -0.340 OA 
HETATM   24  O   UNL     1     -13.125   8.569  72.967  1.00  0.00    -0.178 OA 
ENDBRANCH  18  21
ENDBRANCH   9  15
ENDBRANCH   5   8
TORSDOF 3
ENDMDL
MODEL        9
REMARK 921   NORMALIZED FREE ENERGY PREDICTED BY IDOCK:   -6.72 KCAL/MOL
REMARK 922        TOTAL FREE ENERGY PREDICTED BY IDOCK:   -8.76 KCAL/MOL
REMARK 923 INTER-LIGAND FREE ENERGY PREDICTED BY IDOCK:   -8.38 KCAL/MOL
REMARK 924 INTRA-LIGAND FREE ENERGY PREDICTED BY IDOCK:   -0.37 KCAL/MOL
REMARK 927      BINDING AFFINITY PREDICTED BY RF-SCORE:    0.00 PKD
ROOT
HETATM    1  C   UNL     1      -9.934  18.106  66.126  1.00  0.00    -0.301 C  
HETATM    2  C   UNL     1      -9.834  16.617  65.989  1.00  0.00    -0.309 A  
HETATM    3  N   UNL     1     -10.720  16.004  65.172  1.00  0.00    -0.538 NA 
HETATM    4  C   UNL     1     -10.755  14.646  65.193  1.00  0.00    -0.414 A  
HETATM    5  C   UNL     1     -10.001  13.847  66.045  1.00  0.00    -0.325 A  
HETATM    6  C   UNL     1      -8.889  15.908  66.716  1.00  0.00    -0.294 A  
HETATM    7  C   UNL     1      -8.985  14.520  66.745  1.00  0.00    -0.270 A  
ENDROOT
BRANCH   5   8
HETATM    8  C   UNL     1     -10.258  12.409  66.288  1.00  0.00    -0.238 A  
HETATM    9  C   UNL     1     -10.920  11.850  67.416  1.00  0.00    -0.315 A  
HETATM   10  C   UNL     1     -10.973  10.434  67.463  1.00  0.00    -0.358 A  
HETATM   11  N   UNL     1      -9.675  11.623  65.329  1.00  0.00    -0.237 NA 
HETATM   12  C   UNL     1     -10.388   9.646  66.481  1.00  0.00    -0.194 A  
HETATM   13  C   UNL     1      -9.742  10.278  65.448  1.00  0.00    -0.278 A  
HETATM   14 CL   UNL     1     -10.446   7.934  66.582  1.00  0.00    -0.312 Cl 
BRANCH   9  15
HETATM   15  C   UNL     1     -11.507  12.591  68.575  1.00  0.00    -0.346 A  
HETATM   16  C   UNL     1     -11.935  11.896  69.730  1.00  0.00    -0.377 A  
HETATM   17  C   UNL     1     -12.422  12.564  70.861  1.00  0.00    -0.361 A  
HETATM   18  C   UNL     1     -12.532  13.950  70.843  1.00  0.00    -0.375 A  
HETATM   19  C   UNL     1     -12.163  14.669  69.710  1.00  0.00    -0.347 A  
HETATM   20  C   UNL     1     -11.609  13.995  68.614  1.00  0.00    -0.360 A  
BRANCH  18  21
HETATM   21  S   UNL     1     -13.159  14.806  72.264  1.00  0.00    -0.390 S  
HETATM   22  C   UNL     1     -11.890  16.009  72.597  1.00  0.00    -0.506 C  
HETATM   23  O   UNL     1     -14.357  15.513  71.858  1.00  0.00    -0.509 OA 
HETATM   24  O   UNL     1     -13.180  13.865  73.367  1.00  0.00    -0.432 OA 
ENDBRANCH  18  21
ENDBRANCH   9  15
ENDBRANCH   5   8
TORSDOF 3
ENDMDL
MODEL       10
REMARK 921   NORMALIZED FREE ENERGY PREDICTED BY IDOCK:   -6.63 KCAL/MOL
REMARK 922        TOTAL FREE ENERGY PREDICTED BY IDOCK:   -8.65 KCAL/MOL
REMARK 923 INTER-LIGAND FREE ENERGY PREDICTED BY IDOCK:   -7.85 KCAL/MOL
REMARK 924 INTRA-LIGAND FREE ENERGY PREDICTED BY IDOCK:   -0.80 KCAL/MOL
REMARK 927      BINDING AFFINITY PREDICTED BY RF-SCORE:    0.00 PKD
ROOT
HETATM    1  C   UNL     1      -5.381  16.978  67.247  1.00  0.00    -0.171 C  
HETATM    2  C   UNL     1      -6.754  16.393  67.105  1.00  0.00    -0.203 A  
HETATM    3  N   UNL     1      -6.962  15.160  67.620  1.00  0.00    -0.168 NA 
HETATM    4  C   UNL     1      -8.142  14.551  67.328  1.00  0.00    -0.196 A  
HETATM    5  C   UNL     1      -9.113  15.072  66.479  1.00  0.00    -0.319 A  
HETATM    6  C   UNL     1      -7.745  17.087  66.429  1.00  0.00    -0.350 A  
HETATM    7  C   UNL     1      -8.922  16.415  66.112  1.00  0.00    -0.367 A  
ENDROOT
BRANCH   5   8
HETATM    8  C   UNL     1     -10.238  14.289  65.919  1.00  0.00    -0.324 A  
HETATM    9  C   UNL     1     -11.367  13.806  66.636  1.00  0.00    -0.340 A  
HETATM   10  C   UNL     1     -12.274  13.006  65.895  1.00  0.00    -0.493 A  
HETATM   11  N   UNL     1     -10.024  13.967  64.604  1.00  0.00    -0.172 NA 
HETATM   12  C   UNL     1     -12.054  12.694  64.560  1.00  0.00    -0.417 A  
HETATM   13  C   UNL     1     -10.917  13.180  63.964  1.00  0.00    -0.346 A  
HETATM   14 CL   UNL     1     -13.157  11.701  63.699  1.00  0.00    -0.193 Cl 
BRANCH   9  15
HETATM   15  C   UNL     1     -11.663  14.000  68.089  1.00  0.00    -0.387 A  
HETATM   16  C   UNL     1     -11.793  15.300  68.629  1.00  0.00    -0.329 A  
HETATM   17  C   UNL     1     -12.139  15.518  69.969  1.00  0.00    -0.391 A  
HETATM   18  C   UNL     1     -12.322  14.428  70.813  1.00  0.00    -0.347 A  
HETATM   19  C   UNL     1     -12.162  13.132  70.333  1.00  0.00    -0.389 A  
HETATM   20  C   UNL     1     -11.887  12.928  68.974  1.00  0.00    -0.352 A  
BRANCH  18  21
HETATM   21  S   UNL     1     -12.750  14.691  72.514  1.00  0.00    -0.360 S  
HETATM   22  C   UNL     1     -14.016  15.938  72.419  1.00  0.00    -0.290 C  
HETATM   23  O   UNL     1     -13.355  13.470  73.009  1.00  0.00    -0.542 OA 
HETATM   24  O   UNL     1     -11.597  15.276  73.170  1.00  0.00    -0.402 OA 
ENDBRANCH  18  21
ENDBRANCH   9  15
ENDBRANCH   5   8
TORSDOF 3
ENDMDL
MODEL       11
REMARK 921   NORMALIZED FREE ENERGY PREDICTED BY IDOCK:   -6.61 KCAL/MOL
REMARK 922        TOTAL FREE ENERGY PREDICTED BY IDOCK:   -8.64 KCAL/MOL
REMARK 923 INTER-LIGAND FREE ENERGY PREDICTED BY IDOCK:   -7.65 KCAL/MOL
REMARK 924 INTRA-LIGAND FREE ENERGY PREDICTED BY IDOCK:   -0.99 KCAL/MOL
REMARK 927      BINDING AFFINITY PREDICTED BY RF-SCORE:    0.00 PKD
ROOT
HETATM    1  C   UNL     1      -6.726  17.431  69.222  1.00  0.00    -0.222 C  
HETATM    2  C   UNL     1      -7.459  16.613  68.203  1.00  0.00    -0.168 A  
HETATM    3  N   UNL     1      -8.273  17.268  67.345  1.00  0.00    -0.189 NA 
HETATM    4  C   UNL     1      -9.080  16.517  66.550  1.00  0.00    -0.276 A  
HETATM    5  C   UNL     1      -9.182  15.131  66.610  1.00  0.00    -0.298 A  
HETATM    6  C   UNL     1      -7.328  15.232  68.187  1.00  0.00    -0.119 A  
HETATM    7  C   UNL     1      -8.202  14.496  67.391  1.00  0.00    -0.220 A  
ENDROOT
BRANCH   5   8
HETATM    8  C   UNL     1     -10.267  14.346  65.978  1.00  0.00    -0.315 A  
HETATM    9  C   UNL     1     -11.437  13.857  66.622  1.00  0.00    -0.370 A  
HETATM   10  C   UNL     1     -12.293  13.057  65.823  1.00  0.00    -0.477 A  
HETATM   11  N   UNL     1      -9.970  14.029  64.678  1.00  0.00    -0.168 NA 
HETATM   12  C   UNL     1     -11.989  12.749  64.503  1.00  0.00    -0.393 A  
HETATM   13  C   UNL     1     -10.818  13.241  63.981  1.00  0.00    -0.259 A  
HETATM   14 CL   UNL     1     -13.032  11.755  63.572  1.00  0.00    -0.440 Cl 
BRANCH   9  15
HETATM   15  C   UNL     1     -11.824  14.045  68.054  1.00  0.00    -0.403 A  
HETATM   16  C   UNL     1     -11.940  12.933  68.920  1.00  0.00    -0.291 A  
HETATM   17  C   UNL     1     -12.231  13.079  70.282  1.00  0.00    -0.368 A  
HETATM   18  C   UNL     1     -12.456  14.349  70.801  1.00  0.00    -0.352 A  
HETATM   19  C   UNL     1     -12.394  15.467  69.974  1.00  0.00    -0.368 A  
HETATM   20  C   UNL     1     -12.031  15.313  68.630  1.00  0.00    -0.263 A  
BRANCH  18  21
HETATM   21  S   UNL     1     -12.836  14.546  72.522  1.00  0.00    -0.386 S  
HETATM   22  C   UNL     1     -14.118  15.780  72.509  1.00  0.00    -0.412 C  
HETATM   23  O   UNL     1     -13.412  13.300  72.990  1.00  0.00    -0.499 OA 
HETATM   24  O   UNL     1     -11.670  15.121  73.164  1.00  0.00    -0.389 OA 
ENDBRANCH  18  21
ENDBRANCH   9  15
ENDBRANCH   5   8
TORSDOF 3
ENDMDL
MODEL       12
REMARK 921   NORMALIZED FREE ENERGY PREDICTED BY IDOCK:   -6.59 KCAL/MOL
REMARK 922        TOTAL FREE ENERGY PREDICTED BY IDOCK:   -8.61 KCAL/MOL
REMARK 923 INTER-LIGAND FREE ENERGY PREDICTED BY IDOCK:   -8.24 KCAL/MOL
REMARK 924 INTRA-LIGAND FREE ENERGY PREDICTED BY IDOCK:   -0.37 KCAL/MOL
REMARK 927      BINDING AFFINITY PREDICTED BY RF-SCORE:    0.00 PKD
ROOT
HETATM    1  C   UNL     1      -9.607  10.349  62.683  1.00  0.00    -0.274 C  
HETATM    2  C   UNL     1     -10.008  11.059  63.941  1.00  0.00    -0.341 A  
HETATM    3  N   UNL     1      -9.168  10.979  64.997  1.00  0.00    -0.209 NA 
HETATM    4  C   UNL     1      -9.614  11.457  66.189  1.00  0.00    -0.218 A  
HETATM    5  C   UNL     1     -10.895  11.950  66.415  1.00  0.00    -0.318 A  
HETATM    6  C   UNL     1     -11.220  11.730  64.011  1.00  0.00    -0.461 A  
HETATM    7  C   UNL     1     -11.661  12.166  65.257  1.00  0.00    -0.376 A  
ENDROOT
BRANCH   5   8
HETATM    8  C   UNL     1     -11.477  12.176  67.757  1.00  0.00    -0.332 A  
HETATM    9  C   UNL     1     -11.572  13.422  68.436  1.00  0.00    -0.368 A  
HETATM   10  C   UNL     1     -12.096  13.371  69.752  1.00  0.00    -0.374 A  
HETATM   11  N   UNL     1     -11.836  10.996  68.357  1.00  0.00    -0.552 NA 
HETATM   12  C   UNL     1     -12.467  12.172  70.348  1.00  0.00    -0.144 A  
HETATM   13  C   UNL     1     -12.306  11.017  69.623  1.00  0.00    -0.234 A  
HETATM   14 CL   UNL     1     -13.073  12.141  71.953  1.00  0.00    -0.535 Cl 
BRANCH   9  15
HETATM   15  C   UNL     1     -11.124  14.758  67.935  1.00  0.00    -0.301 A  
HETATM   16  C   UNL     1     -11.486  15.941  68.620  1.00  0.00    -0.391 A  
HETATM   17  C   UNL     1     -11.025  17.202  68.219  1.00  0.00    -0.229 A  
HETATM   18  C   UNL     1     -10.221  17.309  67.090  1.00  0.00    -0.319 A  
HETATM   19  C   UNL     1      -9.876  16.174  66.362  1.00  0.00    -0.304 A  
HETATM   20  C   UNL     1     -10.284  14.913  66.816  1.00  0.00    -0.259 A  
BRANCH  18  21
HETATM   21  S   UNL     1      -9.641  18.901  66.566  1.00  0.00    -0.355 S  
HETATM   22  C   UNL     1      -9.544  19.812  68.092  1.00  0.00    -0.380 C  
HETATM   23  O   UNL     1      -8.295  18.732  66.054  1.00  0.00    -0.468 OA 
HETATM   24  O   UNL     1     -10.682  19.501  65.755  1.00  0.00    -0.503 OA 
ENDBRANCH  18  21
ENDBRANCH   9  15
ENDBRANCH   5   8
TORSDOF 3
ENDMDL
MODEL       13
REMARK 921   NORMALIZED FREE ENERGY PREDICTED BY IDOCK:   -6.41 KCAL/MOL
REMARK 922        TOTAL FREE ENERGY PREDICTED BY IDOCK:   -8.40 KCAL/MOL
REMARK 923 INTER-LIGAND FREE ENERGY PREDICTED BY IDOCK:   -7.97 KCAL/MOL
REMARK 924 INTRA-LIGAND FREE ENERGY PREDICTED BY IDOCK:   -0.43 KCAL/MOL
REMARK 927      BINDING AFFINITY PREDICTED BY RF-SCORE:    0.00 PKD
ROOT
HETATM    1  C   UNL     1     -12.598  15.737  74.328  1.00  0.00    -0.734 C  
HETATM    2  C   UNL     1     -12.477  15.213  72.930  1.00  0.00    -0.405 A  
HETATM    3  N   UNL     1     -13.153  14.082  72.627  1.00  0.00    -0.468 NA 
HETATM    4  C   UNL     1     -12.896  13.502  71.425  1.00  0.00    -0.355 A  
HETATM    5  C   UNL     1     -11.937  13.945  70.521  1.00  0.00    -0.384 A  
HETATM    6  C   UNL     1     -11.663  15.854  72.009  1.00  0.00    -0.588 A  
HETATM    7  C   UNL     1     -11.390  15.208  70.806  1.00  0.00    -0.341 A  
ENDROOT
BRANCH   5   8
HETATM    8  C   UNL     1     -11.443  13.152  69.372  1.00  0.00    -0.260 A  
HETATM    9  C   UNL     1     -10.683  13.642  68.274  1.00  0.00    -0.266 A  
HETATM   10  C   UNL     1     -10.397  12.702  67.252  1.00  0.00    -0.230 A  
HETATM   11  N   UNL     1     -11.902  11.861  69.416  1.00  0.00    -0.322 NA 
HETATM   12  C   UNL     1     -10.857  11.393  67.310  1.00  0.00    -0.263 A  
HETATM   13  C   UNL     1     -11.612  11.023  68.395  1.00  0.00    -0.302 A  
HETATM   14 CL   UNL     1     -10.517  10.288  66.042  1.00  0.00    -0.232 Cl 
BRANCH   9  15
HETATM   15  C   UNL     1     -10.212  15.045  68.059  1.00  0.00    -0.228 A  
HETATM   16  C   UNL     1      -8.874  15.405  68.342  1.00  0.00    -0.177 A  
HETATM   17  C   UNL     1      -8.380  16.690  68.086  1.00  0.00    -0.193 A  
HETATM   18  C   UNL     1      -9.235  17.662  67.576  1.00  0.00    -0.243 A  
HETATM   19  C   UNL     1     -10.570  17.361  67.324  1.00  0.00    -0.284 A  
HETATM   20  C   UNL     1     -11.032  16.053  67.517  1.00  0.00    -0.261 A  
BRANCH  18  21
HETATM   21  S   UNL     1      -8.625  19.296  67.258  1.00  0.00    -0.299 S  
HETATM   22  C   UNL     1     -10.035  20.324  67.610  1.00  0.00    -0.410 C  
HETATM   23  O   UNL     1      -7.599  19.583  68.242  1.00  0.00    -0.291 OA 
HETATM   24  O   UNL     1      -8.348  19.391  65.838  1.00  0.00    -0.431 OA 
ENDBRANCH  18  21
ENDBRANCH   9  15
ENDBRANCH   5   8
TORSDOF 3
ENDMDL
MODEL       14
REMARK 921   NORMALIZED FREE ENERGY PREDICTED BY IDOCK:   -6.38 KCAL/MOL
REMARK 922        TOTAL FREE ENERGY PREDICTED BY IDOCK:   -8.37 KCAL/MOL
REMARK 923 INTER-LIGAND FREE ENERGY PREDICTED BY IDOCK:   -7.71 KCAL/MOL
REMARK 924 INTRA-LIGAND FREE ENERGY PREDICTED BY IDOCK:   -0.66 KCAL/MOL
REMARK 927      BINDING AFFINITY PREDICTED BY RF-SCORE:    0.00 PKD
ROOT
HETATM    1  C   UNL     1     -12.136  15.200  72.386  1.00  0.00    -0.478 C  
HETATM    2  C   UNL     1     -12.178  14.750  70.957  1.00  0.00    -0.329 A  
HETATM    3  N   UNL     1     -12.164  13.418  70.723  1.00  0.00    -0.359 NA 
HETATM    4  C   UNL     1     -12.011  13.011  69.435  1.00  0.00    -0.281 A  
HETATM    5  C   UNL     1     -11.792  13.862  68.357  1.00  0.00    -0.409 A  
HETATM    6  C   UNL     1     -12.187  15.680  69.929  1.00  0.00    -0.317 A  
HETATM    7  C   UNL     1     -11.984  15.227  68.628  1.00  0.00    -0.263 A  
ENDROOT
BRANCH   5   8
HETATM    8  C   UNL     1     -11.320  13.417  67.025  1.00  0.00    -0.317 A  
HETATM    9  C   UNL     1     -10.475  14.147  66.144  1.00  0.00    -0.297 A  
HETATM   10  C   UNL     1     -10.228  13.545  64.885  1.00  0.00    -0.351 A  
HETATM   11  N   UNL     1     -11.889  12.225  66.660  1.00  0.00    -0.594 NA 
HETATM   12  C   UNL     1     -10.801  12.332  64.527  1.00  0.00    -0.315 A  
HETATM   13  C   UNL     1     -11.630  11.719  65.434  1.00  0.00    -0.125 A  
HETATM   14 CL   UNL     1     -10.504  11.644  62.984  1.00  0.00    -0.314 Cl 
BRANCH   9  15
HETATM   15  C   UNL     1      -9.876  15.497  66.382  1.00  0.00    -0.298 A  
HETATM   16  C   UNL     1     -10.494  16.659  65.863  1.00  0.00    -0.324 A  
HETATM   17  C   UNL     1     -10.000  17.943  66.126  1.00  0.00    -0.288 A  
HETATM   18  C   UNL     1      -8.843  18.089  66.884  1.00  0.00    -0.258 A  
HETATM   19  C   UNL     1      -8.181  16.969  67.378  1.00  0.00    -0.199 A  
HETATM   20  C   UNL     1      -8.726  15.696  67.169  1.00  0.00    -0.233 A  
BRANCH  18  21
HETATM   21  S   UNL     1      -8.202  19.709  67.214  1.00  0.00    -0.308 S  
HETATM   22  C   UNL     1      -9.669  20.714  67.276  1.00  0.00    -0.422 C  
HETATM   23  O   UNL     1      -7.612  19.688  68.538  1.00  0.00    -0.330 OA 
HETATM   24  O   UNL     1      -7.431  20.118  66.056  1.00  0.00    -0.301 OA 
ENDBRANCH  18  21
ENDBRANCH   9  15
ENDBRANCH   5   8
TORSDOF 3
ENDMDL
MODEL       15
REMARK 921   NORMALIZED FREE ENERGY PREDICTED BY IDOCK:   -6.34 KCAL/MOL
REMARK 922        TOTAL FREE ENERGY PREDICTED BY IDOCK:   -8.31 KCAL/MOL
REMARK 923 INTER-LIGAND FREE ENERGY PREDICTED BY IDOCK:   -7.83 KCAL/MOL
REMARK 924 INTRA-LIGAND FREE ENERGY PREDICTED BY IDOCK:   -0.48 KCAL/MOL
REMARK 927      BINDING AFFINITY PREDICTED BY RF-SCORE:    0.00 PKD
ROOT
HETATM    1  C   UNL     1     -10.469  11.606  63.370  1.00  0.00    -0.482 C  
HETATM    2  C   UNL     1     -10.807  11.903  64.799  1.00  0.00    -0.307 A  
HETATM    3  N   UNL     1     -12.020  12.446  65.053  1.00  0.00    -0.404 NA 
HETATM    4  C   UNL     1     -12.255  12.890  66.316  1.00  0.00    -0.270 A  
HETATM    5  C   UNL     1     -11.315  12.896  67.341  1.00  0.00    -0.355 A  
HETATM    6  C   UNL     1      -9.881  11.665  65.803  1.00  0.00    -0.268 A  
HETATM    7  C   UNL     1     -10.140  12.173  67.073  1.00  0.00    -0.219 A  
ENDROOT
BRANCH   5   8
HETATM    8  C   UNL     1     -11.463  13.653  68.605  1.00  0.00    -0.307 A  
HETATM    9  C   UNL     1     -11.681  13.100  69.897  1.00  0.00    -0.327 A  
HETATM   10  C   UNL     1     -11.874  14.036  70.945  1.00  0.00    -0.249 A  
HETATM   11  N   UNL     1     -11.480  15.006  68.384  1.00  0.00    -0.310 NA 
HETATM   12  C   UNL     1     -11.879  15.405  70.714  1.00  0.00    -0.353 A  
HETATM   13  C   UNL     1     -11.693  15.841  69.425  1.00  0.00    -0.370 A  
HETATM   14 CL   UNL     1     -12.143  16.510  71.999  1.00  0.00    -0.336 Cl 
BRANCH   9  15
HETATM   15  C   UNL     1     -11.787  11.651  70.251  1.00  0.00    -0.414 A  
HETATM   16  C   UNL     1     -12.872  11.177  71.025  1.00  0.00    -0.424 A  
HETATM   17  C   UNL     1     -13.040   9.818  71.315  1.00  0.00    -0.465 A  
HETATM   18  C   UNL     1     -12.093   8.901  70.869  1.00  0.00    -0.177 A  
HETATM   19  C   UNL     1     -10.987   9.331  70.142  1.00  0.00    -0.278 A  
HETATM   20  C   UNL     1     -10.870  10.684  69.797  1.00  0.00    -0.317 A  
BRANCH  18  21
HETATM   21  S   UNL     1     -12.289   7.178  71.240  1.00  0.00    -0.379 S  
HETATM   22  C   UNL     1     -14.049   7.012  71.445  1.00  0.00    -0.177 C  
HETATM   23  O   UNL     1     -11.898   6.428  70.063  1.00  0.00    -0.404 OA 
HETATM   24  O   UNL     1     -11.666   6.934  72.526  1.00  0.00    -0.243 OA 
ENDBRANCH  18  21
ENDBRANCH   9  15
ENDBRANCH   5   8
TORSDOF 3
ENDMDL
MODEL       16
REMARK 921   NORMALIZED FREE ENERGY PREDICTED BY IDOCK:   -6.27 KCAL/MOL
REMARK 922        TOTAL FREE ENERGY PREDICTED BY IDOCK:   -8.23 KCAL/MOL
REMARK 923 INTER-LIGAND FREE ENERGY PREDICTED BY IDOCK:   -7.20 KCAL/MOL
REMARK 924 INTRA-LIGAND FREE ENERGY PREDICTED BY IDOCK:   -1.03 KCAL/MOL
REMARK 927      BINDING AFFINITY PREDICTED BY RF-SCORE:    0.00 PKD
ROOT
HETATM    1  C   UNL     1      -5.619  12.726  70.716  1.00  0.00    -0.173 C  
HETATM    2  C   UNL     1      -6.438  12.531  69.477  1.00  0.00    -0.083 A  
HETATM    3  N   UNL     1      -6.572  13.589  68.645  1.00  0.00    -0.090 NA 
HETATM    4  C   UNL     1      -7.464  13.474  67.625  1.00  0.00    -0.181 A  
HETATM    5  C   UNL     1      -8.298  12.380  67.423  1.00  0.00    -0.180 A  
HETATM    6  C   UNL     1      -7.062  11.317  69.233  1.00  0.00    -0.112 A  
HETATM    7  C   UNL     1      -8.000  11.252  68.206  1.00  0.00    -0.134 A  
ENDROOT
BRANCH   5   8
HETATM    8  C   UNL     1      -9.470  12.381  66.518  1.00  0.00    -0.242 A  
HETATM    9  C   UNL     1     -10.814  12.671  66.880  1.00  0.00    -0.282 A  
HETATM   10  C   UNL     1     -11.778  12.525  65.850  1.00  0.00    -0.480 A  
HETATM   11  N   UNL     1      -9.137  11.948  65.260  1.00  0.00     0.093 NA 
HETATM   12  C   UNL     1     -11.430  12.097  64.576  1.00  0.00    -0.334 A  
HETATM   13  C   UNL     1     -10.110  11.808  64.332  1.00  0.00    -0.282 A  
HETATM   14 CL   UNL     1     -12.624  11.903  63.360  1.00  0.00    -0.674 Cl 
BRANCH   9  15
HETATM   15  C   UNL     1     -11.320  13.052  68.235  1.00  0.00    -0.323 A  
HETATM   16  C   UNL     1     -11.440  14.412  68.602  1.00  0.00    -0.316 A  
HETATM   17  C   UNL     1     -11.977  14.805  69.835  1.00  0.00    -0.378 A  
HETATM   18  C   UNL     1     -12.368  13.835  70.751  1.00  0.00    -0.379 A  
HETATM   19  C   UNL     1     -12.227  12.484  70.447  1.00  0.00    -0.368 A  
HETATM   20  C   UNL     1     -11.757  12.106  69.183  1.00  0.00    -0.384 A  
BRANCH  18  21
HETATM   21  S   UNL     1     -13.038  14.319  72.320  1.00  0.00    -0.431 S  
HETATM   22  C   UNL     1     -14.382  15.393  71.865  1.00  0.00    -0.543 C  
HETATM   23  O   UNL     1     -13.595  13.136  72.945  1.00  0.00    -0.543 OA 
HETATM   24  O   UNL     1     -12.036  15.122  72.994  1.00  0.00    -0.380 OA 
ENDBRANCH  18  21
ENDBRANCH   9  15
ENDBRANCH   5   8
TORSDOF 3
ENDMDL
MODEL       17
REMARK 921   NORMALIZED FREE ENERGY PREDICTED BY IDOCK:   -6.25 KCAL/MOL
REMARK 922        TOTAL FREE ENERGY PREDICTED BY IDOCK:   -8.21 KCAL/MOL
REMARK 923 INTER-LIGAND FREE ENERGY PREDICTED BY IDOCK:   -7.42 KCAL/MOL
REMARK 924 INTRA-LIGAND FREE ENERGY PREDICTED BY IDOCK:   -0.79 KCAL/MOL
REMARK 927      BINDING AFFINITY PREDICTED BY RF-SCORE:    0.00 PKD
ROOT
HETATM    1  C   UNL     1      -9.870  10.503  64.282  1.00  0.00    -0.402 C  
HETATM    2  C   UNL     1     -10.237  11.509  65.331  1.00  0.00    -0.264 A  
HETATM    3  N   UNL     1      -9.287  11.847  66.231  1.00  0.00    -0.225 NA 
HETATM    4  C   UNL     1      -9.670  12.608  67.290  1.00  0.00    -0.207 A  
HETATM    5  C   UNL     1     -10.979  12.999  67.551  1.00  0.00    -0.282 A  
HETATM    6  C   UNL     1     -11.522  12.028  65.384  1.00  0.00    -0.361 A  
HETATM    7  C   UNL     1     -11.889  12.767  66.505  1.00  0.00    -0.471 A  
ENDROOT
BRANCH   5   8
HETATM    8  C   UNL     1     -11.443  13.551  68.845  1.00  0.00    -0.306 A  
HETATM    9  C   UNL     1     -11.250  14.881  69.310  1.00  0.00    -0.300 A  
HETATM   10  C   UNL     1     -11.714  15.150  70.623  1.00  0.00    -0.356 A  
HETATM   11  N   UNL     1     -12.007  12.583  69.634  1.00  0.00    -0.296 NA 
HETATM   12  C   UNL     1     -12.295  14.165  71.411  1.00  0.00    -0.344 A  
HETATM   13  C   UNL     1     -12.406  12.902  70.885  1.00  0.00    -0.275 A  
HETATM   14 CL   UNL     1     -12.821  14.517  73.006  1.00  0.00    -0.544 Cl 
BRANCH   9  15
HETATM   15  C   UNL     1     -10.562  15.997  68.591  1.00  0.00    -0.266 A  
HETATM   16  C   UNL     1     -10.961  16.365  67.285  1.00  0.00    -0.118 A  
HETATM   17  C   UNL     1     -10.386  17.450  66.610  1.00  0.00    -0.306 A  
HETATM   18  C   UNL     1      -9.362  18.168  67.218  1.00  0.00    -0.252 A  
HETATM   19  C   UNL     1      -8.910  17.812  68.485  1.00  0.00    -0.284 A  
HETATM   20  C   UNL     1      -9.542  16.771  69.177  1.00  0.00    -0.185 A  
BRANCH  18  21
HETATM   21  S   UNL     1      -8.619  19.536  66.369  1.00  0.00    -0.365 S  
HETATM   22  C   UNL     1      -7.940  20.508  67.697  1.00  0.00    -0.215 C  
HETATM   23  O   UNL     1      -7.519  19.020  65.579  1.00  0.00    -0.476 OA 
HETATM   24  O   UNL     1      -9.687  20.303  65.757  1.00  0.00    -0.323 OA 
ENDBRANCH  18  21
ENDBRANCH   9  15
ENDBRANCH   5   8
TORSDOF 3
ENDMDL
MODEL       18
REMARK 921   NORMALIZED FREE ENERGY PREDICTED BY IDOCK:   -6.24 KCAL/MOL
REMARK 922        TOTAL FREE ENERGY PREDICTED BY IDOCK:   -8.20 KCAL/MOL
REMARK 923 INTER-LIGAND FREE ENERGY PREDICTED BY IDOCK:   -7.25 KCAL/MOL
REMARK 924 INTRA-LIGAND FREE ENERGY PREDICTED BY IDOCK:   -0.95 KCAL/MOL
REMARK 927      BINDING AFFINITY PREDICTED BY RF-SCORE:    0.00 PKD
ROOT
HETATM    1  C   UNL     1      -7.624  19.652  67.500  1.00  0.00    -0.299 C  
HETATM    2  C   UNL     1      -8.463  18.470  67.879  1.00  0.00    -0.275 A  
HETATM    3  N   UNL     1      -9.801  18.576  67.713  1.00  0.00    -0.300 NA 
HETATM    4  C   UNL     1     -10.576  17.586  68.230  1.00  0.00    -0.354 A  
HETATM    5  C   UNL     1     -10.099  16.517  68.980  1.00  0.00    -0.279 A  
HETATM    6  C   UNL     1      -7.874  17.337  68.420  1.00  0.00    -0.254 A  
HETATM    7  C   UNL     1      -8.702  16.366  68.978  1.00  0.00    -0.233 A  
ENDROOT
BRANCH   5   8
HETATM    8  C   UNL     1     -10.952  15.624  69.797  1.00  0.00    -0.304 A  
HETATM    9  C   UNL     1     -11.267  14.266  69.511  1.00  0.00    -0.286 A  
HETATM   10  C   UNL     1     -12.175  13.642  70.402  1.00  0.00    -0.434 A  
HETATM   11  N   UNL     1     -11.525  16.294  70.847  1.00  0.00    -0.382 NA 
HETATM   12  C   UNL     1     -12.742  14.325  71.470  1.00  0.00    -0.350 A  
HETATM   13  C   UNL     1     -12.402  15.644  71.643  1.00  0.00    -0.428 A  
HETATM   14 CL   UNL     1     -13.860  13.548  72.514  1.00  0.00    -0.673 Cl 
BRANCH   9  15
HETATM   15  C   UNL     1     -10.791  13.457  68.347  1.00  0.00    -0.284 A  
HETATM   16  C   UNL     1      -9.529  12.820  68.382  1.00  0.00    -0.162 A  
HETATM   17  C   UNL     1      -9.083  11.997  67.340  1.00  0.00    -0.178 A  
HETATM   18  C   UNL     1      -9.881  11.828  66.212  1.00  0.00    -0.221 A  
HETATM   19  C   UNL     1     -11.111  12.471  66.120  1.00  0.00    -0.336 A  
HETATM   20  C   UNL     1     -11.576  13.232  67.200  1.00  0.00    -0.402 A  
BRANCH  18  21
HETATM   21  S   UNL     1      -9.322  10.797  64.882  1.00  0.00    -0.236 S  
HETATM   22  C   UNL     1      -9.917  11.652  63.439  1.00  0.00    -0.425 C  
HETATM   23  O   UNL     1      -7.873  10.842  64.869  1.00  0.00    -0.017 OA 
HETATM   24  O   UNL     1     -10.033   9.537  64.977  1.00  0.00    -0.138 OA 
ENDBRANCH  18  21
ENDBRANCH   9  15
ENDBRANCH   5   8
TORSDOF 3
ENDMDL
MODEL       19
REMARK 921   NORMALIZED FREE ENERGY PREDICTED BY IDOCK:   -6.18 KCAL/MOL
REMARK 922        TOTAL FREE ENERGY PREDICTED BY IDOCK:   -8.13 KCAL/MOL
REMARK 923 INTER-LIGAND FREE ENERGY PREDICTED BY IDOCK:   -7.71 KCAL/MOL
REMARK 924 INTRA-LIGAND FREE ENERGY PREDICTED BY IDOCK:   -0.42 KCAL/MOL
REMARK 927      BINDING AFFINITY PREDICTED BY RF-SCORE:    0.00 PKD
ROOT
HETATM    1  C   UNL     1     -12.816  12.795  71.689  1.00  0.00    -0.363 C  
HETATM    2  C   UNL     1     -12.438  14.023  70.916  1.00  0.00    -0.369 A  
HETATM    3  N   UNL     1     -12.654  14.010  69.582  1.00  0.00    -0.155 NA 
HETATM    4  C   UNL     1     -12.141  15.038  68.855  1.00  0.00    -0.188 A  
HETATM    5  C   UNL     1     -11.348  16.056  69.374  1.00  0.00    -0.355 A  
HETATM    6  C   UNL     1     -11.849  15.101  71.558  1.00  0.00    -0.436 A  
HETATM    7  C   UNL     1     -11.298  16.113  70.777  1.00  0.00    -0.397 A  
ENDROOT
BRANCH   5   8
HETATM    8  C   UNL     1     -10.541  16.986  68.552  1.00  0.00    -0.370 A  
HETATM    9  C   UNL     1     -10.015  16.726  67.256  1.00  0.00    -0.272 A  
HETATM   10  C   UNL     1      -9.200  17.746  66.703  1.00  0.00    -0.280 A  
HETATM   11  N   UNL     1     -10.242  18.136  69.237  1.00  0.00    -0.167 NA 
HETATM   12  C   UNL     1      -8.912  18.913  67.400  1.00  0.00    -0.276 A  
HETATM   13  C   UNL     1      -9.438  19.057  68.660  1.00  0.00    -0.405 A  
HETATM   14 CL   UNL     1      -7.899  20.115  66.714  1.00  0.00    -0.330 Cl 
BRANCH   9  15
HETATM   15  C   UNL     1     -10.182  15.478  66.450  1.00  0.00    -0.300 A  
HETATM   16  C   UNL     1     -10.983  15.476  65.284  1.00  0.00    -0.391 A  
HETATM   17  C   UNL     1     -11.103  14.345  64.467  1.00  0.00    -0.301 A  
HETATM   18  C   UNL     1     -10.453  13.169  64.826  1.00  0.00    -0.372 A  
HETATM   19  C   UNL     1      -9.690  13.116  65.989  1.00  0.00    -0.234 A  
HETATM   20  C   UNL     1      -9.519  14.274  66.757  1.00  0.00    -0.287 A  
BRANCH  18  21
HETATM   21  S   UNL     1     -10.607  11.727  63.806  1.00  0.00    -0.462 S  
HETATM   22  C   UNL     1     -10.210  10.402  64.926  1.00  0.00    -0.260 C  
HETATM   23  O   UNL     1     -12.002  11.600  63.432  1.00  0.00    -0.424 OA 
HETATM   24  O   UNL     1      -9.564  11.789  62.801  1.00  0.00    -0.318 OA 
ENDBRANCH  18  21
ENDBRANCH   9  15
ENDBRANCH   5   8
TORSDOF 3
ENDMDL
MODEL       20
REMARK 921   NORMALIZED FREE ENERGY PREDICTED BY IDOCK:   -6.17 KCAL/MOL
REMARK 922        TOTAL FREE ENERGY PREDICTED BY IDOCK:   -8.11 KCAL/MOL
REMARK 923 INTER-LIGAND FREE ENERGY PREDICTED BY IDOCK:   -7.53 KCAL/MOL
REMARK 924 INTRA-LIGAND FREE ENERGY PREDICTED BY IDOCK:   -0.58 KCAL/MOL
REMARK 927      BINDING AFFINITY PREDICTED BY RF-SCORE:    0.00 PKD
ROOT
HETATM    1  C   UNL     1      -8.667   6.726  72.185  1.00  0.00    -0.132 C  
HETATM    2  C   UNL     1      -9.181   7.712  71.180  1.00  0.00    -0.147 A  
HETATM    3  N   UNL     1     -10.223   7.330  70.408  1.00  0.00    -0.193 NA 
HETATM    4  C   UNL     1     -10.566   8.142  69.373  1.00  0.00    -0.200 A  
HETATM    5  C   UNL     1      -9.877   9.294  69.008  1.00  0.00    -0.168 A  
HETATM    6  C   UNL     1      -8.568   8.947  71.033  1.00  0.00    -0.255 A  
HETATM    7  C   UNL     1      -8.917   9.731  69.936  1.00  0.00    -0.254 A  
ENDROOT
BRANCH   5   8
HETATM    8  C   UNL     1     -10.053   9.998  67.718  1.00  0.00    -0.183 A  
HETATM    9  C   UNL     1     -10.719  11.239  67.519  1.00  0.00    -0.275 A  
HETATM   10  C   UNL     1     -10.831  11.672  66.174  1.00  0.00    -0.343 A  
HETATM   11  N   UNL     1      -9.586   9.252  66.667  1.00  0.00    -0.187 NA 
HETATM   12  C   UNL     1     -10.345  10.914  65.117  1.00  0.00    -0.278 A  
HETATM   13  C   UNL     1      -9.747   9.713  65.407  1.00  0.00    -0.295 A  
HETATM   14 CL   UNL     1     -10.521  11.454  63.498  1.00  0.00    -0.445 Cl 
BRANCH   9  15
HETATM   15  C   UNL     1     -11.360  12.095  68.564  1.00  0.00    -0.324 A  
HETATM   16  C   UNL     1     -12.008  11.509  69.676  1.00  0.00    -0.407 A  
HETATM   17  C   UNL     1     -12.556  12.281  70.709  1.00  0.00    -0.302 A  
HETATM   18  C   UNL     1     -12.503  13.668  70.628  1.00  0.00    -0.347 A  
HETATM   19  C   UNL     1     -11.912  14.286  69.530  1.00  0.00    -0.384 A  
HETATM   20  C   UNL     1     -11.304  13.502  68.541  1.00  0.00    -0.327 A  
BRANCH  18  21
HETATM   21  S   UNL     1     -13.204  14.656  71.923  1.00  0.00    -0.382 S  
HETATM   22  C   UNL     1     -11.777  15.442  72.641  1.00  0.00    -0.453 C  
HETATM   23  O   UNL     1     -14.020  15.681  71.303  1.00  0.00    -0.570 OA 
HETATM   24  O   UNL     1     -13.758  13.752  72.912  1.00  0.00    -0.684 OA 
ENDBRANCH  18  21
ENDBRANCH   9  15
ENDBRANCH   5   8
TORSDOF 3
ENDMDL
MODEL       21
REMARK 921   NORMALIZED FREE ENERGY PREDICTED BY IDOCK:   -6.16 KCAL/MOL
REMARK 922        TOTAL FREE ENERGY PREDICTED BY IDOCK:   -8.10 KCAL/MOL
REMARK 923 INTER-LIGAND FREE ENERGY PREDICTED BY IDOCK:   -7.19 KCAL/MOL
REMARK 924 INTRA-LIGAND FREE ENERGY PREDICTED BY IDOCK:   -0.91 KCAL/MOL
REMARK 927      BINDING AFFINITY PREDICTED BY RF-SCORE:    0.00 PKD
ROOT
HETATM    1  C   UNL     1     -11.670  16.075  72.085  1.00  0.00    -0.587 C  
HETATM    2  C   UNL     1     -11.555  15.623  70.660  1.00  0.00    -0.367 A  
HETATM    3  N   UNL     1     -12.657  15.095  70.083  1.00  0.00    -0.311 NA 
HETATM    4  C   UNL     1     -12.508  14.513  68.863  1.00  0.00     0.102 A  
HETATM    5  C   UNL     1     -11.292  14.356  68.205  1.00  0.00    -0.311 A  
HETATM    6  C   UNL     1     -10.343  15.711  69.993  1.00  0.00    -0.309 A  
HETATM    7  C   UNL     1     -10.217  15.066  68.766  1.00  0.00    -0.235 A  
ENDROOT
BRANCH   5   8
HETATM    8  C   UNL     1     -11.081  13.461  67.044  1.00  0.00    -0.292 A  
HETATM    9  C   UNL     1     -10.793  12.069  67.095  1.00  0.00    -0.297 A  
HETATM   10  C   UNL     1     -10.549  11.443  65.847  1.00  0.00    -0.317 A  
HETATM   11  N   UNL     1     -11.084  14.157  65.863  1.00  0.00    -0.302 NA 
HETATM   12  C   UNL     1     -10.565  12.154  64.654  1.00  0.00    -0.300 A  
HETATM   13  C   UNL     1     -10.820  13.502  64.711  1.00  0.00    -0.381 A  
HETATM   14 CL   UNL     1     -10.238  11.371  63.163  1.00  0.00    -0.386 Cl 
BRANCH   9  15
HETATM   15  C   UNL     1     -10.661  11.220  68.319  1.00  0.00    -0.228 A  
HETATM   16  C   UNL     1     -11.778  10.982  69.153  1.00  0.00    -0.403 A  
HETATM   17  C   UNL     1     -11.707  10.135  70.266  1.00  0.00    -0.361 A  
HETATM   18  C   UNL     1     -10.495   9.538  70.595  1.00  0.00    -0.308 A  
HETATM   19  C   UNL     1      -9.361   9.780  69.826  1.00  0.00    -0.249 A  
HETATM   20  C   UNL     1      -9.463  10.570  68.674  1.00  0.00    -0.172 A  
BRANCH  18  21
HETATM   21  S   UNL     1     -10.390   8.473  72.009  1.00  0.00    -0.352 S  
HETATM   22  C   UNL     1     -10.013   6.890  71.288  1.00  0.00    -0.179 C  
HETATM   23  O   UNL     1      -9.247   8.896  72.795  1.00  0.00    -0.255 OA 
HETATM   24  O   UNL     1     -11.714   8.391  72.595  1.00  0.00    -0.386 OA 
ENDBRANCH  18  21
ENDBRANCH   9  15
ENDBRANCH   5   8
TORSDOF 3
ENDMDL
MODEL       22
REMARK 921   NORMALIZED FREE ENERGY PREDICTED BY IDOCK:   -6.14 KCAL/MOL
REMARK 922        TOTAL FREE ENERGY PREDICTED BY IDOCK:   -8.08 KCAL/MOL
REMARK 923 INTER-LIGAND FREE ENERGY PREDICTED BY IDOCK:   -7.13 KCAL/MOL
REMARK 924 INTRA-LIGAND FREE ENERGY PREDICTED BY IDOCK:   -0.95 KCAL/MOL
REMARK 927      BINDING AFFINITY PREDICTED BY RF-SCORE:    0.00 PKD
ROOT
HETATM    1  C   UNL     1      -7.455  10.134  63.752  1.00  0.00    -0.126 C  
HETATM    2  C   UNL     1      -8.162  10.058  65.071  1.00  0.00    -0.148 A  
HETATM    3  N   UNL     1      -9.317   9.357  65.120  1.00  0.00    -0.248 NA 
HETATM    4  C   UNL     1     -10.055   9.444  66.258  1.00  0.00    -0.258 A  
HETATM    5  C   UNL     1      -9.745  10.259  67.342  1.00  0.00    -0.189 A  
HETATM    6  C   UNL     1      -7.657  10.725  66.176  1.00  0.00    -0.139 A  
HETATM    7  C   UNL     1      -8.461  10.829  67.308  1.00  0.00    -0.124 A  
ENDROOT
BRANCH   5   8
HETATM    8  C   UNL     1     -10.689  10.592  68.433  1.00  0.00    -0.224 A  
HETATM    9  C   UNL     1     -11.197  11.883  68.743  1.00  0.00    -0.314 A  
HETATM   10  C   UNL     1     -12.026  11.963  69.891  1.00  0.00    -0.398 A  
HETATM   11  N   UNL     1     -10.956   9.501  69.220  1.00  0.00    -0.190 NA 
HETATM   12  C   UNL     1     -12.299  10.850  70.676  1.00  0.00    -0.376 A  
HETATM   13  C   UNL     1     -11.735   9.652  70.314  1.00  0.00    -0.155 A  
HETATM   14 CL   UNL     1     -13.283  10.986  72.075  1.00  0.00    -0.564 Cl 
BRANCH   9  15
HETATM   15  C   UNL     1     -10.901  13.163  68.029  1.00  0.00    -0.261 A  
HETATM   16  C   UNL     1     -11.758  13.629  67.005  1.00  0.00    -0.419 A  
HETATM   17  C   UNL     1     -11.551  14.858  66.364  1.00  0.00    -0.238 A  
HETATM   18  C   UNL     1     -10.448  15.632  66.709  1.00  0.00    -0.297 A  
HETATM   19  C   UNL     1      -9.556  15.190  67.682  1.00  0.00    -0.206 A  
HETATM   20  C   UNL     1      -9.816  13.994  68.365  1.00  0.00    -0.232 A  
BRANCH  18  21
HETATM   21  S   UNL     1     -10.169  17.183  65.897  1.00  0.00    -0.210 S  
HETATM   22  C   UNL     1     -10.692  18.371  67.115  1.00  0.00    -0.330 C  
HETATM   23  O   UNL     1      -8.739  17.330  65.708  1.00  0.00    -0.531 OA 
HETATM   24  O   UNL     1     -11.085  17.262  64.776  1.00  0.00    -0.954 OA 
ENDBRANCH  18  21
ENDBRANCH   9  15
ENDBRANCH   5   8
TORSDOF 3
ENDMDL
MODEL       23
REMARK 921   NORMALIZED FREE ENERGY PREDICTED BY IDOCK:   -6.13 KCAL/MOL
REMARK 922        TOTAL FREE ENERGY PREDICTED BY IDOCK:   -8.07 KCAL/MOL
REMARK 923 INTER-LIGAND FREE ENERGY PREDICTED BY IDOCK:   -7.14 KCAL/MOL
REMARK 924 INTRA-LIGAND FREE ENERGY PREDICTED BY IDOCK:   -0.92 KCAL/MOL
REMARK 927      BINDING AFFINITY PREDICTED BY RF-SCORE:    0.00 PKD
ROOT
HETATM    1  C   UNL     1      -6.198  16.218  69.843  1.00  0.00    -0.161 C  
HETATM    2  C   UNL     1      -7.301  15.392  69.255  1.00  0.00    -0.197 A  
HETATM    3  N   UNL     1      -6.956  14.242  68.633  1.00  0.00    -0.097 NA 
HETATM    4  C   UNL     1      -7.925  13.591  67.937  1.00  0.00    -0.162 A  
HETATM    5  C   UNL     1      -9.221  14.062  67.757  1.00  0.00    -0.195 A  
HETATM    6  C   UNL     1      -8.615  15.831  69.317  1.00  0.00    -0.259 A  
HETATM    7  C   UNL     1      -9.571  15.163  68.556  1.00  0.00    -0.214 A  
ENDROOT
BRANCH   5   8
HETATM    8  C   UNL     1     -10.173  13.524  66.757  1.00  0.00    -0.264 A  
HETATM    9  C   UNL     1     -11.015  12.390  66.922  1.00  0.00    -0.307 A  
HETATM   10  C   UNL     1     -11.781  12.019  65.787  1.00  0.00    -0.313 A  
HETATM   11  N   UNL     1     -10.080  14.189  65.562  1.00  0.00    -0.340 NA 
HETATM   12  C   UNL     1     -11.689  12.706  64.584  1.00  0.00    -0.357 A  
HETATM   13  C   UNL     1     -10.820  13.768  64.514  1.00  0.00    -0.387 A  
HETATM   14 CL   UNL     1     -12.608  12.215  63.222  1.00  0.00    -0.606 Cl 
BRANCH   9  15
HETATM   15  C   UNL     1     -11.132  11.521  68.133  1.00  0.00    -0.303 A  
HETATM   16  C   UNL     1     -11.845  11.965  69.271  1.00  0.00    -0.379 A  
HETATM   17  C   UNL     1     -12.034  11.151  70.394  1.00  0.00    -0.469 A  
HETATM   18  C   UNL     1     -11.471   9.879  70.420  1.00  0.00    -0.301 A  
HETATM   19  C   UNL     1     -10.725   9.419  69.339  1.00  0.00    -0.234 A  
HETATM   20  C   UNL     1     -10.606  10.217  68.193  1.00  0.00    -0.262 A  
BRANCH  18  21
HETATM   21  S   UNL     1     -11.694   8.843  71.841  1.00  0.00    -0.372 S  
HETATM   22  C   UNL     1     -12.225   7.300  71.130  1.00  0.00    -0.340 C  
HETATM   23  O   UNL     1     -10.391   8.638  72.445  1.00  0.00    -0.319 OA 
HETATM   24  O   UNL     1     -12.799   9.383  72.608  1.00  0.00    -0.303 OA 
ENDBRANCH  18  21
ENDBRANCH   9  15
ENDBRANCH   5   8
TORSDOF 3
ENDMDL
MODEL       24
REMARK 921   NORMALIZED FREE ENERGY PREDICTED BY IDOCK:   -6.11 KCAL/MOL
REMARK 922        TOTAL FREE ENERGY PREDICTED BY IDOCK:   -8.05 KCAL/MOL
REMARK 923 INTER-LIGAND FREE ENERGY PREDICTED BY IDOCK:   -7.37 KCAL/MOL
REMARK 924 INTRA-LIGAND FREE ENERGY PREDICTED BY IDOCK:   -0.67 KCAL/MOL
REMARK 927      BINDING AFFINITY PREDICTED BY RF-SCORE:    0.00 PKD
ROOT
HETATM    1  C   UNL     1     -11.898  11.725  63.110  1.00  0.00    -0.194 C  
HETATM    2  C   UNL     1     -11.533  13.035  63.740  1.00  0.00    -0.429 A  
HETATM    3  N   UNL     1     -10.243  13.212  64.106  1.00  0.00    -0.338 NA 
HETATM    4  C   UNL     1      -9.948  14.313  64.846  1.00  0.00    -0.099 A  
HETATM    5  C   UNL     1     -10.887  15.226  65.316  1.00  0.00    -0.417 A  
HETATM    6  C   UNL     1     -12.504  13.997  63.972  1.00  0.00    -0.237 A  
HETATM    7  C   UNL     1     -12.174  15.089  64.770  1.00  0.00    -0.223 A  
ENDROOT
BRANCH   5   8
HETATM    8  C   UNL     1     -10.617  16.235  66.366  1.00  0.00    -0.253 A  
HETATM    9  C   UNL     1     -10.703  16.033  67.771  1.00  0.00    -0.323 A  
HETATM   10  C   UNL     1     -10.477  17.178  68.575  1.00  0.00    -0.377 A  
HETATM   11  N   UNL     1     -10.371  17.471  65.827  1.00  0.00    -0.603 NA 
HETATM   12  C   UNL     1     -10.217  18.424  68.021  1.00  0.00    -0.381 A  
HETATM   13  C   UNL     1     -10.188  18.526  66.651  1.00  0.00    -0.399 A  
HETATM   14 CL   UNL     1      -9.976  19.796  69.022  1.00  0.00    -0.496 Cl 
BRANCH   9  15
HETATM   15  C   UNL     1     -11.062  14.765  68.478  1.00  0.00    -0.275 A  
HETATM   16  C   UNL     1     -11.980  14.777  69.554  1.00  0.00    -0.351 A  
HETATM   17  C   UNL     1     -12.393  13.601  70.192  1.00  0.00    -0.372 A  
HETATM   18  C   UNL     1     -11.857  12.381  69.792  1.00  0.00    -0.317 A  
HETATM   19  C   UNL     1     -10.919  12.330  68.766  1.00  0.00    -0.277 A  
HETATM   20  C   UNL     1     -10.570  13.505  68.088  1.00  0.00    -0.253 A  
BRANCH  18  21
HETATM   21  S   UNL     1     -12.363  10.886  70.600  1.00  0.00    -0.397 S  
HETATM   22  C   UNL     1     -13.296  11.482  71.994  1.00  0.00    -0.292 C  
HETATM   23  O   UNL     1     -13.273  10.192  69.710  1.00  0.00     0.207 OA 
HETATM   24  O   UNL     1     -11.170  10.238  71.107  1.00  0.00    -0.277 OA 
ENDBRANCH  18  21
ENDBRANCH   9  15
ENDBRANCH   5   8
TORSDOF 3
ENDMDL
MODEL       25
REMARK 921   NORMALIZED FREE ENERGY PREDICTED BY IDOCK:   -6.10 KCAL/MOL
REMARK 922        TOTAL FREE ENERGY PREDICTED BY IDOCK:   -8.04 KCAL/MOL
REMARK 923 INTER-LIGAND FREE ENERGY PREDICTED BY IDOCK:   -7.14 KCAL/MOL
REMARK 924 INTRA-LIGAND FREE ENERGY PREDICTED BY IDOCK:   -0.90 KCAL/MOL
REMARK 927      BINDING AFFINITY PREDICTED BY RF-SCORE:    0.00 PKD
ROOT
HETATM    1  C   UNL     1     -11.121   5.742  70.847  1.00  0.00    -0.267 C  
HETATM    2  C   UNL     1     -11.428   7.173  71.168  1.00  0.00    -0.290 A  
HETATM    3  N   UNL     1     -12.729   7.537  71.211  1.00  0.00    -0.326 NA 
HETATM    4  C   UNL     1     -13.005   8.864  71.312  1.00  0.00    -0.211 A  
HETATM    5  C   UNL     1     -12.050   9.874  71.299  1.00  0.00    -0.485 A  
HETATM    6  C   UNL     1     -10.401   8.083  71.367  1.00  0.00    -0.243 A  
HETATM    7  C   UNL     1     -10.720   9.437  71.423  1.00  0.00    -0.407 A  
ENDROOT
BRANCH   5   8
HETATM    8  C   UNL     1     -12.355  11.309  71.096  1.00  0.00    -0.324 A  
HETATM    9  C   UNL     1     -11.919  12.118  70.010  1.00  0.00    -0.391 A  
HETATM   10  C   UNL     1     -12.273  13.489  70.080  1.00  0.00    -0.381 A  
HETATM   11  N   UNL     1     -13.039  11.836  72.161  1.00  0.00    -0.373 NA 
HETATM   12  C   UNL     1     -12.976  14.011  71.157  1.00  0.00    -0.332 A  
HETATM   13  C   UNL     1     -13.323  13.157  72.174  1.00  0.00    -0.524 A  
HETATM   14 CL   UNL     1     -13.364  15.681  71.224  1.00  0.00    -0.557 Cl 
BRANCH   9  15
HETATM   15  C   UNL     1     -11.084  11.690  68.846  1.00  0.00    -0.287 A  
HETATM   16  C   UNL     1      -9.854  12.330  68.568  1.00  0.00    -0.157 A  
HETATM   17  C   UNL     1      -9.014  11.909  67.530  1.00  0.00    -0.171 A  
HETATM   18  C   UNL     1      -9.412  10.855  66.713  1.00  0.00    -0.177 A  
HETATM   19  C   UNL     1     -10.634  10.225  66.925  1.00  0.00    -0.282 A  
HETATM   20  C   UNL     1     -11.430  10.609  68.012  1.00  0.00    -0.289 A  
BRANCH  18  21
HETATM   21  S   UNL     1      -8.362  10.320  65.389  1.00  0.00    -0.166 S  
HETATM   22  C   UNL     1      -8.573   8.552  65.401  1.00  0.00    -0.176 C  
HETATM   23  O   UNL     1      -8.918  10.833  64.152  1.00  0.00    -0.187 OA 
HETATM   24  O   UNL     1      -6.993  10.607  65.771  1.00  0.00    -0.133 OA 
ENDBRANCH  18  21
ENDBRANCH   9  15
ENDBRANCH   5   8
TORSDOF 3
ENDMDL
MODEL       26
REMARK 921   NORMALIZED FREE ENERGY PREDICTED BY IDOCK:   -6.06 KCAL/MOL
REMARK 922        TOTAL FREE ENERGY PREDICTED BY IDOCK:   -7.99 KCAL/MOL
REMARK 923 INTER-LIGAND FREE ENERGY PREDICTED BY IDOCK:   -7.31 KCAL/MOL
REMARK 924 INTRA-LIGAND FREE ENERGY PREDICTED BY IDOCK:   -0.68 KCAL/MOL
REMARK 927      BINDING AFFINITY PREDICTED BY RF-SCORE:    0.00 PKD
ROOT
HETATM    1  C   UNL     1     -11.597   5.880  72.703  1.00  0.00    -0.289 C  
HETATM    2  C   UNL     1     -11.804   7.199  72.020  1.00  0.00    -0.295 A  
HETATM    3  N   UNL     1     -10.725   8.001  71.875  1.00  0.00    -0.237 NA 
HETATM    4  C   UNL     1     -10.942   9.268  71.432  1.00  0.00    -0.359 A  
HETATM    5  C   UNL     1     -12.197   9.818  71.192  1.00  0.00    -0.453 A  
HETATM    6  C   UNL     1     -13.069   7.581  71.603  1.00  0.00    -0.401 A  
HETATM    7  C   UNL     1     -13.260   8.899  71.196  1.00  0.00    -0.133 A  
ENDROOT
BRANCH   5   8
HETATM    8  C   UNL     1     -12.454  11.266  71.016  1.00  0.00    -0.400 A  
HETATM    9  C   UNL     1     -11.930  12.094  69.986  1.00  0.00    -0.391 A  
HETATM   10  C   UNL     1     -12.253  13.472  70.076  1.00  0.00    -0.381 A  
HETATM   11  N   UNL     1     -13.191  11.778  72.051  1.00  0.00    -0.464 NA 
HETATM   12  C   UNL     1     -13.011  13.980  71.123  1.00  0.00    -0.332 A  
HETATM   13  C   UNL     1     -13.443  13.105  72.089  1.00  0.00    -0.560 A  
HETATM   14 CL   UNL     1     -13.361  15.657  71.218  1.00  0.00    -0.557 Cl 
BRANCH   9  15
HETATM   15  C   UNL     1     -11.033  11.679  68.863  1.00  0.00    -0.282 A  
HETATM   16  C   UNL     1     -11.385  10.596  68.025  1.00  0.00    -0.350 A  
HETATM   17  C   UNL     1     -10.605  10.225  66.922  1.00  0.00    -0.282 A  
HETATM   18  C   UNL     1      -9.423  10.911  66.659  1.00  0.00    -0.179 A  
HETATM   19  C   UNL     1      -9.018  11.955  67.485  1.00  0.00    -0.171 A  
HETATM   20  C   UNL     1      -9.845  12.362  68.540  1.00  0.00    -0.156 A  
BRANCH  18  21
HETATM   21  S   UNL     1      -8.421  10.444  65.273  1.00  0.00    -0.169 S  
HETATM   22  C   UNL     1      -8.576   8.671  65.248  1.00  0.00    -0.180 C  
HETATM   23  O   UNL     1      -9.051  10.969  64.077  1.00  0.00    -0.179 OA 
HETATM   24  O   UNL     1      -7.046  10.766  65.599  1.00  0.00    -0.113 OA 
ENDBRANCH  18  21
ENDBRANCH   9  15
ENDBRANCH   5   8
TORSDOF 3
ENDMDL
MODEL       27
REMARK 921   NORMALIZED FREE ENERGY PREDICTED BY IDOCK:   -6.06 KCAL/MOL
REMARK 922        TOTAL FREE ENERGY PREDICTED BY IDOCK:   -7.98 KCAL/MOL
REMARK 923 INTER-LIGAND FREE ENERGY PREDICTED BY IDOCK:   -7.67 KCAL/MOL
REMARK 924 INTRA-LIGAND FREE ENERGY PREDICTED BY IDOCK:   -0.31 KCAL/MOL
REMARK 927      BINDING AFFINITY PREDICTED BY RF-SCORE:    0.00 PKD
ROOT
HETATM    1  C   UNL     1     -10.246  20.194  68.149  1.00  0.00    -0.479 C  
HETATM    2  C   UNL     1     -10.086  18.848  67.510  1.00  0.00    -0.364 A  
HETATM    3  N   UNL     1     -10.737  18.630  66.345  1.00  0.00    -0.308 NA 
HETATM    4  C   UNL     1     -10.750  17.360  65.863  1.00  0.00    -0.123 A  
HETATM    5  C   UNL     1     -10.208  16.259  66.518  1.00  0.00    -0.307 A  
HETATM    6  C   UNL     1      -9.331  17.863  68.128  1.00  0.00    -0.286 A  
HETATM    7  C   UNL     1      -9.404  16.565  67.630  1.00  0.00    -0.212 A  
ENDROOT
BRANCH   5   8
HETATM    8  C   UNL     1     -10.488  14.850  66.156  1.00  0.00    -0.306 A  
HETATM    9  C   UNL     1     -11.162  13.892  66.962  1.00  0.00    -0.327 A  
HETATM   10  C   UNL     1     -11.237  12.580  66.430  1.00  0.00    -0.353 A  
HETATM   11  N   UNL     1      -9.914  14.513  64.959  1.00  0.00    -0.275 NA 
HETATM   12  C   UNL     1     -10.661  12.250  65.210  1.00  0.00    -0.287 A  
HETATM   13  C   UNL     1     -10.002  13.237  64.521  1.00  0.00    -0.088 A  
HETATM   14 CL   UNL     1     -10.745  10.646  64.608  1.00  0.00    -0.194 Cl 
BRANCH   9  15
HETATM   15  C   UNL     1     -11.741  14.107  68.325  1.00  0.00    -0.383 A  
HETATM   16  C   UNL     1     -11.915  13.019  69.211  1.00  0.00    -0.331 A  
HETATM   17  C   UNL     1     -12.387  13.194  70.518  1.00  0.00    -0.380 A  
HETATM   18  C   UNL     1     -12.738  14.467  70.954  1.00  0.00    -0.344 A  
HETATM   19  C   UNL     1     -12.623  15.559  70.099  1.00  0.00    -0.304 A  
HETATM   20  C   UNL     1     -12.081  15.380  68.820  1.00  0.00    -0.183 A  
BRANCH  18  21
HETATM   21  S   UNL     1     -13.348  14.700  72.603  1.00  0.00    -0.504 S  
HETATM   22  C   UNL     1     -11.936  15.363  73.460  1.00  0.00    -0.434 C  
HETATM   23  O   UNL     1     -14.371  15.726  72.553  1.00  0.00    -0.528 OA 
HETATM   24  O   UNL     1     -13.628  13.388  73.155  1.00  0.00    -0.372 OA 
ENDBRANCH  18  21
ENDBRANCH   9  15
ENDBRANCH   5   8
TORSDOF 3
ENDMDL
MODEL       28
REMARK 921   NORMALIZED FREE ENERGY PREDICTED BY IDOCK:   -6.01 KCAL/MOL
REMARK 922        TOTAL FREE ENERGY PREDICTED BY IDOCK:   -7.93 KCAL/MOL
REMARK 923 INTER-LIGAND FREE ENERGY PREDICTED BY IDOCK:   -6.99 KCAL/MOL
REMARK 924 INTRA-LIGAND FREE ENERGY PREDICTED BY IDOCK:   -0.94 KCAL/MOL
REMARK 927      BINDING AFFINITY PREDICTED BY RF-SCORE:    0.00 PKD
ROOT
HETATM    1  C   UNL     1     -12.492  16.118  72.508  1.00  0.00    -0.518 C  
HETATM    2  C   UNL     1     -12.112  15.290  71.318  1.00  0.00    -0.349 A  
HETATM    3  N   UNL     1     -11.335  15.871  70.376  1.00  0.00    -0.356 NA 
HETATM    4  C   UNL     1     -11.148  15.193  69.214  1.00  0.00    -0.274 A  
HETATM    5  C   UNL     1     -11.756  13.983  68.896  1.00  0.00    -0.375 A  
HETATM    6  C   UNL     1     -12.585  13.994  71.187  1.00  0.00    -0.445 A  
HETATM    7  C   UNL     1     -12.410  13.348  69.966  1.00  0.00    -0.294 A  
ENDROOT
BRANCH   5   8
HETATM    8  C   UNL     1     -11.803  13.405  67.533  1.00  0.00    -0.366 A  
HETATM    9  C   UNL     1     -11.267  12.150  67.132  1.00  0.00    -0.372 A  
HETATM   10  C   UNL     1     -11.363  11.851  65.749  1.00  0.00    -0.354 A  
HETATM   11  N   UNL     1     -12.343  14.283  66.630  1.00  0.00    -0.392 NA 
HETATM   12  C   UNL     1     -11.922  12.743  64.843  1.00  0.00    -0.402 A  
HETATM   13  C   UNL     1     -12.382  13.945  65.323  1.00  0.00    -0.464 A  
HETATM   14 CL   UNL     1     -11.998  12.362  63.172  1.00  0.00    -0.451 Cl 
BRANCH   9  15
HETATM   15  C   UNL     1     -10.565  11.152  67.996  1.00  0.00    -0.233 A  
HETATM   16  C   UNL     1     -11.269  10.054  68.543  1.00  0.00    -0.180 A  
HETATM   17  C   UNL     1     -10.629   9.062  69.297  1.00  0.00    -0.226 A  
HETATM   18  C   UNL     1      -9.268   9.173  69.558  1.00  0.00    -0.159 A  
HETATM   19  C   UNL     1      -8.546  10.260  69.075  1.00  0.00    -0.162 A  
HETATM   20  C   UNL     1      -9.184  11.206  68.261  1.00  0.00    -0.169 A  
BRANCH  18  21
HETATM   21  S   UNL     1      -8.448   7.930  70.521  1.00  0.00    -0.128 S  
HETATM   22  C   UNL     1      -6.865   8.667  70.861  1.00  0.00    -0.061 C  
HETATM   23  O   UNL     1      -9.166   7.800  71.774  1.00  0.00    -0.134 OA 
HETATM   24  O   UNL     1      -8.230   6.783  69.660  1.00  0.00    -0.127 OA 
ENDBRANCH  18  21
ENDBRANCH   9  15
ENDBRANCH   5   8
TORSDOF 3
ENDMDL
MODEL       29
REMARK 921   NORMALIZED FREE ENERGY PREDICTED BY IDOCK:   -5.99 KCAL/MOL
REMARK 922        TOTAL FREE ENERGY PREDICTED BY IDOCK:   -7.91 KCAL/MOL
REMARK 923 INTER-LIGAND FREE ENERGY PREDICTED BY IDOCK:   -6.94 KCAL/MOL
REMARK 924 INTRA-LIGAND FREE ENERGY PREDICTED BY IDOCK:   -0.97 KCAL/MOL
REMARK 927      BINDING AFFINITY PREDICTED BY RF-SCORE:    0.00 PKD
ROOT
HETATM    1  C   UNL     1      -7.025  17.486  66.091  1.00  0.00    -0.323 C  
HETATM    2  C   UNL     1      -8.148  17.188  67.038  1.00  0.00    -0.201 A  
HETATM    3  N   UNL     1      -7.846  17.092  68.353  1.00  0.00    -0.233 NA 
HETATM    4  C   UNL     1      -8.818  16.638  69.187  1.00  0.00    -0.136 A  
HETATM    5  C   UNL     1     -10.071  16.194  68.775  1.00  0.00    -0.237 A  
HETATM    6  C   UNL     1      -9.432  16.978  66.559  1.00  0.00    -0.295 A  
HETATM    7  C   UNL     1     -10.388  16.472  67.435  1.00  0.00    -0.290 A  
ENDROOT
BRANCH   5   8
HETATM    8  C   UNL     1     -11.002  15.418  69.625  1.00  0.00    -0.284 A  
HETATM    9  C   UNL     1     -11.336  14.044  69.473  1.00  0.00    -0.298 A  
HETATM   10  C   UNL     1     -12.320  13.545  70.363  1.00  0.00    -0.397 A  
HETATM   11  N   UNL     1     -11.625  16.216  70.550  1.00  0.00    -0.351 NA 
HETATM   12  C   UNL     1     -12.937  14.358  71.305  1.00  0.00    -0.344 A  
HETATM   13  C   UNL     1     -12.572  15.680  71.352  1.00  0.00    -0.457 A  
HETATM   14 CL   UNL     1     -14.144  13.728  72.349  1.00  0.00    -0.639 Cl 
BRANCH   9  15
HETATM   15  C   UNL     1     -10.807  13.097  68.444  1.00  0.00    -0.283 A  
HETATM   16  C   UNL     1     -11.678  12.494  67.506  1.00  0.00    -0.439 A  
HETATM   17  C   UNL     1     -11.207  11.659  66.485  1.00  0.00    -0.356 A  
HETATM   18  C   UNL     1      -9.848  11.373  66.407  1.00  0.00    -0.211 A  
HETATM   19  C   UNL     1      -8.963  11.911  67.336  1.00  0.00    -0.173 A  
HETATM   20  C   UNL     1      -9.437  12.802  68.307  1.00  0.00    -0.203 A  
BRANCH  18  21
HETATM   21  S   UNL     1      -9.242  10.307  65.126  1.00  0.00    -0.229 S  
HETATM   22  C   UNL     1      -9.466   8.683  65.818  1.00  0.00    -0.122 C  
HETATM   23  O   UNL     1     -10.130  10.440  63.987  1.00  0.00    -0.307 OA 
HETATM   24  O   UNL     1      -7.817  10.544  64.998  1.00  0.00    -0.134 OA 
ENDBRANCH  18  21
ENDBRANCH   9  15
ENDBRANCH   5   8
TORSDOF 3
ENDMDL
MODEL       30
REMARK 921   NORMALIZED FREE ENERGY PREDICTED BY IDOCK:   -5.90 KCAL/MOL
REMARK 922        TOTAL FREE ENERGY PREDICTED BY IDOCK:   -7.80 KCAL/MOL
REMARK 923 INTER-LIGAND FREE ENERGY PREDICTED BY IDOCK:   -6.88 KCAL/MOL
REMARK 924 INTRA-LIGAND FREE ENERGY PREDICTED BY IDOCK:   -0.92 KCAL/MOL
REMARK 927      BINDING AFFINITY PREDICTED BY RF-SCORE:    0.00 PKD
ROOT
HETATM    1  C   UNL     1      -5.591   9.549  66.681  1.00  0.00    -0.046 C  
HETATM    2  C   UNL     1      -6.637   9.352  67.735  1.00  0.00    -0.063 A  
HETATM    3  N   UNL     1      -7.484   8.309  67.586  1.00  0.00    -0.093 NA 
HETATM    4  C   UNL     1      -8.546   8.239  68.431  1.00  0.00    -0.133 A  
HETATM    5  C   UNL     1      -8.865   9.201  69.383  1.00  0.00    -0.146 A  
HETATM    6  C   UNL     1      -6.745  10.244  68.791  1.00  0.00    -0.053 A  
HETATM    7  C   UNL     1      -7.869  10.166  69.609  1.00  0.00    -0.181 A  
ENDROOT
BRANCH   5   8
HETATM    8  C   UNL     1     -10.169   9.286  70.079  1.00  0.00    -0.215 A  
HETATM    9  C   UNL     1     -11.263  10.121  69.718  1.00  0.00    -0.325 A  
HETATM   10  C   UNL     1     -12.380  10.088  70.591  1.00  0.00    -0.342 A  
HETATM   11  N   UNL     1     -10.183   8.529  71.222  1.00  0.00    -0.207 NA 
HETATM   12  C   UNL     1     -12.389   9.309  71.741  1.00  0.00    -0.379 A  
HETATM   13  C   UNL     1     -11.271   8.562  72.022  1.00  0.00    -0.348 A  
HETATM   14 CL   UNL     1     -13.746   9.312  72.791  1.00  0.00    -0.381 Cl 
BRANCH   9  15
HETATM   15  C   UNL     1     -11.333  11.065  68.561  1.00  0.00    -0.355 A  
HETATM   16  C   UNL     1     -11.129  10.601  67.241  1.00  0.00    -0.313 A  
HETATM   17  C   UNL     1     -11.257  11.442  66.129  1.00  0.00    -0.203 A  
HETATM   18  C   UNL     1     -11.553  12.788  66.319  1.00  0.00    -0.379 A  
HETATM   19  C   UNL     1     -11.719  13.295  67.605  1.00  0.00    -0.408 A  
HETATM   20  C   UNL     1     -11.660  12.427  68.703  1.00  0.00    -0.365 A  
BRANCH  18  21
HETATM   21  S   UNL     1     -11.706  13.866  64.920  1.00  0.00    -0.389 S  
HETATM   22  C   UNL     1     -11.652  12.741  63.542  1.00  0.00    -0.501 C  
HETATM   23  O   UNL     1     -13.028  14.461  64.966  1.00  0.00    -0.643 OA 
HETATM   24  O   UNL     1     -10.514  14.690  64.870  1.00  0.00    -0.414 OA 
ENDBRANCH  18  21
ENDBRANCH   9  15
ENDBRANCH   5   8
TORSDOF 3
ENDMDL
MODEL       31
REMARK 921   NORMALIZED FREE ENERGY PREDICTED BY IDOCK:   -5.90 KCAL/MOL
REMARK 922        TOTAL FREE ENERGY PREDICTED BY IDOCK:   -7.80 KCAL/MOL
REMARK 923 INTER-LIGAND FREE ENERGY PREDICTED BY IDOCK:   -7.28 KCAL/MOL
REMARK 924 INTRA-LIGAND FREE ENERGY PREDICTED BY IDOCK:   -0.52 KCAL/MOL
REMARK 927      BINDING AFFINITY PREDICTED BY RF-SCORE:    0.00 PKD
ROOT
HETATM    1  C   UNL     1     -10.870  20.294  65.615  1.00  0.00    -0.024 C  
HETATM    2  C   UNL     1      -9.955  19.475  66.474  1.00  0.00    -0.420 A  
HETATM    3  N   UNL     1      -8.717  19.216  65.996  1.00  0.00    -0.459 NA 
HETATM    4  C   UNL     1      -7.956  18.321  66.679  1.00  0.00    -0.251 A  
HETATM    5  C   UNL     1      -8.387  17.599  67.787  1.00  0.00    -0.226 A  
HETATM    6  C   UNL     1     -10.396  18.973  67.689  1.00  0.00    -0.504 A  
HETATM    7  C   UNL     1      -9.608  18.026  68.337  1.00  0.00    -0.338 A  
ENDROOT
BRANCH   5   8
HETATM    8  C   UNL     1      -7.687  16.415  68.336  1.00  0.00    -0.177 A  
HETATM    9  C   UNL     1      -7.936  15.057  67.996  1.00  0.00    -0.134 A  
HETATM   10  C   UNL     1      -7.190  14.092  68.720  1.00  0.00    -0.120 A  
HETATM   11  N   UNL     1      -6.809  16.763  69.329  1.00  0.00    -0.227 NA 
HETATM   12  C   UNL     1      -6.294  14.455  69.718  1.00  0.00    -0.146 A  
HETATM   13  C   UNL     1      -6.148  15.791  69.996  1.00  0.00    -0.143 A  
HETATM   14 CL   UNL     1      -5.428  13.261  70.594  1.00  0.00    -0.149 Cl 
BRANCH   9  15
HETATM   15  C   UNL     1      -8.935  14.543  67.009  1.00  0.00    -0.258 A  
HETATM   16  C   UNL     1      -9.428  13.221  67.107  1.00  0.00    -0.240 A  
HETATM   17  C   UNL     1     -10.416  12.730  66.244  1.00  0.00    -0.273 A  
HETATM   18  C   UNL     1     -10.903  13.546  65.229  1.00  0.00    -0.310 A  
HETATM   19  C   UNL     1     -10.414  14.839  65.070  1.00  0.00    -0.443 A  
HETATM   20  C   UNL     1      -9.479  15.341  65.985  1.00  0.00    -0.372 A  
BRANCH  18  21
HETATM   21  S   UNL     1     -12.146  12.933  64.122  1.00  0.00    -0.452 S  
HETATM   22  C   UNL     1     -11.358  11.518  63.383  1.00  0.00    -0.206 C  
HETATM   23  O   UNL     1     -13.257  12.463  64.926  1.00  0.00    -0.714 OA 
HETATM   24  O   UNL     1     -12.338  13.928  63.085  1.00  0.00    -0.696 OA 
ENDBRANCH  18  21
ENDBRANCH   9  15
ENDBRANCH   5   8
TORSDOF 3
ENDMDL
MODEL       32
REMARK 921   NORMALIZED FREE ENERGY PREDICTED BY IDOCK:   -5.88 KCAL/MOL
REMARK 922        TOTAL FREE ENERGY PREDICTED BY IDOCK:   -7.77 KCAL/MOL
REMARK 923 INTER-LIGAND FREE ENERGY PREDICTED BY IDOCK:   -6.83 KCAL/MOL
REMARK 924 INTRA-LIGAND FREE ENERGY PREDICTED BY IDOCK:   -0.94 KCAL/MOL
REMARK 927      BINDING AFFINITY PREDICTED BY RF-SCORE:    0.00 PKD
ROOT
HETATM    1  C   UNL     1     -10.187  10.651  64.576  1.00  0.00    -0.399 C  
HETATM    2  C   UNL     1     -10.152  11.960  65.306  1.00  0.00    -0.257 A  
HETATM    3  N   UNL     1     -10.779  13.011  64.732  1.00  0.00    -0.332 NA 
HETATM    4  C   UNL     1     -10.590  14.235  65.291  1.00  0.00    -0.381 A  
HETATM    5  C   UNL     1      -9.739  14.493  66.361  1.00  0.00    -0.314 A  
HETATM    6  C   UNL     1      -9.459  12.078  66.501  1.00  0.00    -0.234 A  
HETATM    7  C   UNL     1      -9.250  13.353  67.020  1.00  0.00    -0.242 A  
ENDROOT
BRANCH   5   8
HETATM    8  C   UNL     1      -9.295  15.847  66.766  1.00  0.00    -0.240 A  
HETATM    9  C   UNL     1      -9.656  16.529  67.961  1.00  0.00    -0.227 A  
HETATM   10  C   UNL     1      -9.169  17.855  68.087  1.00  0.00    -0.278 A  
HETATM   11  N   UNL     1      -8.555  16.451  65.783  1.00  0.00    -0.327 NA 
HETATM   12  C   UNL     1      -8.410  18.455  67.090  1.00  0.00    -0.246 A  
HETATM   13  C   UNL     1      -8.142  17.726  65.958  1.00  0.00    -0.101 A  
HETATM   14 CL   UNL     1      -7.859  20.070  67.261  1.00  0.00    -0.321 Cl 
BRANCH   9  15
HETATM   15  C   UNL     1     -10.537  16.022  69.058  1.00  0.00    -0.257 A  
HETATM   16  C   UNL     1      -9.992  15.680  70.317  1.00  0.00     0.081 A  
HETATM   17  C   UNL     1     -10.796  15.270  71.388  1.00  0.00    -0.035 A  
HETATM   18  C   UNL     1     -12.170  15.151  71.206  1.00  0.00    -0.333 A  
HETATM   19  C   UNL     1     -12.742  15.437  69.970  1.00  0.00    -0.189 A  
HETATM   20  C   UNL     1     -11.935  15.916  68.929  1.00  0.00    -0.202 A  
BRANCH  18  21
HETATM   21  S   UNL     1     -13.197  14.622  72.551  1.00  0.00    -0.465 S  
HETATM   22  C   UNL     1     -12.220  15.027  73.982  1.00  0.00    -0.501 C  
HETATM   23  O   UNL     1     -14.379  15.462  72.558  1.00  0.00    -0.493 OA 
HETATM   24  O   UNL     1     -13.303  13.178  72.478  1.00  0.00    -0.534 OA 
ENDBRANCH  18  21
ENDBRANCH   9  15
ENDBRANCH   5   8
TORSDOF 3
ENDMDL
MODEL       33
REMARK 921   NORMALIZED FREE ENERGY PREDICTED BY IDOCK:   -5.81 KCAL/MOL
REMARK 922        TOTAL FREE ENERGY PREDICTED BY IDOCK:   -7.69 KCAL/MOL
REMARK 923 INTER-LIGAND FREE ENERGY PREDICTED BY IDOCK:   -6.81 KCAL/MOL
REMARK 924 INTRA-LIGAND FREE ENERGY PREDICTED BY IDOCK:   -0.88 KCAL/MOL
REMARK 927      BINDING AFFINITY PREDICTED BY RF-SCORE:    0.00 PKD
ROOT
HETATM    1  C   UNL     1     -10.030  17.330  67.703  1.00  0.00    -0.297 C  
HETATM    2  C   UNL     1     -10.800  16.235  68.377  1.00  0.00    -0.334 A  
HETATM    3  N   UNL     1     -10.794  16.209  69.728  1.00  0.00    -0.311 NA 
HETATM    4  C   UNL     1     -11.327  15.116  70.336  1.00  0.00    -0.290 A  
HETATM    5  C   UNL     1     -11.807  13.994  69.668  1.00  0.00    -0.386 A  
HETATM    6  C   UNL     1     -11.449  15.268  67.623  1.00  0.00    -0.287 A  
HETATM    7  C   UNL     1     -11.944  14.144  68.278  1.00  0.00    -0.367 A  
ENDROOT
BRANCH   5   8
HETATM    8  C   UNL     1     -12.093  12.695  70.319  1.00  0.00    -0.294 A  
HETATM    9  C   UNL     1     -11.636  11.419  69.889  1.00  0.00    -0.402 A  
HETATM   10  C   UNL     1     -12.113  10.309  70.631  1.00  0.00    -0.433 A  
HETATM   11  N   UNL     1     -12.973  12.835  71.361  1.00  0.00    -0.329 NA 
HETATM   12  C   UNL     1     -12.996  10.462  71.692  1.00  0.00    -0.475 A  
HETATM   13  C   UNL     1     -13.407  11.733  72.010  1.00  0.00    -0.312 A  
HETATM   14 CL   UNL     1     -13.577   9.095  72.552  1.00  0.00    -0.522 Cl 
BRANCH   9  15
HETATM   15  C   UNL     1     -10.761  11.124  68.713  1.00  0.00    -0.236 A  
HETATM   16  C   UNL     1      -9.363  11.324  68.788  1.00  0.00    -0.136 A  
HETATM   17  C   UNL     1      -8.507  10.991  67.730  1.00  0.00    -0.122 A  
HETATM   18  C   UNL     1      -9.042  10.488  66.549  1.00  0.00    -0.157 A  
HETATM   19  C   UNL     1     -10.417  10.317  66.418  1.00  0.00    -0.233 A  
HETATM   20  C   UNL     1     -11.254  10.585  67.509  1.00  0.00    -0.299 A  
BRANCH  18  21
HETATM   21  S   UNL     1      -7.970  10.074  65.200  1.00  0.00    -0.149 S  
HETATM   22  C   UNL     1      -8.046   8.296  65.159  1.00  0.00    -0.142 C  
HETATM   23  O   UNL     1      -8.576  10.580  63.984  1.00  0.00    -0.174 OA 
HETATM   24  O   UNL     1      -6.622  10.453  65.579  1.00  0.00    -0.121 OA 
ENDBRANCH  18  21
ENDBRANCH   9  15
ENDBRANCH   5   8
TORSDOF 3
ENDMDL
MODEL       34
REMARK 921   NORMALIZED FREE ENERGY PREDICTED BY IDOCK:   -5.79 KCAL/MOL
REMARK 922        TOTAL FREE ENERGY PREDICTED BY IDOCK:   -7.67 KCAL/MOL
REMARK 923 INTER-LIGAND FREE ENERGY PREDICTED BY IDOCK:   -6.63 KCAL/MOL
REMARK 924 INTRA-LIGAND FREE ENERGY PREDICTED BY IDOCK:   -1.04 KCAL/MOL
REMARK 927      BINDING AFFINITY PREDICTED BY RF-SCORE:    0.00 PKD
ROOT
HETATM    1  C   UNL     1      -5.667  12.067  69.458  1.00  0.00    -0.085 C  
HETATM    2  C   UNL     1      -6.006  13.497  69.161  1.00  0.00    -0.089 A  
HETATM    3  N   UNL     1      -6.377  14.277  70.201  1.00  0.00    -0.157 NA 
HETATM    4  C   UNL     1      -6.866  15.512  69.913  1.00  0.00    -0.093 A  
HETATM    5  C   UNL     1      -7.082  15.998  68.628  1.00  0.00    -0.136 A  
HETATM    6  C   UNL     1      -5.978  13.968  67.858  1.00  0.00    -0.144 A  
HETATM    7  C   UNL     1      -6.527  15.221  67.597  1.00  0.00    -0.188 A  
ENDROOT
BRANCH   5   8
HETATM    8  C   UNL     1      -7.892  17.198  68.314  1.00  0.00    -0.227 A  
HETATM    9  C   UNL     1      -9.120  17.220  67.597  1.00  0.00    -0.228 A  
HETATM   10  C   UNL     1      -9.668  18.505  67.350  1.00  0.00    -0.318 A  
HETATM   11  N   UNL     1      -7.261  18.350  68.705  1.00  0.00    -0.279 NA 
HETATM   12  C   UNL     1      -9.027  19.666  67.759  1.00  0.00    -0.322 A  
HETATM   13  C   UNL     1      -7.827  19.542  68.415  1.00  0.00    -0.339 A  
HETATM   14 CL   UNL     1      -9.702  21.206  67.420  1.00  0.00    -0.313 Cl 
BRANCH   9  15
HETATM   15  C   UNL     1      -9.855  16.048  67.030  1.00  0.00    -0.240 A  
HETATM   16  C   UNL     1      -9.673  15.670  65.679  1.00  0.00    -0.348 A  
HETATM   17  C   UNL     1     -10.290  14.536  65.135  1.00  0.00    -0.438 A  
HETATM   18  C   UNL     1     -11.143  13.775  65.928  1.00  0.00    -0.286 A  
HETATM   19  C   UNL     1     -11.383  14.137  67.250  1.00  0.00    -0.349 A  
HETATM   20  C   UNL     1     -10.703  15.230  67.801  1.00  0.00    -0.286 A  
BRANCH  18  21
HETATM   21  S   UNL     1     -11.939  12.344  65.247  1.00  0.00    -0.356 S  
HETATM   22  C   UNL     1     -11.090  12.114  63.700  1.00  0.00    -0.457 C  
HETATM   23  O   UNL     1     -11.627  11.218  66.106  1.00  0.00    -0.213 OA 
HETATM   24  O   UNL     1     -13.312  12.705  64.953  1.00  0.00    -0.741 OA 
ENDBRANCH  18  21
ENDBRANCH   9  15
ENDBRANCH   5   8
TORSDOF 3
ENDMDL
MODEL       35
REMARK 921   NORMALIZED FREE ENERGY PREDICTED BY IDOCK:   -5.78 KCAL/MOL
REMARK 922        TOTAL FREE ENERGY PREDICTED BY IDOCK:   -7.65 KCAL/MOL
REMARK 923 INTER-LIGAND FREE ENERGY PREDICTED BY IDOCK:   -6.72 KCAL/MOL
REMARK 924 INTRA-LIGAND FREE ENERGY PREDICTED BY IDOCK:   -0.93 KCAL/MOL
REMARK 927      BINDING AFFINITY PREDICTED BY RF-SCORE:    0.00 PKD
ROOT
HETATM    1  C   UNL     1     -10.084  16.648  66.392  1.00  0.00    -0.325 C  
HETATM    2  C   UNL     1     -10.732  15.667  67.321  1.00  0.00    -0.305 A  
HETATM    3  N   UNL     1     -10.393  15.730  68.629  1.00  0.00    -0.219 NA 
HETATM    4  C   UNL     1     -10.830  14.728  69.437  1.00  0.00    -0.255 A  
HETATM    5  C   UNL     1     -11.533  13.609  69.002  1.00  0.00    -0.346 A  
HETATM    6  C   UNL     1     -11.610  14.712  66.831  1.00  0.00    -0.374 A  
HETATM    7  C   UNL     1     -12.000  13.679  67.678  1.00  0.00    -0.386 A  
ENDROOT
BRANCH   5   8
HETATM    8  C   UNL     1     -11.734  12.384  69.809  1.00  0.00    -0.291 A  
HETATM    9  C   UNL     1     -11.210  11.093  69.525  1.00  0.00    -0.341 A  
HETATM   10  C   UNL     1     -11.612  10.056  70.405  1.00  0.00    -0.379 A  
HETATM   11  N   UNL     1     -12.604  12.600  70.846  1.00  0.00    -0.309 NA 
HETATM   12  C   UNL     1     -12.485  10.286  71.460  1.00  0.00    -0.422 A  
HETATM   13  C   UNL     1     -12.964  11.561  71.632  1.00  0.00    -0.394 A  
HETATM   14 CL   UNL     1     -12.973   9.003  72.489  1.00  0.00    -0.470 Cl 
BRANCH   9  15
HETATM   15  C   UNL     1     -10.339  10.707  68.373  1.00  0.00    -0.197 A  
HETATM   16  C   UNL     1     -10.746   9.698  67.469  1.00  0.00    -0.321 A  
HETATM   17  C   UNL     1      -9.988   9.362  66.340  1.00  0.00    -0.346 A  
HETATM   18  C   UNL     1      -8.775  10.004  66.114  1.00  0.00    -0.140 A  
HETATM   19  C   UNL     1      -8.317  10.972  67.003  1.00  0.00    -0.137 A  
HETATM   20  C   UNL     1      -9.119  11.350  68.087  1.00  0.00    -0.174 A  
BRANCH  18  21
HETATM   21  S   UNL     1      -7.802   9.578  64.695  1.00  0.00    -0.130 S  
HETATM   22  C   UNL     1      -8.705  10.321  63.354  1.00  0.00    -0.206 C  
HETATM   23  O   UNL     1      -6.528  10.260  64.814  1.00  0.00    -0.128 OA 
HETATM   24  O   UNL     1      -7.869   8.139  64.533  1.00  0.00    -0.123 OA 
ENDBRANCH  18  21
ENDBRANCH   9  15
ENDBRANCH   5   8
TORSDOF 3
ENDMDL
MODEL       36
REMARK 921   NORMALIZED FREE ENERGY PREDICTED BY IDOCK:   -5.72 KCAL/MOL
REMARK 922        TOTAL FREE ENERGY PREDICTED BY IDOCK:   -7.59 KCAL/MOL
REMARK 923 INTER-LIGAND FREE ENERGY PREDICTED BY IDOCK:   -7.15 KCAL/MOL
REMARK 924 INTRA-LIGAND FREE ENERGY PREDICTED BY IDOCK:   -0.44 KCAL/MOL
REMARK 927      BINDING AFFINITY PREDICTED BY RF-SCORE:    0.00 PKD
ROOT
HETATM    1  C   UNL     1      -6.280   9.959  67.532  1.00  0.00    -0.059 C  
HETATM    2  C   UNL     1      -7.606   9.875  68.226  1.00  0.00    -0.080 A  
HETATM    3  N   UNL     1      -7.602   9.861  69.578  1.00  0.00    -0.109 NA 
HETATM    4  C   UNL     1      -8.778   9.595  70.205  1.00  0.00    -0.231 A  
HETATM    5  C   UNL     1      -9.963   9.263  69.556  1.00  0.00    -0.194 A  
HETATM    6  C   UNL     1      -8.777   9.773  67.491  1.00  0.00    -0.125 A  
HETATM    7  C   UNL     1      -9.953   9.457  68.164  1.00  0.00    -0.202 A  
ENDROOT
BRANCH   5   8
HETATM    8  C   UNL     1     -11.146   8.676  70.227  1.00  0.00    -0.217 A  
HETATM    9  C   UNL     1     -12.208   9.394  70.842  1.00  0.00    -0.297 A  
HETATM   10  C   UNL     1     -13.190   8.606  71.494  1.00  0.00    -0.335 A  
HETATM   11  N   UNL     1     -11.060   7.309  70.297  1.00  0.00    -0.264 NA 
HETATM   12  C   UNL     1     -13.101   7.221  71.550  1.00  0.00    -0.384 A  
HETATM   13  C   UNL     1     -12.019   6.621  70.955  1.00  0.00    -0.355 A  
HETATM   14 CL   UNL     1     -14.292   6.299  72.372  1.00  0.00     0.174 Cl 
BRANCH   9  15
HETATM   15  C   UNL     1     -12.363  10.879  70.925  1.00  0.00    -0.501 A  
HETATM   16  C   UNL     1     -11.831  11.715  69.916  1.00  0.00    -0.434 A  
HETATM   17  C   UNL     1     -12.019  13.102  69.924  1.00  0.00    -0.387 A  
HETATM   18  C   UNL     1     -12.714  13.692  70.975  1.00  0.00    -0.332 A  
HETATM   19  C   UNL     1     -13.217  12.910  72.010  1.00  0.00    -0.549 A  
HETATM   20  C   UNL     1     -13.085  11.517  71.952  1.00  0.00    -0.492 A  
BRANCH  18  21
HETATM   21  S   UNL     1     -12.949  15.449  71.003  1.00  0.00    -0.489 S  
HETATM   22  C   UNL     1     -12.055  15.948  72.459  1.00  0.00    -0.509 C  
HETATM   23  O   UNL     1     -12.273  16.002  69.846  1.00  0.00    -0.255 OA 
HETATM   24  O   UNL     1     -14.358  15.698  71.239  1.00  0.00    -0.521 OA 
ENDBRANCH  18  21
ENDBRANCH   9  15
ENDBRANCH   5   8
TORSDOF 3
ENDMDL
MODEL       37
REMARK 921   NORMALIZED FREE ENERGY PREDICTED BY IDOCK:   -5.63 KCAL/MOL
REMARK 922        TOTAL FREE ENERGY PREDICTED BY IDOCK:   -7.48 KCAL/MOL
REMARK 923 INTER-LIGAND FREE ENERGY PREDICTED BY IDOCK:   -6.59 KCAL/MOL
REMARK 924 INTRA-LIGAND FREE ENERGY PREDICTED BY IDOCK:   -0.90 KCAL/MOL
REMARK 927      BINDING AFFINITY PREDICTED BY RF-SCORE:    0.00 PKD
ROOT
HETATM    1  C   UNL     1     -12.695  12.196  63.382  1.00  0.00    -0.508 C  
HETATM    2  C   UNL     1     -11.725  11.896  64.485  1.00  0.00    -0.248 A  
HETATM    3  N   UNL     1     -12.132  12.130  65.753  1.00  0.00    -0.554 NA 
HETATM    4  C   UNL     1     -11.198  12.041  66.737  1.00  0.00    -0.322 A  
HETATM    5  C   UNL     1      -9.845  11.801  66.524  1.00  0.00    -0.228 A  
HETATM    6  C   UNL     1     -10.450  11.437  64.192  1.00  0.00    -0.421 A  
HETATM    7  C   UNL     1      -9.510  11.401  65.219  1.00  0.00    -0.233 A  
ENDROOT
BRANCH   5   8
HETATM    8  C   UNL     1      -8.789  12.010  67.542  1.00  0.00    -0.172 A  
HETATM    9  C   UNL     1      -8.318  13.264  68.020  1.00  0.00    -0.162 A  
HETATM   10  C   UNL     1      -7.239  13.208  68.938  1.00  0.00    -0.048 A  
HETATM   11  N   UNL     1      -8.207  10.827  67.916  1.00  0.00    -0.111 NA 
HETATM   12  C   UNL     1      -6.662  12.004  69.321  1.00  0.00    -0.093 A  
HETATM   13  C   UNL     1      -7.166  10.848  68.777  1.00  0.00    -0.091 A  
HETATM   14 CL   UNL     1      -5.339  11.973  70.412  1.00  0.00    -0.117 Cl 
BRANCH   9  15
HETATM   15  C   UNL     1      -8.796  14.621  67.615  1.00  0.00    -0.184 A  
HETATM   16  C   UNL     1      -9.996  15.149  68.146  1.00  0.00    -0.221 A  
HETATM   17  C   UNL     1     -10.436  16.444  67.844  1.00  0.00    -0.307 A  
HETATM   18  C   UNL     1      -9.700  17.228  66.961  1.00  0.00    -0.267 A  
HETATM   19  C   UNL     1      -8.537  16.730  66.383  1.00  0.00    -0.338 A  
HETATM   20  C   UNL     1      -8.070  15.462  66.750  1.00  0.00    -0.212 A  
BRANCH  18  21
HETATM   21  S   UNL     1     -10.253  18.864  66.562  1.00  0.00    -0.440 S  
HETATM   22  C   UNL     1      -8.739  19.800  66.527  1.00  0.00    -0.360 C  
HETATM   23  O   UNL     1     -10.795  18.830  65.217  1.00  0.00    -0.576 OA 
HETATM   24  O   UNL     1     -11.046  19.343  67.677  1.00  0.00    -0.370 OA 
ENDBRANCH  18  21
ENDBRANCH   9  15
ENDBRANCH   5   8
TORSDOF 3
ENDMDL
MODEL       38
REMARK 921   NORMALIZED FREE ENERGY PREDICTED BY IDOCK:   -5.56 KCAL/MOL
REMARK 922        TOTAL FREE ENERGY PREDICTED BY IDOCK:   -7.40 KCAL/MOL
REMARK 923 INTER-LIGAND FREE ENERGY PREDICTED BY IDOCK:   -6.66 KCAL/MOL
REMARK 924 INTRA-LIGAND FREE ENERGY PREDICTED BY IDOCK:   -0.74 KCAL/MOL
REMARK 927      BINDING AFFINITY PREDICTED BY RF-SCORE:    0.00 PKD
ROOT
HETATM    1  C   UNL     1      -8.663   9.122  62.469  1.00  0.00    -0.213 C  
HETATM    2  C   UNL     1      -8.940   9.530  63.884  1.00  0.00    -0.179 A  
HETATM    3  N   UNL     1      -8.335   8.825  64.866  1.00  0.00    -0.162 NA 
HETATM    4  C   UNL     1      -8.729   9.066  66.145  1.00  0.00    -0.147 A  
HETATM    5  C   UNL     1      -9.759   9.928  66.506  1.00  0.00    -0.260 A  
HETATM    6  C   UNL     1      -9.822  10.565  64.156  1.00  0.00    -0.401 A  
HETATM    7  C   UNL     1     -10.234  10.753  65.472  1.00  0.00    -0.330 A  
ENDROOT
BRANCH   5   8
HETATM    8  C   UNL     1     -10.391   9.958  67.845  1.00  0.00    -0.212 A  
HETATM    9  C   UNL     1     -10.796  11.119  68.560  1.00  0.00    -0.243 A  
HETATM   10  C   UNL     1     -11.303  10.896  69.865  1.00  0.00    -0.381 A  
HETATM   11  N   UNL     1     -10.453   8.707  68.402  1.00  0.00    -0.203 NA 
HETATM   12  C   UNL     1     -11.372   9.623  70.417  1.00  0.00    -0.277 A  
HETATM   13  C   UNL     1     -10.926   8.568  69.660  1.00  0.00    -0.086 A  
HETATM   14 CL   UNL     1     -11.966   9.390  72.009  1.00  0.00    -0.402 Cl 
BRANCH   9  15
HETATM   15  C   UNL     1     -10.686  12.540  68.107  1.00  0.00    -0.246 A  
HETATM   16  C   UNL     1      -9.485  13.263  68.294  1.00  0.00    -0.209 A  
HETATM   17  C   UNL     1      -9.324  14.571  67.819  1.00  0.00    -0.198 A  
HETATM   18  C   UNL     1     -10.385  15.203  67.180  1.00  0.00    -0.263 A  
HETATM   19  C   UNL     1     -11.599  14.542  67.014  1.00  0.00    -0.402 A  
HETATM   20  C   UNL     1     -11.722  13.209  67.429  1.00  0.00    -0.419 A  
BRANCH  18  21
HETATM   21  S   UNL     1     -10.197  16.862  66.585  1.00  0.00    -0.306 S  
HETATM   22  C   UNL     1      -8.478  17.204  66.894  1.00  0.00    -0.222 C  
HETATM   23  O   UNL     1     -10.404  16.841  65.150  1.00  0.00    -0.639 OA 
HETATM   24  O   UNL     1     -10.984  17.727  67.443  1.00  0.00    -0.261 OA 
ENDBRANCH  18  21
ENDBRANCH   9  15
ENDBRANCH   5   8
TORSDOF 3
ENDMDL
MODEL       39
REMARK 921   NORMALIZED FREE ENERGY PREDICTED BY IDOCK:   -5.54 KCAL/MOL
REMARK 922        TOTAL FREE ENERGY PREDICTED BY IDOCK:   -7.38 KCAL/MOL
REMARK 923 INTER-LIGAND FREE ENERGY PREDICTED BY IDOCK:   -6.71 KCAL/MOL
REMARK 924 INTRA-LIGAND FREE ENERGY PREDICTED BY IDOCK:   -0.67 KCAL/MOL
REMARK 927      BINDING AFFINITY PREDICTED BY RF-SCORE:    0.00 PKD
ROOT
HETATM    1  C   UNL     1     -10.521   7.260  73.085  1.00  0.00    -0.385 C  
HETATM    2  C   UNL     1     -10.619   8.435  72.160  1.00  0.00    -0.329 A  
HETATM    3  N   UNL     1     -11.819   9.051  72.061  1.00  0.00    -0.366 NA 
HETATM    4  C   UNL     1     -11.962   9.990  71.088  1.00  0.00    -0.392 A  
HETATM    5  C   UNL     1     -10.990  10.306  70.145  1.00  0.00    -0.377 A  
HETATM    6  C   UNL     1      -9.522   8.831  71.411  1.00  0.00    -0.330 A  
HETATM    7  C   UNL     1      -9.718   9.764  70.397  1.00  0.00    -0.244 A  
ENDROOT
BRANCH   5   8
HETATM    8  C   UNL     1     -11.246  11.086  68.912  1.00  0.00    -0.265 A  
HETATM    9  C   UNL     1     -10.996  10.661  67.579  1.00  0.00    -0.371 A  
HETATM   10  C   UNL     1     -11.247  11.622  66.566  1.00  0.00    -0.356 A  
HETATM   11  N   UNL     1     -11.665  12.360  69.199  1.00  0.00    -0.309 NA 
HETATM   12  C   UNL     1     -11.682  12.906  66.866  1.00  0.00    -0.382 A  
HETATM   13  C   UNL     1     -11.862  13.233  68.187  1.00  0.00    -0.353 A  
HETATM   14 CL   UNL     1     -11.950  14.054  65.619  1.00  0.00    -0.382 Cl 
BRANCH   9  15
HETATM   15  C   UNL     1     -10.445   9.342  67.141  1.00  0.00    -0.319 A  
HETATM   16  C   UNL     1      -9.372   9.279  66.222  1.00  0.00    -0.257 A  
HETATM   17  C   UNL     1      -8.785   8.065  65.846  1.00  0.00    -0.184 A  
HETATM   18  C   UNL     1      -9.293   6.873  66.354  1.00  0.00    -0.141 A  
HETATM   19  C   UNL     1     -10.376   6.887  67.228  1.00  0.00    -0.320 A  
HETATM   20  C   UNL     1     -10.906   8.113  67.652  1.00  0.00    -0.093 A  
BRANCH  18  21
HETATM   21  S   UNL     1      -8.566   5.329  65.876  1.00  0.00    -0.133 S  
HETATM   22  C   UNL     1      -9.980   4.339  65.443  1.00  0.00    -0.223 C  
HETATM   23  O   UNL     1      -7.791   5.560  64.673  1.00  0.00    -0.094 OA 
HETATM   24  O   UNL     1      -7.960   4.746  67.058  1.00  0.00    -0.101 OA 
ENDBRANCH  18  21
ENDBRANCH   9  15
ENDBRANCH   5   8
TORSDOF 3
ENDMDL
MODEL       40
REMARK 921   NORMALIZED FREE ENERGY PREDICTED BY IDOCK:   -5.52 KCAL/MOL
REMARK 922        TOTAL FREE ENERGY PREDICTED BY IDOCK:   -7.35 KCAL/MOL
REMARK 923 INTER-LIGAND FREE ENERGY PREDICTED BY IDOCK:   -7.44 KCAL/MOL
REMARK 924 INTRA-LIGAND FREE ENERGY PREDICTED BY IDOCK:    0.10 KCAL/MOL
REMARK 927      BINDING AFFINITY PREDICTED BY RF-SCORE:    0.00 PKD
ROOT
HETATM    1  C   UNL     1      -9.892  12.062  63.547  1.00  0.00    -0.314 C  
HETATM    2  C   UNL     1     -10.035  11.626  64.974  1.00  0.00    -0.259 A  
HETATM    3  N   UNL     1      -8.964  11.045  65.559  1.00  0.00    -0.203 NA 
HETATM    4  C   UNL     1      -9.147  10.480  66.781  1.00  0.00    -0.151 A  
HETATM    5  C   UNL     1     -10.371  10.390  67.436  1.00  0.00    -0.275 A  
HETATM    6  C   UNL     1     -11.243  11.781  65.636  1.00  0.00    -0.324 A  
HETATM    7  C   UNL     1     -11.407  11.151  66.867  1.00  0.00    -0.168 A  
ENDROOT
BRANCH   5   8
HETATM    8  C   UNL     1     -10.632   9.515  68.602  1.00  0.00    -0.210 A  
HETATM    9  C   UNL     1     -11.206   9.912  69.841  1.00  0.00    -0.298 A  
HETATM   10  C   UNL     1     -11.279   8.907  70.839  1.00  0.00    -0.334 A  
HETATM   11  N   UNL     1     -10.145   8.250  68.402  1.00  0.00    -0.195 NA 
HETATM   12  C   UNL     1     -10.792   7.624  70.623  1.00  0.00    -0.237 A  
HETATM   13  C   UNL     1     -10.225   7.347  69.404  1.00  0.00    -0.201 A  
HETATM   14 CL   UNL     1     -10.870   6.438  71.861  1.00  0.00    -0.266 Cl 
BRANCH   9  15
HETATM   15  C   UNL     1     -11.680  11.279  70.219  1.00  0.00    -0.415 A  
HETATM   16  C   UNL     1     -12.542  11.461  71.325  1.00  0.00    -0.480 A  
HETATM   17  C   UNL     1     -12.947  12.733  71.750  1.00  0.00    -0.416 A  
HETATM   18  C   UNL     1     -12.530  13.856  71.042  1.00  0.00    -0.377 A  
HETATM   19  C   UNL     1     -11.716  13.717  69.922  1.00  0.00    -0.353 A  
HETATM   20  C   UNL     1     -11.259  12.446  69.552  1.00  0.00    -0.171 A  
BRANCH  18  21
HETATM   21  S   UNL     1     -13.046  15.470  71.563  1.00  0.00    -0.498 S  
HETATM   22  C   UNL     1     -13.111  15.316  73.335  1.00  0.00    -0.488 C  
HETATM   23  O   UNL     1     -11.985  16.400  71.229  1.00  0.00    -0.323 OA 
HETATM   24  O   UNL     1     -14.399  15.672  71.084  1.00  0.00    -0.485 OA 
ENDBRANCH  18  21
ENDBRANCH   9  15
ENDBRANCH   5   8
TORSDOF 3
ENDMDL
MODEL       41
REMARK 921   NORMALIZED FREE ENERGY PREDICTED BY IDOCK:   -5.50 KCAL/MOL
REMARK 922        TOTAL FREE ENERGY PREDICTED BY IDOCK:   -7.32 KCAL/MOL
REMARK 923 INTER-LIGAND FREE ENERGY PREDICTED BY IDOCK:   -6.41 KCAL/MOL
REMARK 924 INTRA-LIGAND FREE ENERGY PREDICTED BY IDOCK:   -0.91 KCAL/MOL
REMARK 927      BINDING AFFINITY PREDICTED BY RF-SCORE:    0.00 PKD
ROOT
HETATM    1  C   UNL     1      -8.101   5.384  66.006  1.00  0.00    -0.107 C  
HETATM    2  C   UNL     1      -8.892   6.656  66.055  1.00  0.00    -0.139 A  
HETATM    3  N   UNL     1      -8.395   7.725  65.394  1.00  0.00    -0.142 NA 
HETATM    4  C   UNL     1      -9.005   8.924  65.592  1.00  0.00    -0.201 A  
HETATM    5  C   UNL     1     -10.052   9.141  66.481  1.00  0.00    -0.357 A  
HETATM    6  C   UNL     1     -10.063   6.725  66.794  1.00  0.00    -0.250 A  
HETATM    7  C   UNL     1     -10.635   7.976  67.009  1.00  0.00    -0.364 A  
ENDROOT
BRANCH   5   8
HETATM    8  C   UNL     1     -10.505  10.479  66.926  1.00  0.00    -0.246 A  
HETATM    9  C   UNL     1     -10.565  10.945  68.268  1.00  0.00    -0.223 A  
HETATM   10  C   UNL     1     -11.114  12.239  68.450  1.00  0.00    -0.283 A  
HETATM   11  N   UNL     1     -10.987  11.223  65.880  1.00  0.00    -0.209 NA 
HETATM   12  C   UNL     1     -11.590  12.990  67.382  1.00  0.00    -0.356 A  
HETATM   13  C   UNL     1     -11.520  12.439  66.126  1.00  0.00    -0.379 A  
HETATM   14 CL   UNL     1     -12.274  14.542  67.639  1.00  0.00    -0.265 Cl 
BRANCH   9  15
HETATM   15  C   UNL     1     -10.169  10.196  69.501  1.00  0.00    -0.258 A  
HETATM   16  C   UNL     1     -11.135   9.856  70.477  1.00  0.00    -0.398 A  
HETATM   17  C   UNL     1     -10.813   9.094  71.607  1.00  0.00    -0.442 A  
HETATM   18  C   UNL     1      -9.497   8.690  71.808  1.00  0.00    -0.284 A  
HETATM   19  C   UNL     1      -8.508   9.040  70.893  1.00  0.00    -0.253 A  
HETATM   20  C   UNL     1      -8.857   9.739  69.731  1.00  0.00    -0.241 A  
BRANCH  18  21
HETATM   21  S   UNL     1      -9.075   7.735  73.240  1.00  0.00    -0.270 S  
HETATM   22  C   UNL     1      -8.455   6.220  72.542  1.00  0.00    -0.120 C  
HETATM   23  O   UNL     1      -7.977   8.407  73.909  1.00  0.00    -0.307 OA 
HETATM   24  O   UNL     1     -10.306   7.431  73.942  1.00  0.00    -0.317 OA 
ENDBRANCH  18  21
ENDBRANCH   9  15
ENDBRANCH   5   8
TORSDOF 3
ENDMDL
MODEL       42
REMARK 921   NORMALIZED FREE ENERGY PREDICTED BY IDOCK:   -5.49 KCAL/MOL
REMARK 922        TOTAL FREE ENERGY PREDICTED BY IDOCK:   -7.32 KCAL/MOL
REMARK 923 INTER-LIGAND FREE ENERGY PREDICTED BY IDOCK:   -6.53 KCAL/MOL
REMARK 924 INTRA-LIGAND FREE ENERGY PREDICTED BY IDOCK:   -0.79 KCAL/MOL
REMARK 927      BINDING AFFINITY PREDICTED BY RF-SCORE:    0.00 PKD
ROOT
HETATM    1  C   UNL     1      -8.124   9.389  65.446  1.00  0.00    -0.118 C  
HETATM    2  C   UNL     1      -8.942  10.361  66.242  1.00  0.00    -0.155 A  
HETATM    3  N   UNL     1      -8.294  11.119  67.155  1.00  0.00    -0.131 NA 
HETATM    4  C   UNL     1      -9.053  11.859  68.006  1.00  0.00    -0.189 A  
HETATM    5  C   UNL     1     -10.443  11.834  68.052  1.00  0.00    -0.221 A  
HETATM    6  C   UNL     1     -10.315  10.434  66.063  1.00  0.00    -0.262 A  
HETATM    7  C   UNL     1     -11.062  11.168  66.981  1.00  0.00    -0.339 A  
ENDROOT
BRANCH   5   8
HETATM    8  C   UNL     1     -11.251  12.388  69.163  1.00  0.00    -0.236 A  
HETATM    9  C   UNL     1     -11.708  11.677  70.307  1.00  0.00    -0.355 A  
HETATM   10  C   UNL     1     -12.539  12.406  71.196  1.00  0.00    -0.349 A  
HETATM   11  N   UNL     1     -11.626  13.683  68.918  1.00  0.00    -0.297 NA 
HETATM   12  C   UNL     1     -12.905  13.722  70.945  1.00  0.00    -0.271 A  
HETATM   13  C   UNL     1     -12.441  14.311  69.795  1.00  0.00    -0.216 A  
HETATM   14 CL   UNL     1     -13.935  14.566  72.026  1.00  0.00    -0.533 Cl 
BRANCH   9  15
HETATM   15  C   UNL     1     -11.456  10.241  70.637  1.00  0.00    -0.435 A  
HETATM   16  C   UNL     1     -10.148   9.707  70.570  1.00  0.00    -0.338 A  
HETATM   17  C   UNL     1      -9.865   8.386  70.940  1.00  0.00    -0.223 A  
HETATM   18  C   UNL     1     -10.901   7.552  71.346  1.00  0.00    -0.229 A  
HETATM   19  C   UNL     1     -12.209   8.025  71.385  1.00  0.00    -0.335 A  
HETATM   20  C   UNL     1     -12.467   9.369  71.082  1.00  0.00    -0.370 A  
BRANCH  18  21
HETATM   21  S   UNL     1     -10.557   5.874  71.806  1.00  0.00    -0.241 S  
HETATM   22  C   UNL     1      -8.940   5.986  72.541  1.00  0.00    -0.132 C  
HETATM   23  O   UNL     1     -11.500   5.500  72.842  1.00  0.00    -0.304 OA 
HETATM   24  O   UNL     1     -10.439   5.102  70.585  1.00  0.00    -0.250 OA 
ENDBRANCH  18  21
ENDBRANCH   9  15
ENDBRANCH   5   8
TORSDOF 3
ENDMDL
MODEL       43
REMARK 921   NORMALIZED FREE ENERGY PREDICTED BY IDOCK:   -5.46 KCAL/MOL
REMARK 922        TOTAL FREE ENERGY PREDICTED BY IDOCK:   -7.29 KCAL/MOL
REMARK 923 INTER-LIGAND FREE ENERGY PREDICTED BY IDOCK:   -6.78 KCAL/MOL
REMARK 924 INTRA-LIGAND FREE ENERGY PREDICTED BY IDOCK:   -0.51 KCAL/MOL
REMARK 927      BINDING AFFINITY PREDICTED BY RF-SCORE:    0.00 PKD
ROOT
HETATM    1  C   UNL     1     -12.962  12.836  71.890  1.00  0.00    -0.400 C  
HETATM    2  C   UNL     1     -12.537  13.895  70.918  1.00  0.00    -0.361 A  
HETATM    3  N   UNL     1     -12.525  13.568  69.606  1.00  0.00    -0.152 NA 
HETATM    4  C   UNL     1     -11.963  14.456  68.744  1.00  0.00    -0.295 A  
HETATM    5  C   UNL     1     -11.334  15.637  69.124  1.00  0.00    -0.341 A  
HETATM    6  C   UNL     1     -12.133  15.141  71.371  1.00  0.00    -0.397 A  
HETATM    7  C   UNL     1     -11.523  16.006  70.466  1.00  0.00    -0.409 A  
ENDROOT
BRANCH   5   8
HETATM    8  C   UNL     1     -10.460  16.439  68.238  1.00  0.00    -0.302 A  
HETATM    9  C   UNL     1      -9.653  15.943  67.177  1.00  0.00    -0.224 A  
HETATM   10  C   UNL     1      -8.836  16.899  66.522  1.00  0.00    -0.305 A  
HETATM   11  N   UNL     1     -10.417  17.753  68.625  1.00  0.00    -0.336 NA 
HETATM   12  C   UNL     1      -8.807  18.231  66.915  1.00  0.00    -0.275 A  
HETATM   13  C   UNL     1      -9.597  18.607  67.973  1.00  0.00    -0.316 A  
HETATM   14 CL   UNL     1      -7.786  19.357  66.120  1.00  0.00    -0.309 Cl 
BRANCH   9  15
HETATM   15  C   UNL     1      -9.532  14.522  66.725  1.00  0.00    -0.284 A  
HETATM   16  C   UNL     1      -8.695  13.616  67.416  1.00  0.00    -0.214 A  
HETATM   17  C   UNL     1      -8.613  12.263  67.064  1.00  0.00    -0.191 A  
HETATM   18  C   UNL     1      -9.341  11.794  65.975  1.00  0.00    -0.220 A  
HETATM   19  C   UNL     1     -10.143  12.662  65.241  1.00  0.00    -0.271 A  
HETATM   20  C   UNL     1     -10.272  13.996  65.649  1.00  0.00    -0.351 A  
BRANCH  18  21
HETATM   21  S   UNL     1      -9.236  10.086  65.512  1.00  0.00    -0.218 S  
HETATM   22  C   UNL     1      -9.467  10.136  63.748  1.00  0.00    -0.275 C  
HETATM   23  O   UNL     1      -7.883   9.640  65.779  1.00  0.00    -0.102 OA 
HETATM   24  O   UNL     1     -10.378   9.405  66.092  1.00  0.00    -0.232 OA 
ENDBRANCH  18  21
ENDBRANCH   9  15
ENDBRANCH   5   8
TORSDOF 3
ENDMDL
MODEL       44
REMARK 921   NORMALIZED FREE ENERGY PREDICTED BY IDOCK:   -5.43 KCAL/MOL
REMARK 922        TOTAL FREE ENERGY PREDICTED BY IDOCK:   -7.25 KCAL/MOL
REMARK 923 INTER-LIGAND FREE ENERGY PREDICTED BY IDOCK:   -6.45 KCAL/MOL
REMARK 924 INTRA-LIGAND FREE ENERGY PREDICTED BY IDOCK:   -0.80 KCAL/MOL
REMARK 927      BINDING AFFINITY PREDICTED BY RF-SCORE:    0.00 PKD
ROOT
HETATM    1  C   UNL     1      -5.230  12.398  70.425  1.00  0.00    -0.116 C  
HETATM    2  C   UNL     1      -6.333  11.607  69.790  1.00  0.00    -0.134 A  
HETATM    3  N   UNL     1      -6.985  10.712  70.565  1.00  0.00    -0.211 NA 
HETATM    4  C   UNL     1      -7.851   9.863  69.950  1.00  0.00    -0.173 A  
HETATM    5  C   UNL     1      -8.056   9.801  68.576  1.00  0.00    -0.104 A  
HETATM    6  C   UNL     1      -6.629  11.771  68.445  1.00  0.00    -0.055 A  
HETATM    7  C   UNL     1      -7.488  10.856  67.842  1.00  0.00    -0.090 A  
ENDROOT
BRANCH   5   8
HETATM    8  C   UNL     1      -8.748   8.689  67.885  1.00  0.00    -0.137 A  
HETATM    9  C   UNL     1      -9.786   8.813  66.921  1.00  0.00    -0.295 A  
HETATM   10  C   UNL     1     -10.351   7.597  66.461  1.00  0.00    -0.122 A  
HETATM   11  N   UNL     1      -8.350   7.469  68.367  1.00  0.00    -0.125 NA 
HETATM   12  C   UNL     1      -9.934   6.364  66.947  1.00  0.00    -0.167 A  
HETATM   13  C   UNL     1      -8.948   6.350  67.903  1.00  0.00    -0.114 A  
HETATM   14 CL   UNL     1     -10.657   4.912  66.390  1.00  0.00    -0.326 Cl 
BRANCH   9  15
HETATM   15  C   UNL     1     -10.379  10.080  66.392  1.00  0.00    -0.249 A  
HETATM   16  C   UNL     1     -10.264  10.411  65.022  1.00  0.00    -0.334 A  
HETATM   17  C   UNL     1     -10.867  11.552  64.479  1.00  0.00    -0.390 A  
HETATM   18  C   UNL     1     -11.568  12.417  65.313  1.00  0.00    -0.373 A  
HETATM   19  C   UNL     1     -11.668  12.152  66.676  1.00  0.00    -0.385 A  
HETATM   20  C   UNL     1     -11.122  10.969  67.191  1.00  0.00    -0.333 A  
BRANCH  18  21
HETATM   21  S   UNL     1     -12.326  13.872  64.641  1.00  0.00    -0.358 S  
HETATM   22  C   UNL     1     -11.086  15.123  64.895  1.00  0.00    -0.414 C  
HETATM   23  O   UNL     1     -12.478  13.669  63.213  1.00  0.00    -0.801 OA 
HETATM   24  O   UNL     1     -13.465  14.198  65.477  1.00  0.00    -0.643 OA 
ENDBRANCH  18  21
ENDBRANCH   9  15
ENDBRANCH   5   8
TORSDOF 3
ENDMDL
MODEL       45
REMARK 921   NORMALIZED FREE ENERGY PREDICTED BY IDOCK:   -5.43 KCAL/MOL
REMARK 922        TOTAL FREE ENERGY PREDICTED BY IDOCK:   -7.24 KCAL/MOL
REMARK 923 INTER-LIGAND FREE ENERGY PREDICTED BY IDOCK:   -6.54 KCAL/MOL
REMARK 924 INTRA-LIGAND FREE ENERGY PREDICTED BY IDOCK:   -0.70 KCAL/MOL
REMARK 927      BINDING AFFINITY PREDICTED BY RF-SCORE:    0.00 PKD
ROOT
HETATM    1  C   UNL     1      -8.028   7.433  65.492  1.00  0.00    -0.122 C  
HETATM    2  C   UNL     1      -8.451   8.862  65.654  1.00  0.00    -0.157 A  
HETATM    3  N   UNL     1      -7.505   9.753  66.030  1.00  0.00    -0.099 NA 
HETATM    4  C   UNL     1      -7.920  11.004  66.360  1.00  0.00    -0.161 A  
HETATM    5  C   UNL     1      -9.250  11.409  66.412  1.00  0.00    -0.209 A  
HETATM    6  C   UNL     1      -9.774   9.227  65.463  1.00  0.00    -0.247 A  
HETATM    7  C   UNL     1     -10.169  10.504  65.854  1.00  0.00    -0.311 A  
ENDROOT
BRANCH   5   8
HETATM    8  C   UNL     1      -9.719  12.654  67.063  1.00  0.00    -0.225 A  
HETATM    9  C   UNL     1     -10.418  12.748  68.297  1.00  0.00    -0.250 A  
HETATM   10  C   UNL     1     -10.835  14.049  68.674  1.00  0.00    -0.272 A  
HETATM   11  N   UNL     1      -9.499  13.751  66.270  1.00  0.00    -0.243 NA 
HETATM   12  C   UNL     1     -10.599  15.157  67.870  1.00  0.00    -0.257 A  
HETATM   13  C   UNL     1      -9.945  14.959  66.679  1.00  0.00    -0.258 A  
HETATM   14 CL   UNL     1     -11.142  16.714  68.342  1.00  0.00    -0.350 Cl 
BRANCH   9  15
HETATM   15  C   UNL     1     -10.808  11.621  69.200  1.00  0.00    -0.231 A  
HETATM   16  C   UNL     1     -12.042  11.646  69.889  1.00  0.00    -0.373 A  
HETATM   17  C   UNL     1     -12.471  10.577  70.686  1.00  0.00    -0.456 A  
HETATM   18  C   UNL     1     -11.645   9.469  70.846  1.00  0.00    -0.326 A  
HETATM   19  C   UNL     1     -10.403   9.423  70.219  1.00  0.00    -0.293 A  
HETATM   20  C   UNL     1     -10.019  10.466  69.368  1.00  0.00    -0.240 A  
BRANCH  18  21
HETATM   21  S   UNL     1     -12.171   8.114  71.861  1.00  0.00    -0.350 S  
HETATM   22  C   UNL     1     -13.761   8.652  72.453  1.00  0.00    -0.356 C  
HETATM   23  O   UNL     1     -12.375   6.969  70.996  1.00  0.00    -0.370 OA 
HETATM   24  O   UNL     1     -11.273   8.044  72.997  1.00  0.00    -0.388 OA 
ENDBRANCH  18  21
ENDBRANCH   9  15
ENDBRANCH   5   8
TORSDOF 3
ENDMDL
MODEL       46
REMARK 921   NORMALIZED FREE ENERGY PREDICTED BY IDOCK:   -5.39 KCAL/MOL
REMARK 922        TOTAL FREE ENERGY PREDICTED BY IDOCK:   -7.20 KCAL/MOL
REMARK 923 INTER-LIGAND FREE ENERGY PREDICTED BY IDOCK:   -6.12 KCAL/MOL
REMARK 924 INTRA-LIGAND FREE ENERGY PREDICTED BY IDOCK:   -1.08 KCAL/MOL
REMARK 927      BINDING AFFINITY PREDICTED BY RF-SCORE:    0.00 PKD
ROOT
HETATM    1  C   UNL     1     -10.514   5.004  71.645  1.00  0.00    -0.232 C  
HETATM    2  C   UNL     1     -11.031   6.405  71.765  1.00  0.00    -0.255 A  
HETATM    3  N   UNL     1     -12.264   6.658  71.271  1.00  0.00    -0.351 NA 
HETATM    4  C   UNL     1     -12.658   7.958  71.206  1.00  0.00    -0.245 A  
HETATM    5  C   UNL     1     -11.856   9.045  71.539  1.00  0.00    -0.415 A  
HETATM    6  C   UNL     1     -10.242   7.398  72.324  1.00  0.00    -0.237 A  
HETATM    7  C   UNL     1     -10.659   8.721  72.199  1.00  0.00    -0.386 A  
ENDROOT
BRANCH   5   8
HETATM    8  C   UNL     1     -12.163  10.448  71.179  1.00  0.00    -0.394 A  
HETATM    9  C   UNL     1     -11.646  11.164  70.064  1.00  0.00    -0.421 A  
HETATM   10  C   UNL     1     -12.023  12.528  69.977  1.00  0.00    -0.372 A  
HETATM   11  N   UNL     1     -12.944  11.054  72.129  1.00  0.00    -0.307 NA 
HETATM   12  C   UNL     1     -12.824  13.131  70.938  1.00  0.00    -0.159 A  
HETATM   13  C   UNL     1     -13.246  12.364  71.996  1.00  0.00    -0.409 A  
HETATM   14 CL   UNL     1     -13.240  14.791  70.817  1.00  0.00    -0.393 Cl 
BRANCH   9  15
HETATM   15  C   UNL     1     -10.707  10.651  69.020  1.00  0.00    -0.257 A  
HETATM   16  C   UNL     1      -9.308  10.744  69.202  1.00  0.00    -0.141 A  
HETATM   17  C   UNL     1      -8.401  10.210  68.278  1.00  0.00    -0.115 A  
HETATM   18  C   UNL     1      -8.880   9.604  67.121  1.00  0.00    -0.132 A  
HETATM   19  C   UNL     1     -10.249   9.529  66.882  1.00  0.00    -0.317 A  
HETATM   20  C   UNL     1     -11.145  10.003  67.849  1.00  0.00    -0.260 A  
BRANCH  18  21
HETATM   21  S   UNL     1      -7.741   8.934  65.938  1.00  0.00    -0.099 S  
HETATM   22  C   UNL     1      -8.563   7.454  65.387  1.00  0.00    -0.041 C  
HETATM   23  O   UNL     1      -7.673   9.856  64.822  1.00  0.00    -0.127 OA 
HETATM   24  O   UNL     1      -6.546   8.538  66.657  1.00  0.00    -0.058 OA 
ENDBRANCH  18  21
ENDBRANCH   9  15
ENDBRANCH   5   8
TORSDOF 3
ENDMDL
MODEL       47
REMARK 921   NORMALIZED FREE ENERGY PREDICTED BY IDOCK:   -5.33 KCAL/MOL
REMARK 922        TOTAL FREE ENERGY PREDICTED BY IDOCK:   -7.13 KCAL/MOL
REMARK 923 INTER-LIGAND FREE ENERGY PREDICTED BY IDOCK:   -6.34 KCAL/MOL
REMARK 924 INTRA-LIGAND FREE ENERGY PREDICTED BY IDOCK:   -0.79 KCAL/MOL
REMARK 927      BINDING AFFINITY PREDICTED BY RF-SCORE:    0.00 PKD
ROOT
HETATM    1  C   UNL     1     -10.281   6.495  74.129  1.00  0.00    -0.380 C  
HETATM    2  C   UNL     1     -10.487   7.637  73.182  1.00  0.00    -0.374 A  
HETATM    3  N   UNL     1     -11.760   7.964  72.865  1.00  0.00    -0.294 NA 
HETATM    4  C   UNL     1     -11.946   8.867  71.867  1.00  0.00    -0.371 A  
HETATM    5  C   UNL     1     -10.925   9.420  71.100  1.00  0.00    -0.430 A  
HETATM    6  C   UNL     1      -9.398   8.292  72.627  1.00  0.00    -0.350 A  
HETATM    7  C   UNL     1      -9.626   9.179  71.578  1.00  0.00    -0.278 A  
ENDROOT
BRANCH   5   8
HETATM    8  C   UNL     1     -11.138  10.150  69.829  1.00  0.00    -0.279 A  
HETATM    9  C   UNL     1     -10.736   9.721  68.534  1.00  0.00    -0.252 A  
HETATM   10  C   UNL     1     -10.979  10.635  67.477  1.00  0.00    -0.371 A  
HETATM   11  N   UNL     1     -11.688  11.387  70.043  1.00  0.00    -0.322 NA 
HETATM   12  C   UNL     1     -11.547  11.882  67.702  1.00  0.00    -0.312 A  
HETATM   13  C   UNL     1     -11.870  12.218  68.994  1.00  0.00    -0.305 A  
HETATM   14 CL   UNL     1     -11.801  12.975  66.405  1.00  0.00    -0.442 Cl 
BRANCH   9  15
HETATM   15  C   UNL     1     -10.038   8.446  68.183  1.00  0.00    -0.239 A  
HETATM   16  C   UNL     1     -10.686   7.463  67.399  1.00  0.00    -0.348 A  
HETATM   17  C   UNL     1     -10.037   6.290  66.993  1.00  0.00    -0.225 A  
HETATM   18  C   UNL     1      -8.729   6.055  67.402  1.00  0.00    -0.104 A  
HETATM   19  C   UNL     1      -8.069   6.976  68.210  1.00  0.00    -0.123 A  
HETATM   20  C   UNL     1      -8.705   8.178  68.549  1.00  0.00    -0.134 A  
BRANCH  18  21
HETATM   21  S   UNL     1      -7.901   4.569  66.904  1.00  0.00    -0.098 S  
HETATM   22  C   UNL     1      -9.173   3.333  67.054  1.00  0.00    -0.180 C  
HETATM   23  O   UNL     1      -7.564   4.702  65.500  1.00  0.00    -0.080 OA 
HETATM   24  O   UNL     1      -6.882   4.282  67.895  1.00  0.00    -0.050 OA 
ENDBRANCH  18  21
ENDBRANCH   9  15
ENDBRANCH   5   8
TORSDOF 3
ENDMDL
MODEL       48
REMARK 921   NORMALIZED FREE ENERGY PREDICTED BY IDOCK:   -5.32 KCAL/MOL
REMARK 922        TOTAL FREE ENERGY PREDICTED BY IDOCK:   -7.12 KCAL/MOL
REMARK 923 INTER-LIGAND FREE ENERGY PREDICTED BY IDOCK:   -6.40 KCAL/MOL
REMARK 924 INTRA-LIGAND FREE ENERGY PREDICTED BY IDOCK:   -0.72 KCAL/MOL
REMARK 927      BINDING AFFINITY PREDICTED BY RF-SCORE:    0.00 PKD
ROOT
HETATM    1  C   UNL     1     -10.311  15.019  65.128  1.00  0.00    -0.422 C  
HETATM    2  C   UNL     1     -10.599  14.366  66.446  1.00  0.00    -0.297 A  
HETATM    3  N   UNL     1      -9.584  13.711  67.053  1.00  0.00    -0.243 NA 
HETATM    4  C   UNL     1      -9.886  12.962  68.145  1.00  0.00    -0.227 A  
HETATM    5  C   UNL     1     -11.172  12.760  68.635  1.00  0.00    -0.322 A  
HETATM    6  C   UNL     1     -11.877  14.405  66.983  1.00  0.00    -0.437 A  
HETATM    7  C   UNL     1     -12.158  13.590  68.076  1.00  0.00    -0.298 A  
ENDROOT
BRANCH   5   8
HETATM    8  C   UNL     1     -11.536  11.712  69.616  1.00  0.00    -0.330 A  
HETATM    9  C   UNL     1     -11.153  10.343  69.568  1.00  0.00    -0.314 A  
HETATM   10  C   UNL     1     -11.697   9.513  70.580  1.00  0.00    -0.330 A  
HETATM   11  N   UNL     1     -12.409  12.186  70.561  1.00  0.00    -0.312 NA 
HETATM   12  C   UNL     1     -12.572  10.004  71.540  1.00  0.00    -0.425 A  
HETATM   13  C   UNL     1     -12.909  11.334  71.483  1.00  0.00    -0.414 A  
HETATM   14 CL   UNL     1     -13.235   8.967  72.735  1.00  0.00    -0.361 Cl 
BRANCH   9  15
HETATM   15  C   UNL     1     -10.295   9.683  68.536  1.00  0.00    -0.231 A  
HETATM   16  C   UNL     1      -9.018   9.179  68.879  1.00  0.00    -0.139 A  
HETATM   17  C   UNL     1      -8.218   8.493  67.956  1.00  0.00    -0.120 A  
HETATM   18  C   UNL     1      -8.665   8.334  66.649  1.00  0.00    -0.136 A  
HETATM   19  C   UNL     1      -9.896   8.852  66.259  1.00  0.00    -0.355 A  
HETATM   20  C   UNL     1     -10.717   9.472  67.210  1.00  0.00    -0.269 A  
BRANCH  18  21
HETATM   21  S   UNL     1      -7.656   7.477  65.469  1.00  0.00    -0.099 S  
HETATM   22  C   UNL     1      -7.688   8.560  64.056  1.00  0.00    -0.137 C  
HETATM   23  O   UNL     1      -6.302   7.449  65.986  1.00  0.00    -0.040 OA 
HETATM   24  O   UNL     1      -8.347   6.255  65.108  1.00  0.00    -0.142 OA 
ENDBRANCH  18  21
ENDBRANCH   9  15
ENDBRANCH   5   8
TORSDOF 3
ENDMDL
MODEL       49
REMARK 921   NORMALIZED FREE ENERGY PREDICTED BY IDOCK:   -5.32 KCAL/MOL
REMARK 922        TOTAL FREE ENERGY PREDICTED BY IDOCK:   -7.11 KCAL/MOL
REMARK 923 INTER-LIGAND FREE ENERGY PREDICTED BY IDOCK:   -6.29 KCAL/MOL
REMARK 924 INTRA-LIGAND FREE ENERGY PREDICTED BY IDOCK:   -0.82 KCAL/MOL
REMARK 927      BINDING AFFINITY PREDICTED BY RF-SCORE:    0.00 PKD
ROOT
HETATM    1  C   UNL     1      -6.798   7.307  65.396  1.00  0.00    -0.052 C  
HETATM    2  C   UNL     1      -7.732   8.128  66.234  1.00  0.00    -0.094 A  
HETATM    3  N   UNL     1      -7.302   8.504  67.459  1.00  0.00    -0.088 NA 
HETATM    4  C   UNL     1      -8.209   9.081  68.291  1.00  0.00    -0.116 A  
HETATM    5  C   UNL     1      -9.560   9.241  68.000  1.00  0.00    -0.161 A  
HETATM    6  C   UNL     1      -9.000   8.440  65.769  1.00  0.00    -0.207 A  
HETATM    7  C   UNL     1      -9.914   8.991  66.663  1.00  0.00    -0.349 A  
ENDROOT
BRANCH   5   8
HETATM    8  C   UNL     1     -10.596   9.576  69.004  1.00  0.00    -0.219 A  
HETATM    9  C   UNL     1     -11.185  10.853  69.213  1.00  0.00    -0.327 A  
HETATM   10  C   UNL     1     -12.098  10.943  70.294  1.00  0.00    -0.440 A  
HETATM   11  N   UNL     1     -10.867   8.511  69.823  1.00  0.00    -0.211 NA 
HETATM   12  C   UNL     1     -12.375   9.855  71.112  1.00  0.00    -0.370 A  
HETATM   13  C   UNL     1     -11.730   8.672  70.850  1.00  0.00    -0.252 A  
HETATM   14 CL   UNL     1     -13.465  10.005  72.429  1.00  0.00    -0.367 Cl 
BRANCH   9  15
HETATM   15  C   UNL     1     -10.899  12.112  68.459  1.00  0.00    -0.267 A  
HETATM   16  C   UNL     1     -11.956  12.896  67.941  1.00  0.00    -0.333 A  
HETATM   17  C   UNL     1     -11.727  14.116  67.293  1.00  0.00    -0.421 A  
HETATM   18  C   UNL     1     -10.422  14.560  67.109  1.00  0.00    -0.267 A  
HETATM   19  C   UNL     1      -9.350  13.797  67.565  1.00  0.00    -0.222 A  
HETATM   20  C   UNL     1      -9.597  12.616  68.276  1.00  0.00    -0.208 A  
BRANCH  18  21
HETATM   21  S   UNL     1     -10.119  16.097  66.279  1.00  0.00    -0.340 S  
HETATM   22  C   UNL     1     -11.054  15.928  64.774  1.00  0.00    -0.384 C  
HETATM   23  O   UNL     1     -10.723  17.151  67.071  1.00  0.00    -0.266 OA 
HETATM   24  O   UNL     1      -8.713  16.135  65.928  1.00  0.00    -0.328 OA 
ENDBRANCH  18  21
ENDBRANCH   9  15
ENDBRANCH   5   8
TORSDOF 3
ENDMDL
MODEL       50
REMARK 921   NORMALIZED FREE ENERGY PREDICTED BY IDOCK:   -5.30 KCAL/MOL
REMARK 922        TOTAL FREE ENERGY PREDICTED BY IDOCK:   -7.09 KCAL/MOL
REMARK 923 INTER-LIGAND FREE ENERGY PREDICTED BY IDOCK:   -6.24 KCAL/MOL
REMARK 924 INTRA-LIGAND FREE ENERGY PREDICTED BY IDOCK:   -0.85 KCAL/MOL
REMARK 927      BINDING AFFINITY PREDICTED BY RF-SCORE:    0.00 PKD
ROOT
HETATM    1  C   UNL     1     -12.959  11.866  63.262  1.00  0.00    -0.166 C  
HETATM    2  C   UNL     1     -12.015  12.895  63.807  1.00  0.00    -0.512 A  
HETATM    3  N   UNL     1     -10.725  12.530  63.976  1.00  0.00    -0.382 NA 
HETATM    4  C   UNL     1      -9.913  13.392  64.644  1.00  0.00    -0.102 A  
HETATM    5  C   UNL     1     -10.332  14.583  65.228  1.00  0.00    -0.435 A  
HETATM    6  C   UNL     1     -12.479  14.153  64.159  1.00  0.00    -0.267 A  
HETATM    7  C   UNL     1     -11.631  14.991  64.879  1.00  0.00    -0.374 A  
ENDROOT
BRANCH   5   8
HETATM    8  C   UNL     1      -9.536  15.357  66.207  1.00  0.00    -0.313 A  
HETATM    9  C   UNL     1      -9.054  14.888  67.460  1.00  0.00    -0.186 A  
HETATM   10  C   UNL     1      -8.384  15.846  68.263  1.00  0.00    -0.165 A  
HETATM   11  N   UNL     1      -9.395  16.665  65.821  1.00  0.00    -0.512 NA 
HETATM   12  C   UNL     1      -8.235  17.166  67.858  1.00  0.00    -0.202 A  
HETATM   13  C   UNL     1      -8.766  17.532  66.646  1.00  0.00    -0.263 A  
HETATM   14 CL   UNL     1      -7.443  18.307  68.866  1.00  0.00    -0.284 Cl 
BRANCH   9  15
HETATM   15  C   UNL     1      -9.231  13.521  68.040  1.00  0.00    -0.209 A  
HETATM   16  C   UNL     1     -10.510  13.072  68.445  1.00  0.00    -0.261 A  
HETATM   17  C   UNL     1     -10.723  11.774  68.925  1.00  0.00    -0.241 A  
HETATM   18  C   UNL     1      -9.645  10.904  69.051  1.00  0.00    -0.156 A  
HETATM   19  C   UNL     1      -8.363  11.321  68.703  1.00  0.00    -0.146 A  
HETATM   20  C   UNL     1      -8.175  12.597  68.157  1.00  0.00    -0.170 A  
BRANCH  18  21
HETATM   21  S   UNL     1      -9.901   9.262  69.668  1.00  0.00    -0.198 S  
HETATM   22  C   UNL     1     -11.204   9.483  70.860  1.00  0.00    -0.341 C  
HETATM   23  O   UNL     1     -10.418   8.458  68.577  1.00  0.00    -0.208 OA 
HETATM   24  O   UNL     1      -8.702   8.872  70.385  1.00  0.00    -0.147 OA 
ENDBRANCH  18  21
ENDBRANCH   9  15
ENDBRANCH   5   8
TORSDOF 3
ENDMDL
MODEL       51
REMARK 921   NORMALIZED FREE ENERGY PREDICTED BY IDOCK:   -5.29 KCAL/MOL
REMARK 922        TOTAL FREE ENERGY PREDICTED BY IDOCK:   -7.08 KCAL/MOL
REMARK 923 INTER-LIGAND FREE ENERGY PREDICTED BY IDOCK:   -6.37 KCAL/MOL
REMARK 924 INTRA-LIGAND FREE ENERGY PREDICTED BY IDOCK:   -0.71 KCAL/MOL
REMARK 927      BINDING AFFINITY PREDICTED BY RF-SCORE:    0.00 PKD
ROOT
HETATM    1  C   UNL     1     -14.408   8.533  72.569  1.00  0.00    -0.325 C  
HETATM    2  C   UNL     1     -13.266   8.737  71.620  1.00  0.00    -0.357 A  
HETATM    3  N   UNL     1     -12.711   7.635  71.067  1.00  0.00    -0.186 NA 
HETATM    4  C   UNL     1     -11.562   7.800  70.360  1.00  0.00    -0.098 A  
HETATM    5  C   UNL     1     -10.879   9.005  70.230  1.00  0.00    -0.269 A  
HETATM    6  C   UNL     1     -12.784  10.012  71.367  1.00  0.00    -0.518 A  
HETATM    7  C   UNL     1     -11.582  10.137  70.676  1.00  0.00    -0.429 A  
ENDROOT
BRANCH   5   8
HETATM    8  C   UNL     1      -9.488   9.127  69.735  1.00  0.00    -0.182 A  
HETATM    9  C   UNL     1      -9.060   9.871  68.602  1.00  0.00    -0.132 A  
HETATM   10  C   UNL     1      -7.683   9.767  68.279  1.00  0.00    -0.085 A  
HETATM   11  N   UNL     1      -8.629   8.327  70.443  1.00  0.00    -0.131 NA 
HETATM   12  C   UNL     1      -6.817   8.963  69.008  1.00  0.00    -0.059 A  
HETATM   13  C   UNL     1      -7.333   8.255  70.066  1.00  0.00    -0.063 A  
HETATM   14 CL   UNL     1      -5.163   8.837  68.573  1.00  0.00    -0.036 Cl 
BRANCH   9  15
HETATM   15  C   UNL     1      -9.912  10.696  67.691  1.00  0.00    -0.197 A  
HETATM   16  C   UNL     1     -10.422  11.944  68.117  1.00  0.00    -0.225 A  
HETATM   17  C   UNL     1     -11.162  12.774  67.266  1.00  0.00    -0.339 A  
HETATM   18  C   UNL     1     -11.447  12.348  65.973  1.00  0.00    -0.382 A  
HETATM   19  C   UNL     1     -11.001  11.108  65.528  1.00  0.00    -0.143 A  
HETATM   20  C   UNL     1     -10.200  10.320  66.365  1.00  0.00    -0.290 A  
BRANCH  18  21
HETATM   21  S   UNL     1     -12.394  13.385  64.890  1.00  0.00    -0.406 S  
HETATM   22  C   UNL     1     -11.316  14.776  64.626  1.00  0.00    -0.366 C  
HETATM   23  O   UNL     1     -12.544  12.684  63.629  1.00  0.00    -0.678 OA 
HETATM   24  O   UNL     1     -13.550  13.851  65.630  1.00  0.00    -0.478 OA 
ENDBRANCH  18  21
ENDBRANCH   9  15
ENDBRANCH   5   8
TORSDOF 3
ENDMDL
MODEL       52
REMARK 921   NORMALIZED FREE ENERGY PREDICTED BY IDOCK:   -5.27 KCAL/MOL
REMARK 922        TOTAL FREE ENERGY PREDICTED BY IDOCK:   -7.05 KCAL/MOL
REMARK 923 INTER-LIGAND FREE ENERGY PREDICTED BY IDOCK:   -6.19 KCAL/MOL
REMARK 924 INTRA-LIGAND FREE ENERGY PREDICTED BY IDOCK:   -0.86 KCAL/MOL
REMARK 927      BINDING AFFINITY PREDICTED BY RF-SCORE:    0.00 PKD
ROOT
HETATM    1  C   UNL     1      -5.375  11.298  70.084  1.00  0.00    -0.083 C  
HETATM    2  C   UNL     1      -6.538  11.772  69.267  1.00  0.00    -0.112 A  
HETATM    3  N   UNL     1      -7.714  11.122  69.420  1.00  0.00    -0.035 NA 
HETATM    4  C   UNL     1      -8.713  11.422  68.549  1.00  0.00    -0.149 A  
HETATM    5  C   UNL     1      -8.589  12.291  67.471  1.00  0.00    -0.174 A  
HETATM    6  C   UNL     1      -6.382  12.811  68.363  1.00  0.00    -0.078 A  
HETATM    7  C   UNL     1      -7.412  13.059  67.459  1.00  0.00    -0.158 A  
ENDROOT
BRANCH   5   8
HETATM    8  C   UNL     1      -9.558  12.380  66.355  1.00  0.00    -0.246 A  
HETATM    9  C   UNL     1     -10.246  13.550  65.928  1.00  0.00    -0.306 A  
HETATM   10  C   UNL     1     -11.190  13.367  64.887  1.00  0.00    -0.347 A  
HETATM   11  N   UNL     1      -9.825  11.148  65.817  1.00  0.00    -0.224 NA 
HETATM   12  C   UNL     1     -11.446  12.116  64.340  1.00  0.00    -0.350 A  
HETATM   13  C   UNL     1     -10.755  11.041  64.843  1.00  0.00    -0.208 A  
HETATM   14 CL   UNL     1     -12.615  11.924  63.100  1.00  0.00    -0.545 Cl 
BRANCH   9  15
HETATM   15  C   UNL     1     -10.121  14.927  66.498  1.00  0.00    -0.279 A  
HETATM   16  C   UNL     1      -9.134  15.818  66.017  1.00  0.00    -0.361 A  
HETATM   17  C   UNL     1      -9.035  17.137  66.478  1.00  0.00    -0.300 A  
HETATM   18  C   UNL     1      -9.903  17.582  67.469  1.00  0.00    -0.293 A  
HETATM   19  C   UNL     1     -10.862  16.724  68.000  1.00  0.00    -0.341 A  
HETATM   20  C   UNL     1     -10.997  15.431  67.479  1.00  0.00    -0.315 A  
BRANCH  18  21
HETATM   21  S   UNL     1      -9.781  19.246  68.069  1.00  0.00    -0.374 S  
HETATM   22  C   UNL     1      -8.041  19.595  67.927  1.00  0.00    -0.304 C  
HETATM   23  O   UNL     1     -10.491  20.102  67.139  1.00  0.00    -0.400 OA 
HETATM   24  O   UNL     1     -10.117  19.229  69.479  1.00  0.00    -0.214 OA 
ENDBRANCH  18  21
ENDBRANCH   9  15
ENDBRANCH   5   8
TORSDOF 3
ENDMDL
MODEL       53
REMARK 921   NORMALIZED FREE ENERGY PREDICTED BY IDOCK:   -5.26 KCAL/MOL
REMARK 922        TOTAL FREE ENERGY PREDICTED BY IDOCK:   -7.05 KCAL/MOL
REMARK 923 INTER-LIGAND FREE ENERGY PREDICTED BY IDOCK:   -6.38 KCAL/MOL
REMARK 924 INTRA-LIGAND FREE ENERGY PREDICTED BY IDOCK:   -0.67 KCAL/MOL
REMARK 927      BINDING AFFINITY PREDICTED BY RF-SCORE:    0.00 PKD
ROOT
HETATM    1  C   UNL     1     -13.401  12.342  71.985  1.00  0.00    -0.491 C  
HETATM    2  C   UNL     1     -12.929  10.969  71.613  1.00  0.00    -0.456 A  
HETATM    3  N   UNL     1     -13.629   9.917  72.096  1.00  0.00    -0.371 NA 
HETATM    4  C   UNL     1     -13.098   8.679  71.921  1.00  0.00    -0.373 A  
HETATM    5  C   UNL     1     -11.856   8.423  71.349  1.00  0.00    -0.339 A  
HETATM    6  C   UNL     1     -11.791  10.804  70.838  1.00  0.00    -0.400 A  
HETATM    7  C   UNL     1     -11.255   9.525  70.717  1.00  0.00    -0.383 A  
ENDROOT
BRANCH   5   8
HETATM    8  C   UNL     1     -11.147   7.126  71.438  1.00  0.00    -0.242 A  
HETATM    9  C   UNL     1     -10.286   6.567  70.453  1.00  0.00    -0.237 A  
HETATM   10  C   UNL     1      -9.788   5.269  70.732  1.00  0.00    -0.261 A  
HETATM   11  N   UNL     1     -11.502   6.433  72.566  1.00  0.00    -0.267 NA 
HETATM   12  C   UNL     1     -10.145   4.579  71.883  1.00  0.00    -0.188 A  
HETATM   13  C   UNL     1     -11.009   5.190  72.758  1.00  0.00    -0.267 A  
HETATM   14 CL   UNL     1      -9.546   2.999  72.177  1.00  0.00    -0.196 Cl 
BRANCH   9  15
HETATM   15  C   UNL     1      -9.905   7.174  69.141  1.00  0.00    -0.160 A  
HETATM   16  C   UNL     1      -8.673   7.855  68.994  1.00  0.00    -0.138 A  
HETATM   17  C   UNL     1      -8.253   8.373  67.763  1.00  0.00    -0.126 A  
HETATM   18  C   UNL     1      -9.082   8.257  66.652  1.00  0.00    -0.166 A  
HETATM   19  C   UNL     1     -10.321   7.632  66.763  1.00  0.00    -0.343 A  
HETATM   20  C   UNL     1     -10.697   7.055  67.983  1.00  0.00    -0.252 A  
BRANCH  18  21
HETATM   21  S   UNL     1      -8.566   8.918  65.091  1.00  0.00    -0.173 S  
HETATM   22  C   UNL     1      -7.218   9.991  65.538  1.00  0.00    -0.133 C  
HETATM   23  O   UNL     1      -8.030   7.824  64.304  1.00  0.00    -0.134 OA 
HETATM   24  O   UNL     1      -9.645   9.745  64.587  1.00  0.00    -0.286 OA 
ENDBRANCH  18  21
ENDBRANCH   9  15
ENDBRANCH   5   8
TORSDOF 3
ENDMDL
MODEL       54
REMARK 921   NORMALIZED FREE ENERGY PREDICTED BY IDOCK:   -5.21 KCAL/MOL
REMARK 922        TOTAL FREE ENERGY PREDICTED BY IDOCK:   -6.99 KCAL/MOL
REMARK 923 INTER-LIGAND FREE ENERGY PREDICTED BY IDOCK:   -6.06 KCAL/MOL
REMARK 924 INTRA-LIGAND FREE ENERGY PREDICTED BY IDOCK:   -0.93 KCAL/MOL
REMARK 927      BINDING AFFINITY PREDICTED BY RF-SCORE:    0.00 PKD
ROOT
HETATM    1  C   UNL     1     -11.210   8.212  71.893  1.00  0.00    -0.351 C  
HETATM    2  C   UNL     1     -10.588   8.536  70.568  1.00  0.00    -0.213 A  
HETATM    3  N   UNL     1     -11.028   7.849  69.489  1.00  0.00    -0.139 NA 
HETATM    4  C   UNL     1     -10.339   8.002  68.327  1.00  0.00    -0.197 A  
HETATM    5  C   UNL     1      -9.176   8.751  68.189  1.00  0.00    -0.145 A  
HETATM    6  C   UNL     1      -9.572   9.475  70.481  1.00  0.00    -0.312 A  
HETATM    7  C   UNL     1      -8.863   9.571  69.287  1.00  0.00    -0.153 A  
ENDROOT
BRANCH   5   8
HETATM    8  C   UNL     1      -8.264   8.669  67.025  1.00  0.00    -0.106 A  
HETATM    9  C   UNL     1      -8.321   9.471  65.852  1.00  0.00    -0.124 A  
HETATM   10  C   UNL     1      -7.386   9.147  64.836  1.00  0.00    -0.101 A  
HETATM   11  N   UNL     1      -7.384   7.624  67.146  1.00  0.00    -0.089 NA 
HETATM   12  C   UNL     1      -6.492   8.094  64.971  1.00  0.00    -0.048 A  
HETATM   13  C   UNL     1      -6.536   7.356  66.129  1.00  0.00    -0.049 A  
HETATM   14 CL   UNL     1      -5.392   7.711  63.711  1.00  0.00    -0.037 Cl 
BRANCH   9  15
HETATM   15  C   UNL     1      -9.293  10.568  65.556  1.00  0.00    -0.245 A  
HETATM   16  C   UNL     1      -9.233  11.792  66.262  1.00  0.00    -0.227 A  
HETATM   17  C   UNL     1     -10.081  12.865  65.962  1.00  0.00    -0.290 A  
HETATM   18  C   UNL     1     -11.045  12.719  64.970  1.00  0.00    -0.285 A  
HETATM   19  C   UNL     1     -11.167  11.516  64.281  1.00  0.00    -0.358 A  
HETATM   20  C   UNL     1     -10.265  10.476  64.541  1.00  0.00    -0.355 A  
BRANCH  18  21
HETATM   21  S   UNL     1     -12.133  14.066  64.589  1.00  0.00    -0.444 S  
HETATM   22  C   UNL     1     -11.087  15.493  64.793  1.00  0.00    -0.407 C  
HETATM   23  O   UNL     1     -12.487  13.963  63.187  1.00  0.00    -0.766 OA 
HETATM   24  O   UNL     1     -13.152  14.110  65.619  1.00  0.00    -0.617 OA 
ENDBRANCH  18  21
ENDBRANCH   9  15
ENDBRANCH   5   8
TORSDOF 3
ENDMDL
MODEL       55
REMARK 921   NORMALIZED FREE ENERGY PREDICTED BY IDOCK:   -5.20 KCAL/MOL
REMARK 922        TOTAL FREE ENERGY PREDICTED BY IDOCK:   -6.97 KCAL/MOL
REMARK 923 INTER-LIGAND FREE ENERGY PREDICTED BY IDOCK:   -6.45 KCAL/MOL
REMARK 924 INTRA-LIGAND FREE ENERGY PREDICTED BY IDOCK:   -0.52 KCAL/MOL
REMARK 927      BINDING AFFINITY PREDICTED BY RF-SCORE:    0.00 PKD
ROOT
HETATM    1  C   UNL     1      -6.493  16.013  69.057  1.00  0.00    -0.146 C  
HETATM    2  C   UNL     1      -6.974  14.694  68.534  1.00  0.00    -0.110 A  
HETATM    3  N   UNL     1      -7.875  14.714  67.526  1.00  0.00    -0.178 NA 
HETATM    4  C   UNL     1      -8.454  13.534  67.179  1.00  0.00    -0.166 A  
HETATM    5  C   UNL     1      -8.243  12.326  67.836  1.00  0.00    -0.161 A  
HETATM    6  C   UNL     1      -6.534  13.510  69.106  1.00  0.00    -0.108 A  
HETATM    7  C   UNL     1      -7.181  12.328  68.757  1.00  0.00    -0.098 A  
ENDROOT
BRANCH   5   8
HETATM    8  C   UNL     1      -9.092  11.125  67.667  1.00  0.00    -0.147 A  
HETATM    9  C   UNL     1     -10.368  10.906  68.256  1.00  0.00    -0.194 A  
HETATM   10  C   UNL     1     -10.952   9.637  68.011  1.00  0.00    -0.197 A  
HETATM   11  N   UNL     1      -8.453  10.152  66.943  1.00  0.00    -0.125 NA 
HETATM   12  C   UNL     1     -10.302   8.662  67.267  1.00  0.00    -0.296 A  
HETATM   13  C   UNL     1      -9.057   8.956  66.769  1.00  0.00    -0.143 A  
HETATM   14 CL   UNL     1     -11.024   7.127  67.014  1.00  0.00    -0.410 Cl 
BRANCH   9  15
HETATM   15  C   UNL     1     -11.123  11.842  69.145  1.00  0.00    -0.294 A  
HETATM   16  C   UNL     1     -11.253  13.209  68.806  1.00  0.00    -0.323 A  
HETATM   17  C   UNL     1     -12.012  14.097  69.579  1.00  0.00    -0.389 A  
HETATM   18  C   UNL     1     -12.626  13.641  70.741  1.00  0.00    -0.325 A  
HETATM   19  C   UNL     1     -12.487  12.313  71.133  1.00  0.00    -0.328 A  
HETATM   20  C   UNL     1     -11.786  11.419  70.313  1.00  0.00    -0.438 A  
BRANCH  18  21
HETATM   21  S   UNL     1     -13.580  14.758  71.733  1.00  0.00    -0.440 S  
HETATM   22  C   UNL     1     -12.340  15.827  72.434  1.00  0.00    -0.456 C  
HETATM   23  O   UNL     1     -14.404  15.547  70.839  1.00  0.00    -0.392 OA 
HETATM   24  O   UNL     1     -14.168  13.991  72.814  1.00  0.00    -0.583 OA 
ENDBRANCH  18  21
ENDBRANCH   9  15
ENDBRANCH   5   8
TORSDOF 3
ENDMDL
MODEL       56
REMARK 921   NORMALIZED FREE ENERGY PREDICTED BY IDOCK:   -5.20 KCAL/MOL
REMARK 922        TOTAL FREE ENERGY PREDICTED BY IDOCK:   -6.97 KCAL/MOL
REMARK 923 INTER-LIGAND FREE ENERGY PREDICTED BY IDOCK:   -6.40 KCAL/MOL
REMARK 924 INTRA-LIGAND FREE ENERGY PREDICTED BY IDOCK:   -0.57 KCAL/MOL
REMARK 927      BINDING AFFINITY PREDICTED BY RF-SCORE:    0.00 PKD
ROOT
HETATM    1  C   UNL     1     -13.053  13.624  72.632  1.00  0.00    -0.452 C  
HETATM    2  C   UNL     1     -12.825  12.972  71.302  1.00  0.00    -0.281 A  
HETATM    3  N   UNL     1     -13.029  11.638  71.219  1.00  0.00    -0.338 NA 
HETATM    4  C   UNL     1     -12.643  11.016  70.074  1.00  0.00    -0.175 A  
HETATM    5  C   UNL     1     -11.987  11.639  69.017  1.00  0.00    -0.368 A  
HETATM    6  C   UNL     1     -12.380  13.719  70.223  1.00  0.00    -0.407 A  
HETATM    7  C   UNL     1     -11.954  13.042  69.083  1.00  0.00    -0.320 A  
ENDROOT
BRANCH   5   8
HETATM    8  C   UNL     1     -11.296  10.919  67.923  1.00  0.00    -0.308 A  
HETATM    9  C   UNL     1     -10.503   9.745  68.056  1.00  0.00    -0.271 A  
HETATM   10  C   UNL     1      -9.874   9.287  66.871  1.00  0.00    -0.276 A  
HETATM   11  N   UNL     1     -11.409  11.585  66.730  1.00  0.00    -0.416 NA 
HETATM   12  C   UNL     1     -10.003   9.963  65.664  1.00  0.00    -0.283 A  
HETATM   13  C   UNL     1     -10.763  11.106  65.644  1.00  0.00    -0.185 A  
HETATM   14 CL   UNL     1      -9.206   9.397  64.254  1.00  0.00    -0.170 Cl 
BRANCH   9  15
HETATM   15  C   UNL     1     -10.219   8.987  69.313  1.00  0.00    -0.210 A  
HETATM   16  C   UNL     1      -9.445   9.569  70.344  1.00  0.00    -0.317 A  
HETATM   17  C   UNL     1      -9.218   8.916  71.562  1.00  0.00    -0.322 A  
HETATM   18  C   UNL     1      -9.731   7.638  71.758  1.00  0.00    -0.161 A  
HETATM   19  C   UNL     1     -10.462   7.012  70.753  1.00  0.00    -0.231 A  
HETATM   20  C   UNL     1     -10.742   7.705  69.569  1.00  0.00    -0.211 A  
BRANCH  18  21
HETATM   21  S   UNL     1      -9.441   6.796  73.292  1.00  0.00    -0.160 S  
HETATM   22  C   UNL     1      -8.012   5.798  72.936  1.00  0.00    -0.108 C  
HETATM   23  O   UNL     1      -9.064   7.792  74.276  1.00  0.00    -0.193 OA 
HETATM   24  O   UNL     1     -10.562   5.904  73.520  1.00  0.00    -0.239 OA 
ENDBRANCH  18  21
ENDBRANCH   9  15
ENDBRANCH   5   8
TORSDOF 3
ENDMDL
MODEL       57
REMARK 921   NORMALIZED FREE ENERGY PREDICTED BY IDOCK:   -5.18 KCAL/MOL
REMARK 922        TOTAL FREE ENERGY PREDICTED BY IDOCK:   -6.95 KCAL/MOL
REMARK 923 INTER-LIGAND FREE ENERGY PREDICTED BY IDOCK:   -6.16 KCAL/MOL
REMARK 924 INTRA-LIGAND FREE ENERGY PREDICTED BY IDOCK:   -0.79 KCAL/MOL
REMARK 927      BINDING AFFINITY PREDICTED BY RF-SCORE:    0.00 PKD
ROOT
HETATM    1  C   UNL     1     -13.987   9.005  72.408  1.00  0.00    -0.517 C  
HETATM    2  C   UNL     1     -12.690   8.572  71.796  1.00  0.00    -0.349 A  
HETATM    3  N   UNL     1     -11.669   9.458  71.807  1.00  0.00    -0.385 NA 
HETATM    4  C   UNL     1     -10.558   9.143  71.089  1.00  0.00    -0.309 A  
HETATM    5  C   UNL     1     -10.429   8.015  70.286  1.00  0.00    -0.222 A  
HETATM    6  C   UNL     1     -12.576   7.322  71.205  1.00  0.00    -0.402 A  
HETATM    7  C   UNL     1     -11.442   7.054  70.443  1.00  0.00    -0.355 A  
ENDROOT
BRANCH   5   8
HETATM    8  C   UNL     1      -9.364   7.829  69.274  1.00  0.00    -0.148 A  
HETATM    9  C   UNL     1      -8.998   8.752  68.256  1.00  0.00    -0.141 A  
HETATM   10  C   UNL     1      -8.000   8.312  67.351  1.00  0.00    -0.106 A  
HETATM   11  N   UNL     1      -8.811   6.576  69.347  1.00  0.00    -0.133 NA 
HETATM   12  C   UNL     1      -7.437   7.045  67.440  1.00  0.00    -0.097 A  
HETATM   13  C   UNL     1      -7.881   6.212  68.437  1.00  0.00    -0.104 A  
HETATM   14 CL   UNL     1      -6.251   6.533  66.311  1.00  0.00    -0.036 Cl 
BRANCH   9  15
HETATM   15  C   UNL     1      -9.594  10.101  68.007  1.00  0.00    -0.160 A  
HETATM   16  C   UNL     1     -10.875  10.224  67.420  1.00  0.00    -0.336 A  
HETATM   17  C   UNL     1     -11.492  11.468  67.237  1.00  0.00    -0.338 A  
HETATM   18  C   UNL     1     -10.816  12.628  67.603  1.00  0.00    -0.221 A  
HETATM   19  C   UNL     1      -9.536  12.553  68.145  1.00  0.00    -0.215 A  
HETATM   20  C   UNL     1      -8.961  11.300  68.388  1.00  0.00    -0.167 A  
BRANCH  18  21
HETATM   21  S   UNL     1     -11.582  14.209  67.367  1.00  0.00    -0.392 S  
HETATM   22  C   UNL     1     -10.249  15.209  66.742  1.00  0.00    -0.264 C  
HETATM   23  O   UNL     1     -12.571  14.066  66.316  1.00  0.00    -0.451 OA 
HETATM   24  O   UNL     1     -11.946  14.719  68.674  1.00  0.00    -0.311 OA 
ENDBRANCH  18  21
ENDBRANCH   9  15
ENDBRANCH   5   8
TORSDOF 3
ENDMDL
MODEL       58
REMARK 921   NORMALIZED FREE ENERGY PREDICTED BY IDOCK:   -5.17 KCAL/MOL
REMARK 922        TOTAL FREE ENERGY PREDICTED BY IDOCK:   -6.94 KCAL/MOL
REMARK 923 INTER-LIGAND FREE ENERGY PREDICTED BY IDOCK:   -6.31 KCAL/MOL
REMARK 924 INTRA-LIGAND FREE ENERGY PREDICTED BY IDOCK:   -0.63 KCAL/MOL
REMARK 927      BINDING AFFINITY PREDICTED BY RF-SCORE:    0.00 PKD
ROOT
HETATM    1  C   UNL     1      -9.375   4.005  64.374  1.00  0.00    -0.159 C  
HETATM    2  C   UNL     1      -9.502   5.025  65.465  1.00  0.00    -0.117 A  
HETATM    3  N   UNL     1      -8.382   5.685  65.835  1.00  0.00    -0.122 NA 
HETATM    4  C   UNL     1      -8.453   6.467  66.945  1.00  0.00    -0.110 A  
HETATM    5  C   UNL     1      -9.570   6.574  67.766  1.00  0.00    -0.125 A  
HETATM    6  C   UNL     1     -10.723   5.235  66.089  1.00  0.00    -0.211 A  
HETATM    7  C   UNL     1     -10.747   6.007  67.247  1.00  0.00    -0.400 A  
ENDROOT
BRANCH   5   8
HETATM    8  C   UNL     1      -9.554   7.166  69.124  1.00  0.00    -0.154 A  
HETATM    9  C   UNL     1      -9.937   8.491  69.470  1.00  0.00    -0.193 A  
HETATM   10  C   UNL     1      -9.754   8.852  70.829  1.00  0.00    -0.281 A  
HETATM   11  N   UNL     1      -9.005   6.308  70.042  1.00  0.00    -0.147 NA 
HETATM   12  C   UNL     1      -9.207   7.973  71.754  1.00  0.00    -0.161 A  
HETATM   13  C   UNL     1      -8.836   6.725  71.316  1.00  0.00    -0.136 A  
HETATM   14 CL   UNL     1      -8.973   8.450  73.385  1.00  0.00    -0.254 Cl 
BRANCH   9  15
HETATM   15  C   UNL     1     -10.451   9.551  68.549  1.00  0.00    -0.247 A  
HETATM   16  C   UNL     1     -11.390  10.505  69.003  1.00  0.00    -0.319 A  
HETATM   17  C   UNL     1     -11.838  11.553  68.189  1.00  0.00    -0.306 A  
HETATM   18  C   UNL     1     -11.384  11.643  66.877  1.00  0.00    -0.295 A  
HETATM   19  C   UNL     1     -10.492  10.699  66.377  1.00  0.00    -0.276 A  
HETATM   20  C   UNL     1      -9.996   9.699  67.224  1.00  0.00    -0.250 A  
BRANCH  18  21
HETATM   21  S   UNL     1     -11.952  12.958  65.833  1.00  0.00    -0.447 S  
HETATM   22  C   UNL     1     -10.512  13.348  64.862  1.00  0.00    -0.390 C  
HETATM   23  O   UNL     1     -12.961  12.412  64.947  1.00  0.00    -0.762 OA 
HETATM   24  O   UNL     1     -12.238  14.098  66.682  1.00  0.00    -0.448 OA 
ENDBRANCH  18  21
ENDBRANCH   9  15
ENDBRANCH   5   8
TORSDOF 3
ENDMDL
MODEL       59
REMARK 921   NORMALIZED FREE ENERGY PREDICTED BY IDOCK:   -5.15 KCAL/MOL
REMARK 922        TOTAL FREE ENERGY PREDICTED BY IDOCK:   -6.91 KCAL/MOL
REMARK 923 INTER-LIGAND FREE ENERGY PREDICTED BY IDOCK:   -6.23 KCAL/MOL
REMARK 924 INTRA-LIGAND FREE ENERGY PREDICTED BY IDOCK:   -0.69 KCAL/MOL
REMARK 927      BINDING AFFINITY PREDICTED BY RF-SCORE:    0.00 PKD
ROOT
HETATM    1  C   UNL     1     -11.338  11.721  67.679  1.00  0.00    -0.370 C  
HETATM    2  C   UNL     1     -11.072  10.841  68.862  1.00  0.00    -0.253 A  
HETATM    3  N   UNL     1      -9.823  10.340  68.998  1.00  0.00    -0.196 NA 
HETATM    4  C   UNL     1      -9.628   9.396  69.956  1.00  0.00    -0.226 A  
HETATM    5  C   UNL     1     -10.634   8.855  70.750  1.00  0.00    -0.281 A  
HETATM    6  C   UNL     1     -12.092  10.528  69.747  1.00  0.00    -0.285 A  
HETATM    7  C   UNL     1     -11.867   9.525  70.686  1.00  0.00    -0.301 A  
ENDROOT
BRANCH   5   8
HETATM    8  C   UNL     1     -10.485   7.625  71.561  1.00  0.00    -0.204 A  
HETATM    9  C   UNL     1     -10.292   6.306  71.064  1.00  0.00    -0.258 A  
HETATM   10  C   UNL     1     -10.262   5.277  72.039  1.00  0.00    -0.259 A  
HETATM   11  N   UNL     1     -10.670   7.875  72.897  1.00  0.00    -0.368 NA 
HETATM   12  C   UNL     1     -10.438   5.541  73.390  1.00  0.00    -0.237 A  
HETATM   13  C   UNL     1     -10.653   6.843  73.769  1.00  0.00    -0.301 A  
HETATM   14 CL   UNL     1     -10.424   4.268  74.541  1.00  0.00    -0.290 Cl 
BRANCH   9  15
HETATM   15  C   UNL     1     -10.180   5.890  69.632  1.00  0.00    -0.281 A  
HETATM   16  C   UNL     1      -9.245   4.904  69.241  1.00  0.00    -0.160 A  
HETATM   17  C   UNL     1      -9.162   4.440  67.922  1.00  0.00    -0.170 A  
HETATM   18  C   UNL     1      -9.992   4.990  66.950  1.00  0.00    -0.212 A  
HETATM   19  C   UNL     1     -10.896   5.993  67.284  1.00  0.00    -0.403 A  
HETATM   20  C   UNL     1     -11.019   6.396  68.621  1.00  0.00    -0.404 A  
BRANCH  18  21
HETATM   21  S   UNL     1      -9.888   4.419  65.275  1.00  0.00    -0.185 S  
HETATM   22  C   UNL     1      -9.250   2.767  65.455  1.00  0.00    -0.124 C  
HETATM   23  O   UNL     1     -11.239   4.327  64.757  1.00  0.00    -0.310 OA 
HETATM   24  O   UNL     1      -8.880   5.215  64.603  1.00  0.00    -0.147 OA 
ENDBRANCH  18  21
ENDBRANCH   9  15
ENDBRANCH   5   8
TORSDOF 3
ENDMDL
MODEL       60
REMARK 921   NORMALIZED FREE ENERGY PREDICTED BY IDOCK:   -5.15 KCAL/MOL
REMARK 922        TOTAL FREE ENERGY PREDICTED BY IDOCK:   -6.91 KCAL/MOL
REMARK 923 INTER-LIGAND FREE ENERGY PREDICTED BY IDOCK:   -5.99 KCAL/MOL
REMARK 924 INTRA-LIGAND FREE ENERGY PREDICTED BY IDOCK:   -0.92 KCAL/MOL
REMARK 927      BINDING AFFINITY PREDICTED BY RF-SCORE:    0.00 PKD
ROOT
HETATM    1  C   UNL     1     -11.689  16.244  70.835  1.00  0.00    -0.270 C  
HETATM    2  C   UNL     1     -11.230  15.065  70.032  1.00  0.00    -0.271 A  
HETATM    3  N   UNL     1     -10.080  15.197  69.333  1.00  0.00    -0.243 NA 
HETATM    4  C   UNL     1      -9.761  14.206  68.459  1.00  0.00    -0.219 A  
HETATM    5  C   UNL     1     -10.569  13.108  68.179  1.00  0.00    -0.257 A  
HETATM    6  C   UNL     1     -11.993  13.909  69.985  1.00  0.00    -0.404 A  
HETATM    7  C   UNL     1     -11.659  12.935  69.047  1.00  0.00    -0.372 A  
ENDROOT
BRANCH   5   8
HETATM    8  C   UNL     1     -10.377  12.206  67.020  1.00  0.00    -0.211 A  
HETATM    9  C   UNL     1     -10.002  10.835  67.073  1.00  0.00    -0.236 A  
HETATM   10  C   UNL     1      -9.800  10.201  65.821  1.00  0.00    -0.331 A  
HETATM   11  N   UNL     1     -10.496  12.878  65.831  1.00  0.00    -0.274 NA 
HETATM   12  C   UNL     1      -9.933  10.888  64.621  1.00  0.00    -0.310 A  
HETATM   13  C   UNL     1     -10.266  12.219  64.675  1.00  0.00    -0.285 A  
HETATM   14 CL   UNL     1      -9.654  10.098  63.124  1.00  0.00    -0.303 Cl 
BRANCH   9  15
HETATM   15  C   UNL     1      -9.743  10.018  68.298  1.00  0.00    -0.155 A  
HETATM   16  C   UNL     1      -8.665  10.334  69.158  1.00  0.00    -0.176 A  
HETATM   17  C   UNL     1      -8.436   9.635  70.350  1.00  0.00    -0.187 A  
HETATM   18  C   UNL     1      -9.262   8.569  70.687  1.00  0.00    -0.163 A  
HETATM   19  C   UNL     1     -10.308   8.198  69.847  1.00  0.00    -0.214 A  
HETATM   20  C   UNL     1     -10.570   8.951  68.696  1.00  0.00    -0.182 A  
BRANCH  18  21
HETATM   21  S   UNL     1      -8.975   7.669  72.188  1.00  0.00    -0.141 S  
HETATM   22  C   UNL     1     -10.578   7.662  72.961  1.00  0.00    -0.375 C  
HETATM   23  O   UNL     1      -8.641   6.305  71.826  1.00  0.00    -0.131 OA 
HETATM   24  O   UNL     1      -8.086   8.465  73.012  1.00  0.00    -0.281 OA 
ENDBRANCH  18  21
ENDBRANCH   9  15
ENDBRANCH   5   8
TORSDOF 3
ENDMDL
MODEL       61
REMARK 921   NORMALIZED FREE ENERGY PREDICTED BY IDOCK:   -5.10 KCAL/MOL
REMARK 922        TOTAL FREE ENERGY PREDICTED BY IDOCK:   -6.86 KCAL/MOL
REMARK 923 INTER-LIGAND FREE ENERGY PREDICTED BY IDOCK:   -5.88 KCAL/MOL
REMARK 924 INTRA-LIGAND FREE ENERGY PREDICTED BY IDOCK:   -0.98 KCAL/MOL
REMARK 927      BINDING AFFINITY PREDICTED BY RF-SCORE:    0.00 PKD
ROOT
HETATM    1  C   UNL     1      -8.819   4.306  65.629  1.00  0.00    -0.123 C  
HETATM    2  C   UNL     1      -9.438   5.599  66.065  1.00  0.00    -0.110 A  
HETATM    3  N   UNL     1      -8.731   6.732  65.851  1.00  0.00    -0.153 NA 
HETATM    4  C   UNL     1      -9.199   7.878  66.413  1.00  0.00    -0.191 A  
HETATM    5  C   UNL     1     -10.307   7.953  67.251  1.00  0.00    -0.377 A  
HETATM    6  C   UNL     1     -10.669   5.607  66.703  1.00  0.00    -0.339 A  
HETATM    7  C   UNL     1     -11.094   6.790  67.302  1.00  0.00    -0.394 A  
ENDROOT
BRANCH   5   8
HETATM    8  C   UNL     1     -10.631   9.121  68.103  1.00  0.00    -0.183 A  
HETATM    9  C   UNL     1     -10.730   9.127  69.521  1.00  0.00    -0.226 A  
HETATM   10  C   UNL     1     -11.136  10.352  70.107  1.00  0.00    -0.383 A  
HETATM   11  N   UNL     1     -10.947  10.222  67.350  1.00  0.00    -0.284 NA 
HETATM   12  C   UNL     1     -11.445  11.466  69.337  1.00  0.00    -0.310 A  
HETATM   13  C   UNL     1     -11.351  11.351  67.972  1.00  0.00    -0.303 A  
HETATM   14 CL   UNL     1     -11.960  12.926  70.076  1.00  0.00    -0.410 Cl 
BRANCH   9  15
HETATM   15  C   UNL     1     -10.512   7.971  70.445  1.00  0.00    -0.218 A  
HETATM   16  C   UNL     1      -9.204   7.590  70.824  1.00  0.00    -0.158 A  
HETATM   17  C   UNL     1      -8.966   6.560  71.742  1.00  0.00    -0.138 A  
HETATM   18  C   UNL     1     -10.041   5.854  72.272  1.00  0.00    -0.182 A  
HETATM   19  C   UNL     1     -11.343   6.169  71.893  1.00  0.00    -0.350 A  
HETATM   20  C   UNL     1     -11.569   7.249  71.030  1.00  0.00    -0.329 A  
BRANCH  18  21
HETATM   21  S   UNL     1      -9.753   4.540  73.426  1.00  0.00    -0.130 S  
HETATM   22  C   UNL     1     -10.039   3.080  72.449  1.00  0.00    -0.159 C  
HETATM   23  O   UNL     1      -8.350   4.573  73.789  1.00  0.00    -0.103 OA 
HETATM   24  O   UNL     1     -10.791   4.609  74.437  1.00  0.00    -0.328 OA 
ENDBRANCH  18  21
ENDBRANCH   9  15
ENDBRANCH   5   8
TORSDOF 3
ENDMDL
MODEL       62
REMARK 921   NORMALIZED FREE ENERGY PREDICTED BY IDOCK:   -5.08 KCAL/MOL
REMARK 922        TOTAL FREE ENERGY PREDICTED BY IDOCK:   -6.84 KCAL/MOL
REMARK 923 INTER-LIGAND FREE ENERGY PREDICTED BY IDOCK:   -6.22 KCAL/MOL
REMARK 924 INTRA-LIGAND FREE ENERGY PREDICTED BY IDOCK:   -0.62 KCAL/MOL
REMARK 927      BINDING AFFINITY PREDICTED BY RF-SCORE:    0.00 PKD
ROOT
HETATM    1  C   UNL     1     -12.209  15.301  64.348  1.00  0.00    -0.222 C  
HETATM    2  C   UNL     1     -11.680  13.904  64.475  1.00  0.00    -0.410 A  
HETATM    3  N   UNL     1     -10.623  13.709  65.294  1.00  0.00    -0.328 NA 
HETATM    4  C   UNL     1     -10.024  12.489  65.266  1.00  0.00    -0.207 A  
HETATM    5  C   UNL     1     -10.375  11.456  64.403  1.00  0.00    -0.375 A  
HETATM    6  C   UNL     1     -12.241  12.873  63.737  1.00  0.00    -0.555 A  
HETATM    7  C   UNL     1     -11.576  11.650  63.700  1.00  0.00    -0.435 A  
ENDROOT
BRANCH   5   8
HETATM    8  C   UNL     1      -9.540  10.258  64.153  1.00  0.00    -0.315 A  
HETATM    9  C   UNL     1      -9.187   9.264  65.107  1.00  0.00    -0.264 A  
HETATM   10  C   UNL     1      -8.306   8.252  64.648  1.00  0.00    -0.115 A  
HETATM   11  N   UNL     1      -9.027  10.256  62.882  1.00  0.00    -0.219 NA 
HETATM   12  C   UNL     1      -7.800   8.252  63.355  1.00  0.00    -0.152 A  
HETATM   13  C   UNL     1      -8.173   9.274  62.517  1.00  0.00    -0.156 A  
HETATM   14 CL   UNL     1      -6.714   7.028  62.839  1.00  0.00    -0.050 Cl 
BRANCH   9  15
HETATM   15  C   UNL     1      -9.595   9.209  66.545  1.00  0.00    -0.289 A  
HETATM   16  C   UNL     1      -9.084  10.146  67.473  1.00  0.00    -0.143 A  
HETATM   17  C   UNL     1      -9.499  10.168  68.811  1.00  0.00    -0.171 A  
HETATM   18  C   UNL     1     -10.408   9.217  69.261  1.00  0.00    -0.215 A  
HETATM   19  C   UNL     1     -10.903   8.251  68.390  1.00  0.00     0.036 A  
HETATM   20  C   UNL     1     -10.536   8.286  67.039  1.00  0.00    -0.384 A  
BRANCH  18  21
HETATM   21  S   UNL     1     -10.932   9.228  70.955  1.00  0.00    -0.330 S  
HETATM   22  C   UNL     1     -12.003   7.809  71.050  1.00  0.00    -0.262 C  
HETATM   23  O   UNL     1      -9.766   8.970  71.778  1.00  0.00    -0.304 OA 
HETATM   24  O   UNL     1     -11.744  10.413  71.155  1.00  0.00    -0.352 OA 
ENDBRANCH  18  21
ENDBRANCH   9  15
ENDBRANCH   5   8
TORSDOF 3
ENDMDL
MODEL       63
REMARK 921   NORMALIZED FREE ENERGY PREDICTED BY IDOCK:   -5.05 KCAL/MOL
REMARK 922        TOTAL FREE ENERGY PREDICTED BY IDOCK:   -6.80 KCAL/MOL
REMARK 923 INTER-LIGAND FREE ENERGY PREDICTED BY IDOCK:   -6.25 KCAL/MOL
REMARK 924 INTRA-LIGAND FREE ENERGY PREDICTED BY IDOCK:   -0.55 KCAL/MOL
REMARK 927      BINDING AFFINITY PREDICTED BY RF-SCORE:    0.00 PKD
ROOT
HETATM    1  C   UNL     1     -13.012  11.820  63.119  1.00  0.00     0.057 C  
HETATM    2  C   UNL     1     -12.261  12.762  64.010  1.00  0.00    -0.441 A  
HETATM    3  N   UNL     1     -12.987  13.608  64.775  1.00  0.00    -0.681 NA 
HETATM    4  C   UNL     1     -12.315  14.587  65.437  1.00  0.00    -0.284 A  
HETATM    5  C   UNL     1     -10.949  14.825  65.323  1.00  0.00    -0.382 A  
HETATM    6  C   UNL     1     -10.875  12.780  64.002  1.00  0.00    -0.458 A  
HETATM    7  C   UNL     1     -10.225  13.823  64.656  1.00  0.00    -0.313 A  
ENDROOT
BRANCH   5   8
HETATM    8  C   UNL     1     -10.276  16.060  65.786  1.00  0.00    -0.377 A  
HETATM    9  C   UNL     1      -9.183  16.134  66.693  1.00  0.00    -0.273 A  
HETATM   10  C   UNL     1      -8.764  17.441  67.050  1.00  0.00    -0.249 A  
HETATM   11  N   UNL     1     -10.906  17.184  65.319  1.00  0.00    -0.543 NA 
HETATM   12  C   UNL     1      -9.401  18.574  66.563  1.00  0.00    -0.313 A  
HETATM   13  C   UNL     1     -10.469  18.399  65.718  1.00  0.00    -0.227 A  
HETATM   14 CL   UNL     1      -8.886  20.141  67.036  1.00  0.00    -0.422 Cl 
BRANCH   9  15
HETATM   15  C   UNL     1      -8.478  14.991  67.351  1.00  0.00    -0.202 A  
HETATM   16  C   UNL     1      -9.213  13.922  67.916  1.00  0.00    -0.198 A  
HETATM   17  C   UNL     1      -8.584  12.803  68.475  1.00  0.00    -0.048 A  
HETATM   18  C   UNL     1      -7.195  12.749  68.520  1.00  0.00    -0.114 A  
HETATM   19  C   UNL     1      -6.435  13.799  68.015  1.00  0.00    -0.140 A  
HETATM   20  C   UNL     1      -7.076  14.879  67.392  1.00  0.00    -0.194 A  
BRANCH  18  21
HETATM   21  S   UNL     1      -6.388  11.342  69.237  1.00  0.00    -0.096 S  
HETATM   22  C   UNL     1      -5.412  12.063  70.539  1.00  0.00    -0.156 C  
HETATM   23  O   UNL     1      -7.409  10.511  69.843  1.00  0.00    -0.154 OA 
HETATM   24  O   UNL     1      -5.478  10.807  68.243  1.00  0.00    -0.040 OA 
ENDBRANCH  18  21
ENDBRANCH   9  15
ENDBRANCH   5   8
TORSDOF 3
ENDMDL
MODEL       64
REMARK 921   NORMALIZED FREE ENERGY PREDICTED BY IDOCK:   -4.97 KCAL/MOL
REMARK 922        TOTAL FREE ENERGY PREDICTED BY IDOCK:   -6.71 KCAL/MOL
REMARK 923 INTER-LIGAND FREE ENERGY PREDICTED BY IDOCK:   -5.71 KCAL/MOL
REMARK 924 INTRA-LIGAND FREE ENERGY PREDICTED BY IDOCK:   -0.99 KCAL/MOL
REMARK 927      BINDING AFFINITY PREDICTED BY RF-SCORE:    0.00 PKD
ROOT
HETATM    1  C   UNL     1      -7.476   7.118  65.935  1.00  0.00    -0.080 C  
HETATM    2  C   UNL     1      -8.368   8.088  66.649  1.00  0.00    -0.120 A  
HETATM    3  N   UNL     1      -7.780   8.993  67.463  1.00  0.00    -0.096 NA 
HETATM    4  C   UNL     1      -8.590   9.744  68.254  1.00  0.00    -0.119 A  
HETATM    5  C   UNL     1      -9.971   9.596  68.339  1.00  0.00    -0.178 A  
HETATM    6  C   UNL     1      -9.745   8.014  66.501  1.00  0.00    -0.297 A  
HETATM    7  C   UNL     1     -10.542   8.768  67.358  1.00  0.00    -0.304 A  
ENDROOT
BRANCH   5   8
HETATM    8  C   UNL     1     -10.809  10.185  69.409  1.00  0.00    -0.241 A  
HETATM    9  C   UNL     1     -11.201   9.548  70.618  1.00  0.00    -0.364 A  
HETATM   10  C   UNL     1     -12.077  10.289  71.451  1.00  0.00    -0.457 A  
HETATM   11  N   UNL     1     -11.282  11.422  69.056  1.00  0.00    -0.233 NA 
HETATM   12  C   UNL     1     -12.543  11.547  71.090  1.00  0.00    -0.359 A  
HETATM   13  C   UNL     1     -12.134  12.064  69.886  1.00  0.00    -0.263 A  
HETATM   14 CL   UNL     1     -13.625  12.405  72.108  1.00  0.00    -0.531 Cl 
BRANCH   9  15
HETATM   15  C   UNL     1     -10.839   8.169  71.070  1.00  0.00    -0.265 A  
HETATM   16  C   UNL     1     -10.042   7.976  72.222  1.00  0.00    -0.311 A  
HETATM   17  C   UNL     1      -9.743   6.699  72.713  1.00  0.00    -0.166 A  
HETATM   18  C   UNL     1     -10.203   5.578  72.030  1.00  0.00    -0.199 A  
HETATM   19  C   UNL     1     -10.955   5.724  70.868  1.00  0.00    -0.305 A  
HETATM   20  C   UNL     1     -11.307   7.006  70.429  1.00  0.00    -0.354 A  
BRANCH  18  21
HETATM   21  S   UNL     1      -9.822   3.956  72.636  1.00  0.00    -0.157 S  
HETATM   22  C   UNL     1      -8.047   3.986  72.766  1.00  0.00    -0.091 C  
HETATM   23  O   UNL     1     -10.372   3.845  73.973  1.00  0.00    -0.148 OA 
HETATM   24  O   UNL     1     -10.176   3.007  71.598  1.00  0.00    -0.079 OA 
ENDBRANCH  18  21
ENDBRANCH   9  15
ENDBRANCH   5   8
TORSDOF 3
ENDMDL
MODEL       65
REMARK 921   NORMALIZED FREE ENERGY PREDICTED BY IDOCK:   -4.93 KCAL/MOL
REMARK 922        TOTAL FREE ENERGY PREDICTED BY IDOCK:   -6.66 KCAL/MOL
REMARK 923 INTER-LIGAND FREE ENERGY PREDICTED BY IDOCK:   -6.78 KCAL/MOL
REMARK 924 INTRA-LIGAND FREE ENERGY PREDICTED BY IDOCK:    0.12 KCAL/MOL
REMARK 927      BINDING AFFINITY PREDICTED BY RF-SCORE:    0.00 PKD
ROOT
HETATM    1  C   UNL     1     -13.395  15.108  73.100  1.00  0.00    -0.558 C  
HETATM    2  C   UNL     1     -13.045  14.211  71.951  1.00  0.00    -0.375 A  
HETATM    3  N   UNL     1     -13.128  12.877  72.153  1.00  0.00    -0.391 NA 
HETATM    4  C   UNL     1     -12.633  12.065  71.183  1.00  0.00    -0.271 A  
HETATM    5  C   UNL     1     -11.981  12.508  70.036  1.00  0.00    -0.372 A  
HETATM    6  C   UNL     1     -12.613  14.750  70.748  1.00  0.00    -0.412 A  
HETATM    7  C   UNL     1     -12.073  13.889  69.797  1.00  0.00    -0.404 A  
ENDROOT
BRANCH   5   8
HETATM    8  C   UNL     1     -11.176  11.640  69.146  1.00  0.00    -0.263 A  
HETATM    9  C   UNL     1     -10.238  12.074  68.170  1.00  0.00    -0.203 A  
HETATM   10  C   UNL     1      -9.651  11.054  67.380  1.00  0.00    -0.180 A  
HETATM   11  N   UNL     1     -11.518  10.319  69.284  1.00  0.00    -0.197 NA 
HETATM   12  C   UNL     1      -9.995   9.717  67.534  1.00  0.00    -0.184 A  
HETATM   13  C   UNL     1     -10.938   9.401  68.481  1.00  0.00    -0.030 A  
HETATM   14 CL   UNL     1      -9.287   8.510  66.542  1.00  0.00    -0.237 Cl 
BRANCH   9  15
HETATM   15  C   UNL     1      -9.855  13.484  67.852  1.00  0.00    -0.235 A  
HETATM   16  C   UNL     1     -10.787  14.366  67.256  1.00  0.00    -0.290 A  
HETATM   17  C   UNL     1     -10.485  15.711  67.011  1.00  0.00    -0.303 A  
HETATM   18  C   UNL     1      -9.219  16.196  67.319  1.00  0.00    -0.208 A  
HETATM   19  C   UNL     1      -8.258  15.351  67.867  1.00  0.00    -0.150 A  
HETATM   20  C   UNL     1      -8.596  14.027  68.175  1.00  0.00    -0.181 A  
BRANCH  18  21
HETATM   21  S   UNL     1      -8.821  17.894  67.003  1.00  0.00    -0.256 S  
HETATM   22  C   UNL     1      -7.170  17.802  66.344  1.00  0.00    -0.273 C  
HETATM   23  O   UNL     1      -9.702  18.364  65.951  1.00  0.00    -0.509 OA 
HETATM   24  O   UNL     1      -8.753  18.574  68.282  1.00  0.00    -0.294 OA 
ENDBRANCH  18  21
ENDBRANCH   9  15
ENDBRANCH   5   8
TORSDOF 3
ENDMDL
MODEL       66
REMARK 921   NORMALIZED FREE ENERGY PREDICTED BY IDOCK:   -4.93 KCAL/MOL
REMARK 922        TOTAL FREE ENERGY PREDICTED BY IDOCK:   -6.65 KCAL/MOL
REMARK 923 INTER-LIGAND FREE ENERGY PREDICTED BY IDOCK:   -5.89 KCAL/MOL
REMARK 924 INTRA-LIGAND FREE ENERGY PREDICTED BY IDOCK:   -0.77 KCAL/MOL
REMARK 927      BINDING AFFINITY PREDICTED BY RF-SCORE:    0.00 PKD
ROOT
HETATM    1  C   UNL     1     -13.054  12.835  72.154  1.00  0.00    -0.454 C  
HETATM    2  C   UNL     1     -12.497  13.879  71.234  1.00  0.00    -0.359 A  
HETATM    3  N   UNL     1     -12.651  13.685  69.905  1.00  0.00    -0.154 NA 
HETATM    4  C   UNL     1     -11.986  14.524  69.068  1.00  0.00    -0.299 A  
HETATM    5  C   UNL     1     -11.103  15.517  69.481  1.00  0.00    -0.286 A  
HETATM    6  C   UNL     1     -11.815  14.972  71.746  1.00  0.00    -0.455 A  
HETATM    7  C   UNL     1     -11.111  15.784  70.860  1.00  0.00    -0.354 A  
ENDROOT
BRANCH   5   8
HETATM    8  C   UNL     1     -10.153  16.214  68.584  1.00  0.00    -0.231 A  
HETATM    9  C   UNL     1      -9.243  15.600  67.680  1.00  0.00    -0.193 A  
HETATM   10  C   UNL     1      -8.374  16.479  66.985  1.00  0.00    -0.220 A  
HETATM   11  N   UNL     1     -10.159  17.568  68.796  1.00  0.00    -0.350 NA 
HETATM   12  C   UNL     1      -8.394  17.851  67.199  1.00  0.00    -0.228 A  
HETATM   13  C   UNL     1      -9.287  18.346  68.118  1.00  0.00    -0.317 A  
HETATM   14 CL   UNL     1      -7.310  18.884  66.363  1.00  0.00    -0.253 Cl 
BRANCH   9  15
HETATM   15  C   UNL     1      -9.067  14.136  67.433  1.00  0.00    -0.199 A  
HETATM   16  C   UNL     1      -9.717  13.506  66.346  1.00  0.00    -0.296 A  
HETATM   17  C   UNL     1      -9.518  12.153  66.044  1.00  0.00    -0.215 A  
HETATM   18  C   UNL     1      -8.692  11.385  66.857  1.00  0.00    -0.165 A  
HETATM   19  C   UNL     1      -8.068  11.955  67.963  1.00  0.00    -0.151 A  
HETATM   20  C   UNL     1      -8.217  13.325  68.210  1.00  0.00    -0.156 A  
BRANCH  18  21
HETATM   21  S   UNL     1      -8.442   9.668  66.492  1.00  0.00    -0.124 S  
HETATM   22  C   UNL     1      -6.818   9.647  65.764  1.00  0.00    -0.093 C  
HETATM   23  O   UNL     1      -8.382   8.954  67.752  1.00  0.00    -0.110 OA 
HETATM   24  O   UNL     1      -9.395   9.296  65.464  1.00  0.00    -0.227 OA 
ENDBRANCH  18  21
ENDBRANCH   9  15
ENDBRANCH   5   8
TORSDOF 3
ENDMDL
MODEL       67
REMARK 921   NORMALIZED FREE ENERGY PREDICTED BY IDOCK:   -4.89 KCAL/MOL
REMARK 922        TOTAL FREE ENERGY PREDICTED BY IDOCK:   -6.61 KCAL/MOL
REMARK 923 INTER-LIGAND FREE ENERGY PREDICTED BY IDOCK:   -6.03 KCAL/MOL
REMARK 924 INTRA-LIGAND FREE ENERGY PREDICTED BY IDOCK:   -0.58 KCAL/MOL
REMARK 927      BINDING AFFINITY PREDICTED BY RF-SCORE:    0.00 PKD
ROOT
HETATM    1  C   UNL     1     -10.679  12.703  64.268  1.00  0.00    -0.409 C  
HETATM    2  C   UNL     1     -10.867  11.702  65.368  1.00  0.00    -0.280 A  
HETATM    3  N   UNL     1     -11.691  12.041  66.385  1.00  0.00    -0.565 NA 
HETATM    4  C   UNL     1     -11.716  11.223  67.470  1.00  0.00    -0.082 A  
HETATM    5  C   UNL     1     -10.901  10.108  67.639  1.00  0.00    -0.346 A  
HETATM    6  C   UNL     1     -10.178  10.499  65.346  1.00  0.00    -0.340 A  
HETATM    7  C   UNL     1     -10.194   9.709  66.492  1.00  0.00    -0.294 A  
ENDROOT
BRANCH   5   8
HETATM    8  C   UNL     1     -10.703   9.407  68.929  1.00  0.00    -0.178 A  
HETATM    9  C   UNL     1     -10.336   8.044  69.099  1.00  0.00    -0.226 A  
HETATM   10  C   UNL     1     -10.289   7.579  70.437  1.00  0.00    -0.216 A  
HETATM   11  N   UNL     1     -11.029  10.207  69.993  1.00  0.00    -0.286 NA 
HETATM   12  C   UNL     1     -10.610   8.400  71.510  1.00  0.00    -0.241 A  
HETATM   13  C   UNL     1     -10.986   9.693  71.242  1.00  0.00    -0.329 A  
HETATM   14 CL   UNL     1     -10.570   7.798  73.116  1.00  0.00    -0.433 Cl 
BRANCH   9  15
HETATM   15  C   UNL     1     -10.057   7.045  68.022  1.00  0.00    -0.199 A  
HETATM   16  C   UNL     1      -8.728   6.767  67.625  1.00  0.00    -0.119 A  
HETATM   17  C   UNL     1      -8.427   5.787  66.671  1.00  0.00    -0.113 A  
HETATM   18  C   UNL     1      -9.461   5.088  66.058  1.00  0.00    -0.161 A  
HETATM   19  C   UNL     1     -10.785   5.361  66.388  1.00  0.00    -0.284 A  
HETATM   20  C   UNL     1     -11.069   6.292  67.396  1.00  0.00    -0.384 A  
BRANCH  18  21
HETATM   21  S   UNL     1      -9.093   3.853  64.840  1.00  0.00    -0.151 S  
HETATM   22  C   UNL     1      -8.016   4.712  63.713  1.00  0.00    -0.095 C  
HETATM   23  O   UNL     1      -8.326   2.809  65.491  1.00  0.00    -0.090 OA 
HETATM   24  O   UNL     1     -10.324   3.551  64.137  1.00  0.00    -0.207 OA 
ENDBRANCH  18  21
ENDBRANCH   9  15
ENDBRANCH   5   8
TORSDOF 3
ENDMDL
MODEL       68
REMARK 921   NORMALIZED FREE ENERGY PREDICTED BY IDOCK:   -4.87 KCAL/MOL
REMARK 922        TOTAL FREE ENERGY PREDICTED BY IDOCK:   -6.59 KCAL/MOL
REMARK 923 INTER-LIGAND FREE ENERGY PREDICTED BY IDOCK:   -5.94 KCAL/MOL
REMARK 924 INTRA-LIGAND FREE ENERGY PREDICTED BY IDOCK:   -0.64 KCAL/MOL
REMARK 927      BINDING AFFINITY PREDICTED BY RF-SCORE:    0.00 PKD
ROOT
HETATM    1  C   UNL     1      -5.965   6.171  66.851  1.00  0.00    -0.021 C  
HETATM    2  C   UNL     1      -6.676   7.305  66.176  1.00  0.00    -0.053 A  
HETATM    3  N   UNL     1      -6.399   8.557  66.605  1.00  0.00    -0.058 NA 
HETATM    4  C   UNL     1      -7.176   9.567  66.132  1.00  0.00    -0.093 A  
HETATM    5  C   UNL     1      -8.278   9.395  65.301  1.00  0.00    -0.133 A  
HETATM    6  C   UNL     1      -7.611   7.055  65.183  1.00  0.00    -0.102 A  
HETATM    7  C   UNL     1      -8.416   8.107  64.755  1.00  0.00    -0.064 A  
ENDROOT
BRANCH   5   8
HETATM    8  C   UNL     1      -9.298  10.437  65.040  1.00  0.00    -0.229 A  
HETATM    9  C   UNL     1     -10.347  10.827  65.917  1.00  0.00    -0.302 A  
HETATM   10  C   UNL     1     -11.251  11.793  65.408  1.00  0.00    -0.310 A  
HETATM   11  N   UNL     1      -9.194  10.937  63.768  1.00  0.00    -0.217 NA 
HETATM   12  C   UNL     1     -11.132  12.303  64.122  1.00  0.00    -0.366 A  
HETATM   13  C   UNL     1     -10.105  11.839  63.338  1.00  0.00    -0.446 A  
HETATM   14 CL   UNL     1     -12.259  13.451  63.526  1.00  0.00    -0.542 Cl 
BRANCH   9  15
HETATM   15  C   UNL     1     -10.628  10.285  67.282  1.00  0.00    -0.324 A  
HETATM   16  C   UNL     1     -11.256  11.092  68.260  1.00  0.00    -0.340 A  
HETATM   17  C   UNL     1     -11.599  10.595  69.524  1.00  0.00    -0.360 A  
HETATM   18  C   UNL     1     -11.278   9.283  69.854  1.00  0.00    -0.126 A  
HETATM   19  C   UNL     1     -10.622   8.468  68.936  1.00  0.00    -0.166 A  
HETATM   20  C   UNL     1     -10.351   8.955  67.650  1.00  0.00    -0.313 A  
BRANCH  18  21
HETATM   21  S   UNL     1     -11.696   8.646  71.455  1.00  0.00    -0.314 S  
HETATM   22  C   UNL     1     -13.004   9.730  71.986  1.00  0.00    -0.423 C  
HETATM   23  O   UNL     1     -12.255   7.321  71.270  1.00  0.00    -0.321 OA 
HETATM   24  O   UNL     1     -10.557   8.865  72.324  1.00  0.00    -0.320 OA 
ENDBRANCH  18  21
ENDBRANCH   9  15
ENDBRANCH   5   8
TORSDOF 3
ENDMDL
MODEL       69
REMARK 921   NORMALIZED FREE ENERGY PREDICTED BY IDOCK:   -4.85 KCAL/MOL
REMARK 922        TOTAL FREE ENERGY PREDICTED BY IDOCK:   -6.56 KCAL/MOL
REMARK 923 INTER-LIGAND FREE ENERGY PREDICTED BY IDOCK:   -5.74 KCAL/MOL
REMARK 924 INTRA-LIGAND FREE ENERGY PREDICTED BY IDOCK:   -0.82 KCAL/MOL
REMARK 927      BINDING AFFINITY PREDICTED BY RF-SCORE:    0.00 PKD
ROOT
HETATM    1  C   UNL     1      -7.846   8.179  74.364  1.00  0.00    -0.298 C  
HETATM    2  C   UNL     1      -8.407   8.117  72.976  1.00  0.00    -0.199 A  
HETATM    3  N   UNL     1      -9.672   7.660  72.835  1.00  0.00    -0.202 NA 
HETATM    4  C   UNL     1     -10.115   7.423  71.572  1.00  0.00    -0.185 A  
HETATM    5  C   UNL     1      -9.337   7.544  70.425  1.00  0.00    -0.161 A  
HETATM    6  C   UNL     1      -7.627   8.476  71.888  1.00  0.00    -0.139 A  
HETATM    7  C   UNL     1      -8.097   8.178  70.612  1.00  0.00    -0.105 A  
ENDROOT
BRANCH   5   8
HETATM    8  C   UNL     1      -9.712   6.996  69.101  1.00  0.00    -0.156 A  
HETATM    9  C   UNL     1     -10.244   7.731  68.005  1.00  0.00    -0.249 A  
HETATM   10  C   UNL     1     -10.604   6.967  66.866  1.00  0.00    -0.372 A  
HETATM   11  N   UNL     1      -9.592   5.631  69.067  1.00  0.00    -0.129 NA 
HETATM   12  C   UNL     1     -10.469   5.585  66.837  1.00  0.00    -0.287 A  
HETATM   13  C   UNL     1      -9.976   4.963  67.957  1.00  0.00    -0.114 A  
HETATM   14 CL   UNL     1     -10.939   4.688  65.452  1.00  0.00    -0.174 Cl 
BRANCH   9  15
HETATM   15  C   UNL     1     -10.518   9.200  67.953  1.00  0.00    -0.293 A  
HETATM   16  C   UNL     1     -10.059   9.979  66.866  1.00  0.00    -0.287 A  
HETATM   17  C   UNL     1     -10.358  11.342  66.749  1.00  0.00    -0.278 A  
HETATM   18  C   UNL     1     -11.094  11.969  67.749  1.00  0.00    -0.249 A  
HETATM   19  C   UNL     1     -11.529  11.248  68.858  1.00  0.00    -0.363 A  
HETATM   20  C   UNL     1     -11.285   9.870  68.926  1.00  0.00    -0.126 A  
BRANCH  18  21
HETATM   21  S   UNL     1     -11.470  13.697  67.619  1.00  0.00    -0.346 S  
HETATM   22  C   UNL     1      -9.879  14.428  67.297  1.00  0.00    -0.247 C  
HETATM   23  O   UNL     1     -12.297  13.879  66.443  1.00  0.00    -0.448 OA 
HETATM   24  O   UNL     1     -11.912  14.148  68.924  1.00  0.00    -0.333 OA 
ENDBRANCH  18  21
ENDBRANCH   9  15
ENDBRANCH   5   8
TORSDOF 3
ENDMDL
MODEL       70
REMARK 921   NORMALIZED FREE ENERGY PREDICTED BY IDOCK:   -4.84 KCAL/MOL
REMARK 922        TOTAL FREE ENERGY PREDICTED BY IDOCK:   -6.55 KCAL/MOL
REMARK 923 INTER-LIGAND FREE ENERGY PREDICTED BY IDOCK:   -5.60 KCAL/MOL
REMARK 924 INTRA-LIGAND FREE ENERGY PREDICTED BY IDOCK:   -0.95 KCAL/MOL
REMARK 927      BINDING AFFINITY PREDICTED BY RF-SCORE:    0.00 PKD
ROOT
HETATM    1  C   UNL     1      -8.756  10.164  65.899  1.00  0.00    -0.159 C  
HETATM    2  C   UNL     1      -9.174  11.546  66.299  1.00  0.00    -0.211 A  
HETATM    3  N   UNL     1     -10.017  12.206  65.474  1.00  0.00    -0.248 NA 
HETATM    4  C   UNL     1     -10.246  13.521  65.734  1.00  0.00    -0.297 A  
HETATM    5  C   UNL     1      -9.618  14.250  66.738  1.00  0.00    -0.290 A  
HETATM    6  C   UNL     1      -8.668  12.125  67.454  1.00  0.00    -0.177 A  
HETATM    7  C   UNL     1      -8.889  13.483  67.662  1.00  0.00    -0.202 A  
ENDROOT
BRANCH   5   8
HETATM    8  C   UNL     1      -9.627  15.729  66.825  1.00  0.00    -0.236 A  
HETATM    9  C   UNL     1     -10.219  16.508  67.857  1.00  0.00    -0.273 A  
HETATM   10  C   UNL     1     -10.169  17.914  67.676  1.00  0.00    -0.369 A  
HETATM   11  N   UNL     1      -9.078  16.304  65.708  1.00  0.00    -0.441 NA 
HETATM   12  C   UNL     1      -9.600  18.488  66.546  1.00  0.00    -0.329 A  
HETATM   13  C   UNL     1      -9.084  17.649  65.589  1.00  0.00     0.567 A  
HETATM   14 CL   UNL     1      -9.580  20.191  66.345  1.00  0.00    -0.515 Cl 
BRANCH   9  15
HETATM   15  C   UNL     1     -10.935  16.004  69.069  1.00  0.00    -0.296 A  
HETATM   16  C   UNL     1     -10.344  16.110  70.349  1.00  0.00     0.213 A  
HETATM   17  C   UNL     1     -11.016  15.714  71.513  1.00  0.00    -0.100 A  
HETATM   18  C   UNL     1     -12.287  15.159  71.414  1.00  0.00    -0.346 A  
HETATM   19  C   UNL     1     -12.888  14.997  70.169  1.00  0.00    -0.196 A  
HETATM   20  C   UNL     1     -12.235  15.464  69.021  1.00  0.00    -0.167 A  
BRANCH  18  21
HETATM   21  S   UNL     1     -13.143  14.643  72.879  1.00  0.00    -0.514 S  
HETATM   22  C   UNL     1     -13.561  12.950  72.521  1.00  0.00    -0.358 C  
HETATM   23  O   UNL     1     -12.190  14.652  73.971  1.00  0.00    -0.464 OA 
HETATM   24  O   UNL     1     -14.377  15.400  72.954  1.00  0.00    -0.193 OA 
ENDBRANCH  18  21
ENDBRANCH   9  15
ENDBRANCH   5   8
TORSDOF 3
ENDMDL
MODEL       71
REMARK 921   NORMALIZED FREE ENERGY PREDICTED BY IDOCK:   -4.81 KCAL/MOL
REMARK 922        TOTAL FREE ENERGY PREDICTED BY IDOCK:   -6.52 KCAL/MOL
REMARK 923 INTER-LIGAND FREE ENERGY PREDICTED BY IDOCK:   -5.76 KCAL/MOL
REMARK 924 INTRA-LIGAND FREE ENERGY PREDICTED BY IDOCK:   -0.76 KCAL/MOL
REMARK 927      BINDING AFFINITY PREDICTED BY RF-SCORE:    0.00 PKD
ROOT
HETATM    1  C   UNL     1     -11.979  14.125  67.284  1.00  0.00    -0.449 C  
HETATM    2  C   UNL     1     -11.219  13.019  66.618  1.00  0.00    -0.307 A  
HETATM    3  N   UNL     1     -11.925  12.129  65.885  1.00  0.00    -0.571 NA 
HETATM    4  C   UNL     1     -11.271  11.024  65.440  1.00  0.00     0.183 A  
HETATM    5  C   UNL     1      -9.952  10.708  65.748  1.00  0.00    -0.315 A  
HETATM    6  C   UNL     1      -9.848  12.904  66.797  1.00  0.00    -0.241 A  
HETATM    7  C   UNL     1      -9.222  11.738  66.365  1.00  0.00    -0.223 A  
ENDROOT
BRANCH   5   8
HETATM    8  C   UNL     1      -9.341   9.376  65.532  1.00  0.00    -0.251 A  
HETATM    9  C   UNL     1      -9.350   8.287  66.446  1.00  0.00    -0.274 A  
HETATM   10  C   UNL     1      -8.623   7.137  66.045  1.00  0.00    -0.158 A  
HETATM   11  N   UNL     1      -8.639   9.328  64.355  1.00  0.00    -0.192 NA 
HETATM   12  C   UNL     1      -7.924   7.094  64.845  1.00  0.00    -0.127 A  
HETATM   13  C   UNL     1      -7.948   8.209  64.045  1.00  0.00    -0.139 A  
HETATM   14 CL   UNL     1      -7.032   5.697  64.402  1.00  0.00    -0.050 Cl 
BRANCH   9  15
HETATM   15  C   UNL     1      -9.987   8.250  67.798  1.00  0.00    -0.235 A  
HETATM   16  C   UNL     1     -10.711   7.110  68.221  1.00  0.00    -0.202 A  
HETATM   17  C   UNL     1     -11.260   7.013  69.505  1.00  0.00    -0.185 A  
HETATM   18  C   UNL     1     -11.132   8.082  70.387  1.00  0.00    -0.238 A  
HETATM   19  C   UNL     1     -10.465   9.238  69.996  1.00  0.00    -0.254 A  
HETATM   20  C   UNL     1      -9.858   9.293  68.734  1.00  0.00    -0.174 A  
BRANCH  18  21
HETATM   21  S   UNL     1     -11.833   7.975  72.012  1.00  0.00    -0.348 S  
HETATM   22  C   UNL     1     -12.689   9.527  72.180  1.00  0.00    -0.362 C  
HETATM   23  O   UNL     1     -12.821   6.914  71.997  1.00  0.00    -0.279 OA 
HETATM   24  O   UNL     1     -10.737   7.966  72.961  1.00  0.00    -0.365 OA 
ENDBRANCH  18  21
ENDBRANCH   9  15
ENDBRANCH   5   8
TORSDOF 3
ENDMDL
MODEL       72
REMARK 921   NORMALIZED FREE ENERGY PREDICTED BY IDOCK:   -4.79 KCAL/MOL
REMARK 922        TOTAL FREE ENERGY PREDICTED BY IDOCK:   -6.49 KCAL/MOL
REMARK 923 INTER-LIGAND FREE ENERGY PREDICTED BY IDOCK:   -6.16 KCAL/MOL
REMARK 924 INTRA-LIGAND FREE ENERGY PREDICTED BY IDOCK:   -0.33 KCAL/MOL
REMARK 927      BINDING AFFINITY PREDICTED BY RF-SCORE:    0.00 PKD
ROOT
HETATM    1  C   UNL     1      -6.612   7.557  63.586  1.00  0.00    -0.053 C  
HETATM    2  C   UNL     1      -7.161   7.411  64.973  1.00  0.00    -0.067 A  
HETATM    3  N   UNL     1      -8.264   6.645  65.128  1.00  0.00    -0.132 NA 
HETATM    4  C   UNL     1      -8.873   6.664  66.343  1.00  0.00    -0.144 A  
HETATM    5  C   UNL     1      -8.488   7.470  67.409  1.00  0.00    -0.115 A  
HETATM    6  C   UNL     1      -6.572   8.080  66.034  1.00  0.00    -0.046 A  
HETATM    7  C   UNL     1      -7.248   8.112  67.251  1.00  0.00    -0.084 A  
ENDROOT
BRANCH   5   8
HETATM    8  C   UNL     1      -9.320   7.723  68.608  1.00  0.00    -0.148 A  
HETATM    9  C   UNL     1     -10.234   8.797  68.787  1.00  0.00    -0.224 A  
HETATM   10  C   UNL     1     -10.856   8.875  70.059  1.00  0.00    -0.239 A  
HETATM   11  N   UNL     1      -9.031   6.843  69.618  1.00  0.00    -0.144 NA 
HETATM   12  C   UNL     1     -10.565   7.972  71.073  1.00  0.00    -0.213 A  
HETATM   13  C   UNL     1      -9.642   6.989  70.815  1.00  0.00    -0.164 A  
HETATM   14 CL   UNL     1     -11.314   8.110  72.610  1.00  0.00    -0.458 Cl 
BRANCH   9  15
HETATM   15  C   UNL     1     -10.559   9.877  67.805  1.00  0.00    -0.313 A  
HETATM   16  C   UNL     1     -10.174   9.757  66.449  1.00  0.00    -0.288 A  
HETATM   17  C   UNL     1     -10.523  10.715  65.489  1.00  0.00    -0.246 A  
HETATM   18  C   UNL     1     -11.235  11.845  65.878  1.00  0.00    -0.322 A  
HETATM   19  C   UNL     1     -11.597  12.023  67.210  1.00  0.00    -0.383 A  
HETATM   20  C   UNL     1     -11.304  11.023  68.145  1.00  0.00    -0.374 A  
BRANCH  18  21
HETATM   21  S   UNL     1     -11.673  13.070  64.674  1.00  0.00    -0.385 S  
HETATM   22  C   UNL     1     -10.469  14.351  64.951  1.00  0.00    -0.423 C  
HETATM   23  O   UNL     1     -11.435  12.502  63.361  1.00  0.00    -0.472 OA 
HETATM   24  O   UNL     1     -12.975  13.596  65.038  1.00  0.00    -0.724 OA 
ENDBRANCH  18  21
ENDBRANCH   9  15
ENDBRANCH   5   8
TORSDOF 3
ENDMDL
MODEL       73
REMARK 921   NORMALIZED FREE ENERGY PREDICTED BY IDOCK:   -4.79 KCAL/MOL
REMARK 922        TOTAL FREE ENERGY PREDICTED BY IDOCK:   -6.49 KCAL/MOL
REMARK 923 INTER-LIGAND FREE ENERGY PREDICTED BY IDOCK:   -5.73 KCAL/MOL
REMARK 924 INTRA-LIGAND FREE ENERGY PREDICTED BY IDOCK:   -0.76 KCAL/MOL
REMARK 927      BINDING AFFINITY PREDICTED BY RF-SCORE:    0.00 PKD
ROOT
HETATM    1  C   UNL     1      -6.822  17.673  69.140  1.00  0.00    -0.229 C  
HETATM    2  C   UNL     1      -7.972  17.085  68.380  1.00  0.00    -0.239 A  
HETATM    3  N   UNL     1      -8.795  16.245  69.047  1.00  0.00    -0.248 NA 
HETATM    4  C   UNL     1      -9.720  15.566  68.318  1.00  0.00    -0.201 A  
HETATM    5  C   UNL     1      -9.829  15.616  66.932  1.00  0.00    -0.245 A  
HETATM    6  C   UNL     1      -8.141  17.370  67.034  1.00  0.00    -0.240 A  
HETATM    7  C   UNL     1      -9.069  16.623  66.313  1.00  0.00    -0.333 A  
ENDROOT
BRANCH   5   8
HETATM    8  C   UNL     1     -10.613  14.657  66.121  1.00  0.00    -0.312 A  
HETATM    9  C   UNL     1     -10.559  13.238  66.209  1.00  0.00    -0.294 A  
HETATM   10  C   UNL     1     -11.346  12.530  65.266  1.00  0.00    -0.363 A  
HETATM   11  N   UNL     1     -11.350  15.295  65.157  1.00  0.00    -0.346 NA 
HETATM   12  C   UNL     1     -12.098  13.186  64.299  1.00  0.00    -0.414 A  
HETATM   13  C   UNL     1     -12.058  14.558  64.274  1.00  0.00    -0.425 A  
HETATM   14 CL   UNL     1     -13.018  12.298  63.155  1.00  0.00    -0.188 Cl 
BRANCH   9  15
HETATM   15  C   UNL     1      -9.722  12.424  67.143  1.00  0.00    -0.207 A  
HETATM   16  C   UNL     1     -10.324  11.669  68.176  1.00  0.00    -0.208 A  
HETATM   17  C   UNL     1      -9.577  10.840  69.023  1.00  0.00    -0.193 A  
HETATM   18  C   UNL     1      -8.195  10.783  68.880  1.00  0.00    -0.149 A  
HETATM   19  C   UNL     1      -7.558  11.544  67.904  1.00  0.00    -0.113 A  
HETATM   20  C   UNL     1      -8.324  12.312  67.017  1.00  0.00    -0.168 A  
BRANCH  18  21
HETATM   21  S   UNL     1      -7.238   9.747  69.953  1.00  0.00    -0.134 S  
HETATM   22  C   UNL     1      -5.865  10.790  70.396  1.00  0.00    -0.118 C  
HETATM   23  O   UNL     1      -8.024   9.504  71.147  1.00  0.00    -0.315 OA 
HETATM   24  O   UNL     1      -6.723   8.649  69.157  1.00  0.00    -0.046 OA 
ENDBRANCH  18  21
ENDBRANCH   9  15
ENDBRANCH   5   8
TORSDOF 3
ENDMDL
MODEL       74
REMARK 921   NORMALIZED FREE ENERGY PREDICTED BY IDOCK:   -4.75 KCAL/MOL
REMARK 922        TOTAL FREE ENERGY PREDICTED BY IDOCK:   -6.44 KCAL/MOL
REMARK 923 INTER-LIGAND FREE ENERGY PREDICTED BY IDOCK:   -5.62 KCAL/MOL
REMARK 924 INTRA-LIGAND FREE ENERGY PREDICTED BY IDOCK:   -0.82 KCAL/MOL
REMARK 927      BINDING AFFINITY PREDICTED BY RF-SCORE:    0.00 PKD
ROOT
HETATM    1  C   UNL     1      -6.940  18.395  65.668  1.00  0.00    -0.241 C  
HETATM    2  C   UNL     1      -7.727  17.354  66.406  1.00  0.00    -0.308 A  
HETATM    3  N   UNL     1      -8.870  16.914  65.834  1.00  0.00    -0.529 NA 
HETATM    4  C   UNL     1      -9.678  16.118  66.581  1.00  0.00    -0.244 A  
HETATM    5  C   UNL     1      -9.450  15.787  67.913  1.00  0.00    -0.212 A  
HETATM    6  C   UNL     1      -7.303  16.906  67.648  1.00  0.00    -0.170 A  
HETATM    7  C   UNL     1      -8.177  16.127  68.401  1.00  0.00    -0.172 A  
ENDROOT
BRANCH   5   8
HETATM    8  C   UNL     1     -10.467  15.190  68.810  1.00  0.00    -0.234 A  
HETATM    9  C   UNL     1     -10.730  13.802  68.979  1.00  0.00    -0.209 A  
HETATM   10  C   UNL     1     -11.813  13.479  69.835  1.00  0.00    -0.386 A  
HETATM   11  N   UNL     1     -11.239  16.151  69.409  1.00  0.00    -0.331 NA 
HETATM   12  C   UNL     1     -12.583  14.459  70.447  1.00  0.00    -0.345 A  
HETATM   13  C   UNL     1     -12.271  15.773  70.195  1.00  0.00    -0.314 A  
HETATM   14 CL   UNL     1     -13.903  14.034  71.456  1.00  0.00    -0.371 Cl 
BRANCH   9  15
HETATM   15  C   UNL     1     -10.031  12.664  68.307  1.00  0.00    -0.229 A  
HETATM   16  C   UNL     1      -8.632  12.504  68.434  1.00  0.00    -0.123 A  
HETATM   17  C   UNL     1      -7.955  11.411  67.877  1.00  0.00    -0.120 A  
HETATM   18  C   UNL     1      -8.666  10.470  67.140  1.00  0.00    -0.130 A  
HETATM   19  C   UNL     1     -10.038  10.613  66.955  1.00  0.00    -0.260 A  
HETATM   20  C   UNL     1     -10.712  11.671  67.577  1.00  0.00    -0.257 A  
BRANCH  18  21
HETATM   21  S   UNL     1      -7.819   9.088  66.421  1.00  0.00    -0.100 S  
HETATM   22  C   UNL     1      -9.129   7.912  66.155  1.00  0.00    -0.163 C  
HETATM   23  O   UNL     1      -7.316   9.504  65.127  1.00  0.00    -0.101 OA 
HETATM   24  O   UNL     1      -6.932   8.545  67.431  1.00  0.00    -0.076 OA 
ENDBRANCH  18  21
ENDBRANCH   9  15
ENDBRANCH   5   8
TORSDOF 3
ENDMDL
MODEL       75
REMARK 921   NORMALIZED FREE ENERGY PREDICTED BY IDOCK:   -4.71 KCAL/MOL
REMARK 922        TOTAL FREE ENERGY PREDICTED BY IDOCK:   -6.40 KCAL/MOL
REMARK 923 INTER-LIGAND FREE ENERGY PREDICTED BY IDOCK:   -5.40 KCAL/MOL
REMARK 924 INTRA-LIGAND FREE ENERGY PREDICTED BY IDOCK:   -1.00 KCAL/MOL
REMARK 927      BINDING AFFINITY PREDICTED BY RF-SCORE:    0.00 PKD
ROOT
HETATM    1  C   UNL     1      -5.326  12.576  70.858  1.00  0.00    -0.166 C  
HETATM    2  C   UNL     1      -6.205  12.811  69.667  1.00  0.00    -0.120 A  
HETATM    3  N   UNL     1      -6.968  13.927  69.666  1.00  0.00     0.006 NA 
HETATM    4  C   UNL     1      -7.900  14.047  68.684  1.00  0.00    -0.130 A  
HETATM    5  C   UNL     1      -8.175  13.072  67.731  1.00  0.00    -0.168 A  
HETATM    6  C   UNL     1      -6.252  11.884  68.637  1.00  0.00    -0.055 A  
HETATM    7  C   UNL     1      -7.248  12.018  67.674  1.00  0.00    -0.117 A  
ENDROOT
BRANCH   5   8
HETATM    8  C   UNL     1      -9.380  13.064  66.870  1.00  0.00    -0.241 A  
HETATM    9  C   UNL     1     -10.423  12.097  66.890  1.00  0.00    -0.250 A  
HETATM   10  C   UNL     1     -11.434  12.258  65.909  1.00  0.00    -0.428 A  
HETATM   11  N   UNL     1      -9.339  14.064  65.933  1.00  0.00    -0.065 NA 
HETATM   12  C   UNL     1     -11.389  13.281  64.971  1.00  0.00    -0.305 A  
HETATM   13  C   UNL     1     -10.323  14.145  65.011  1.00  0.00    -0.418 A  
HETATM   14 CL   UNL     1     -12.615  13.431  63.780  1.00  0.00    -0.262 Cl 
BRANCH   9  15
HETATM   15  C   UNL     1     -10.531  10.907  67.789  1.00  0.00    -0.238 A  
HETATM   16  C   UNL     1     -10.935  11.057  69.136  1.00  0.00    -0.289 A  
HETATM   17  C   UNL     1     -11.115   9.958  69.985  1.00  0.00    -0.335 A  
HETATM   18  C   UNL     1     -10.852   8.677  69.511  1.00  0.00    -0.129 A  
HETATM   19  C   UNL     1     -10.411   8.488  68.204  1.00  0.00    -0.236 A  
HETATM   20  C   UNL     1     -10.305   9.590  67.345  1.00  0.00    -0.319 A  
BRANCH  18  21
HETATM   21  S   UNL     1     -11.065   7.278  70.579  1.00  0.00    -0.272 S  
HETATM   22  C   UNL     1     -10.698   5.901  69.512  1.00  0.00    -0.343 C  
HETATM   23  O   UNL     1     -10.039   7.344  71.601  1.00  0.00    -0.184 OA 
HETATM   24  O   UNL     1     -12.470   7.207  70.930  1.00  0.00    -0.337 OA 
ENDBRANCH  18  21
ENDBRANCH   9  15
ENDBRANCH   5   8
TORSDOF 3
ENDMDL
MODEL       76
REMARK 921   NORMALIZED FREE ENERGY PREDICTED BY IDOCK:   -4.70 KCAL/MOL
REMARK 922        TOTAL FREE ENERGY PREDICTED BY IDOCK:   -6.39 KCAL/MOL
REMARK 923 INTER-LIGAND FREE ENERGY PREDICTED BY IDOCK:   -5.50 KCAL/MOL
REMARK 924 INTRA-LIGAND FREE ENERGY PREDICTED BY IDOCK:   -0.89 KCAL/MOL
REMARK 927      BINDING AFFINITY PREDICTED BY RF-SCORE:    0.00 PKD
ROOT
HETATM    1  C   UNL     1      -6.034  17.564  68.122  1.00  0.00    -0.157 C  
HETATM    2  C   UNL     1      -6.058  16.107  68.471  1.00  0.00    -0.112 A  
HETATM    3  N   UNL     1      -5.903  15.221  67.461  1.00  0.00    -0.333 NA 
HETATM    4  C   UNL     1      -6.113  13.908  67.742  1.00  0.00    -0.129 A  
HETATM    5  C   UNL     1      -6.548  13.422  68.971  1.00  0.00    -0.107 A  
HETATM    6  C   UNL     1      -6.276  15.703  69.780  1.00  0.00    -0.166 A  
HETATM    7  C   UNL     1      -6.530  14.355  70.020  1.00  0.00    -0.146 A  
ENDROOT
BRANCH   5   8
HETATM    8  C   UNL     1      -7.072  12.053  69.188  1.00  0.00    -0.032 A  
HETATM    9  C   UNL     1      -8.254  11.504  68.620  1.00  0.00    -0.124 A  
HETATM   10  C   UNL     1      -8.593  10.194  69.045  1.00  0.00    -0.156 A  
HETATM   11  N   UNL     1      -6.331  11.371  70.118  1.00  0.00    -0.163 NA 
HETATM   12  C   UNL     1      -7.831   9.507  69.980  1.00  0.00    -0.151 A  
HETATM   13  C   UNL     1      -6.725  10.135  70.497  1.00  0.00    -0.096 A  
HETATM   14 CL   UNL     1      -8.284   7.934  70.495  1.00  0.00    -0.116 Cl 
BRANCH   9  15
HETATM   15  C   UNL     1      -9.199  12.178  67.678  1.00  0.00    -0.181 A  
HETATM   16  C   UNL     1      -9.347  11.712  66.351  1.00  0.00    -0.224 A  
HETATM   17  C   UNL     1     -10.274  12.274  65.464  1.00  0.00    -0.296 A  
HETATM   18  C   UNL     1     -11.048  13.353  65.878  1.00  0.00    -0.280 A  
HETATM   19  C   UNL     1     -10.903  13.871  67.161  1.00  0.00    -0.288 A  
HETATM   20  C   UNL     1     -10.025  13.252  68.061  1.00  0.00    -0.233 A  
BRANCH  18  21
HETATM   21  S   UNL     1     -12.217  14.081  64.761  1.00  0.00    -0.426 S  
HETATM   22  C   UNL     1     -12.156  12.992  63.354  1.00  0.00    -0.515 C  
HETATM   23  O   UNL     1     -13.531  13.968  65.364  1.00  0.00    -0.679 OA 
HETATM   24  O   UNL     1     -11.688  15.368  64.351  1.00  0.00    -0.387 OA 
ENDBRANCH  18  21
ENDBRANCH   9  15
ENDBRANCH   5   8
TORSDOF 3
ENDMDL
MODEL       77
REMARK 921   NORMALIZED FREE ENERGY PREDICTED BY IDOCK:   -4.63 KCAL/MOL
REMARK 922        TOTAL FREE ENERGY PREDICTED BY IDOCK:   -6.30 KCAL/MOL
REMARK 923 INTER-LIGAND FREE ENERGY PREDICTED BY IDOCK:   -5.31 KCAL/MOL
REMARK 924 INTRA-LIGAND FREE ENERGY PREDICTED BY IDOCK:   -0.99 KCAL/MOL
REMARK 927      BINDING AFFINITY PREDICTED BY RF-SCORE:    0.00 PKD
ROOT
HETATM    1  C   UNL     1     -13.004  11.810  63.418  1.00  0.00    -0.177 C  
HETATM    2  C   UNL     1     -12.083  12.603  64.294  1.00  0.00    -0.426 A  
HETATM    3  N   UNL     1     -10.835  12.843  63.831  1.00  0.00    -0.397 NA 
HETATM    4  C   UNL     1      -9.942  13.393  64.695  1.00  0.00    -0.102 A  
HETATM    5  C   UNL     1     -10.197  13.655  66.037  1.00  0.00    -0.312 A  
HETATM    6  C   UNL     1     -12.499  13.027  65.546  1.00  0.00    -0.496 A  
HETATM    7  C   UNL     1     -11.545  13.546  66.418  1.00  0.00    -0.381 A  
ENDROOT
BRANCH   5   8
HETATM    8  C   UNL     1      -9.151  13.956  67.042  1.00  0.00    -0.250 A  
HETATM    9  C   UNL     1      -8.652  13.064  68.031  1.00  0.00    -0.186 A  
HETATM   10  C   UNL     1      -7.708  13.611  68.936  1.00  0.00     0.005 A  
HETATM   11  N   UNL     1      -8.770  15.272  66.995  1.00  0.00    -0.216 NA 
HETATM   12  C   UNL     1      -7.319  14.942  68.875  1.00  0.00    -0.136 A  
HETATM   13  C   UNL     1      -7.883  15.733  67.904  1.00  0.00    -0.139 A  
HETATM   14 CL   UNL     1      -6.195  15.580  70.003  1.00  0.00    -0.157 Cl 
BRANCH   9  15
HETATM   15  C   UNL     1      -9.061  11.642  68.251  1.00  0.00    -0.187 A  
HETATM   16  C   UNL     1      -8.207  10.581  67.868  1.00  0.00    -0.107 A  
HETATM   17  C   UNL     1      -8.526   9.242  68.123  1.00  0.00    -0.121 A  
HETATM   18  C   UNL     1      -9.736   8.931  68.734  1.00  0.00    -0.164 A  
HETATM   19  C   UNL     1     -10.624   9.943  69.089  1.00  0.00    -0.240 A  
HETATM   20  C   UNL     1     -10.260  11.281  68.893  1.00  0.00    -0.195 A  
BRANCH  18  21
HETATM   21  S   UNL     1     -10.157   7.238  69.053  1.00  0.00    -0.192 S  
HETATM   22  C   UNL     1     -10.800   6.686  67.488  1.00  0.00    -0.342 C  
HETATM   23  O   UNL     1      -8.924   6.521  69.314  1.00  0.00    -0.131 OA 
HETATM   24  O   UNL     1     -11.246   7.230  70.010  1.00  0.00    -0.263 OA 
ENDBRANCH  18  21
ENDBRANCH   9  15
ENDBRANCH   5   8
TORSDOF 3
ENDMDL
MODEL       78
REMARK 921   NORMALIZED FREE ENERGY PREDICTED BY IDOCK:   -4.55 KCAL/MOL
REMARK 922        TOTAL FREE ENERGY PREDICTED BY IDOCK:   -6.22 KCAL/MOL
REMARK 923 INTER-LIGAND FREE ENERGY PREDICTED BY IDOCK:   -5.35 KCAL/MOL
REMARK 924 INTRA-LIGAND FREE ENERGY PREDICTED BY IDOCK:   -0.86 KCAL/MOL
REMARK 927      BINDING AFFINITY PREDICTED BY RF-SCORE:    0.00 PKD
ROOT
HETATM    1  C   UNL     1     -11.477   6.821  72.018  1.00  0.00    -0.317 C  
HETATM    2  C   UNL     1     -10.968   7.116  70.639  1.00  0.00    -0.258 A  
HETATM    3  N   UNL     1     -11.503   6.415  69.614  1.00  0.00    -0.420 NA 
HETATM    4  C   UNL     1     -10.915   6.542  68.395  1.00  0.00    -0.281 A  
HETATM    5  C   UNL     1      -9.761   7.278  68.145  1.00  0.00    -0.155 A  
HETATM    6  C   UNL     1      -9.955   8.044  70.450  1.00  0.00    -0.188 A  
HETATM    7  C   UNL     1      -9.349   8.113  69.198  1.00  0.00    -0.151 A  
ENDROOT
BRANCH   5   8
HETATM    8  C   UNL     1      -8.952   7.167  66.910  1.00  0.00    -0.134 A  
HETATM    9  C   UNL     1      -8.680   8.213  65.985  1.00  0.00    -0.182 A  
HETATM   10  C   UNL     1      -7.947   7.841  64.829  1.00  0.00    -0.142 A  
HETATM   11  N   UNL     1      -8.562   5.874  66.675  1.00  0.00    -0.117 NA 
HETATM   12  C   UNL     1      -7.547   6.530  64.606  1.00  0.00    -0.100 A  
HETATM   13  C   UNL     1      -7.887   5.584  65.541  1.00  0.00    -0.099 A  
HETATM   14 CL   UNL     1      -6.685   6.108  63.183  1.00  0.00    -0.039 Cl 
BRANCH   9  15
HETATM   15  C   UNL     1      -9.134   9.635  66.073  1.00  0.00    -0.212 A  
HETATM   16  C   UNL     1      -8.411  10.574  66.845  1.00  0.00    -0.126 A  
HETATM   17  C   UNL     1      -8.766  11.928  66.893  1.00  0.00    -0.191 A  
HETATM   18  C   UNL     1      -9.888  12.366  66.197  1.00  0.00    -0.252 A  
HETATM   19  C   UNL     1     -10.652  11.466  65.459  1.00  0.00    -0.328 A  
HETATM   20  C   UNL     1     -10.243  10.130  65.362  1.00  0.00    -0.281 A  
BRANCH  18  21
HETATM   21  S   UNL     1     -10.354  14.075  66.259  1.00  0.00    -0.300 S  
HETATM   22  C   UNL     1     -12.046  14.007  66.808  1.00  0.00    -0.447 C  
HETATM   23  O   UNL     1      -9.566  14.709  67.298  1.00  0.00    -0.213 OA 
HETATM   24  O   UNL     1     -10.348  14.580  64.899  1.00  0.00    -0.417 OA 
ENDBRANCH  18  21
ENDBRANCH   9  15
ENDBRANCH   5   8
TORSDOF 3
ENDMDL
MODEL       79
REMARK 921   NORMALIZED FREE ENERGY PREDICTED BY IDOCK:   -4.55 KCAL/MOL
REMARK 922        TOTAL FREE ENERGY PREDICTED BY IDOCK:   -6.21 KCAL/MOL
REMARK 923 INTER-LIGAND FREE ENERGY PREDICTED BY IDOCK:   -5.36 KCAL/MOL
REMARK 924 INTRA-LIGAND FREE ENERGY PREDICTED BY IDOCK:   -0.85 KCAL/MOL
REMARK 927      BINDING AFFINITY PREDICTED BY RF-SCORE:    0.00 PKD
ROOT
HETATM    1  C   UNL     1      -8.380  19.106  66.687  1.00  0.00    -0.309 C  
HETATM    2  C   UNL     1      -7.756  17.928  67.373  1.00  0.00    -0.207 A  
HETATM    3  N   UNL     1      -6.892  17.175  66.655  1.00  0.00    -0.219 NA 
HETATM    4  C   UNL     1      -6.474  16.005  67.206  1.00  0.00    -0.165 A  
HETATM    5  C   UNL     1      -6.930  15.493  68.417  1.00  0.00    -0.115 A  
HETATM    6  C   UNL     1      -8.101  17.613  68.678  1.00  0.00    -0.269 A  
HETATM    7  C   UNL     1      -7.689  16.387  69.192  1.00  0.00    -0.220 A  
ENDROOT
BRANCH   5   8
HETATM    8  C   UNL     1      -6.720  14.097  68.865  1.00  0.00    -0.103 A  
HETATM    9  C   UNL     1      -7.471  12.960  68.458  1.00  0.00    -0.123 A  
HETATM   10  C   UNL     1      -7.133  11.737  69.091  1.00  0.00    -0.071 A  
HETATM   11  N   UNL     1      -5.758  14.018  69.839  1.00  0.00    -0.106 NA 
HETATM   12  C   UNL     1      -6.149  11.665  70.068  1.00  0.00    -0.158 A  
HETATM   13  C   UNL     1      -5.503  12.825  70.418  1.00  0.00    -0.149 A  
HETATM   14 CL   UNL     1      -5.784  10.174  70.835  1.00  0.00    -0.085 Cl 
BRANCH   9  15
HETATM   15  C   UNL     1      -8.607  12.931  67.486  1.00  0.00    -0.188 A  
HETATM   16  C   UNL     1      -9.705  13.810  67.638  1.00  0.00    -0.227 A  
HETATM   17  C   UNL     1     -10.751  13.859  66.708  1.00  0.00    -0.281 A  
HETATM   18  C   UNL     1     -10.741  12.992  65.620  1.00  0.00    -0.275 A  
HETATM   19  C   UNL     1      -9.701  12.082  65.457  1.00  0.00    -0.221 A  
HETATM   20  C   UNL     1      -8.625  12.094  66.354  1.00  0.00    -0.002 A  
BRANCH  18  21
HETATM   21  S   UNL     1     -12.065  13.037  64.442  1.00  0.00    -0.428 S  
HETATM   22  C   UNL     1     -12.352  14.780  64.230  1.00  0.00    -0.320 C  
HETATM   23  O   UNL     1     -11.560  12.506  63.191  1.00  0.00    -0.419 OA 
HETATM   24  O   UNL     1     -13.237  12.467  65.079  1.00  0.00    -0.700 OA 
ENDBRANCH  18  21
ENDBRANCH   9  15
ENDBRANCH   5   8
TORSDOF 3
ENDMDL
MODEL       80
REMARK 921   NORMALIZED FREE ENERGY PREDICTED BY IDOCK:   -4.54 KCAL/MOL
REMARK 922        TOTAL FREE ENERGY PREDICTED BY IDOCK:   -6.20 KCAL/MOL
REMARK 923 INTER-LIGAND FREE ENERGY PREDICTED BY IDOCK:   -5.71 KCAL/MOL
REMARK 924 INTRA-LIGAND FREE ENERGY PREDICTED BY IDOCK:   -0.49 KCAL/MOL
REMARK 927      BINDING AFFINITY PREDICTED BY RF-SCORE:    0.00 PKD
ROOT
HETATM    1  C   UNL     1     -12.900   8.894  72.302  1.00  0.00    -0.475 C  
HETATM    2  C   UNL     1     -11.883   9.053  71.212  1.00  0.00    -0.312 A  
HETATM    3  N   UNL     1     -12.032  10.100  70.369  1.00  0.00    -0.274 NA 
HETATM    4  C   UNL     1     -11.229  10.140  69.273  1.00  0.00    -0.196 A  
HETATM    5  C   UNL     1     -10.323   9.146  68.920  1.00  0.00    -0.232 A  
HETATM    6  C   UNL     1     -10.862   8.126  71.065  1.00  0.00    -0.265 A  
HETATM    7  C   UNL     1     -10.089   8.175  69.908  1.00  0.00    -0.195 A  
ENDROOT
BRANCH   5   8
HETATM    8  C   UNL     1      -9.684   9.034  67.588  1.00  0.00    -0.156 A  
HETATM    9  C   UNL     1      -9.385  10.108  66.705  1.00  0.00    -0.195 A  
HETATM   10  C   UNL     1      -8.847   9.741  65.445  1.00  0.00    -0.199 A  
HETATM   11  N   UNL     1      -9.497   7.726  67.225  1.00  0.00    -0.142 NA 
HETATM   12  C   UNL     1      -8.651   8.412  65.091  1.00  0.00    -0.132 A  
HETATM   13  C   UNL     1      -9.002   7.445  66.000  1.00  0.00    -0.121 A  
HETATM   14 CL   UNL     1      -8.023   8.001  63.548  1.00  0.00    -0.147 Cl 
BRANCH   9  15
HETATM   15  C   UNL     1      -9.634  11.564  66.939  1.00  0.00    -0.203 A  
HETATM   16  C   UNL     1     -10.775  12.195  66.392  1.00  0.00    -0.292 A  
HETATM   17  C   UNL     1     -11.076  13.539  66.649  1.00  0.00    -0.309 A  
HETATM   18  C   UNL     1     -10.211  14.296  67.432  1.00  0.00    -0.247 A  
HETATM   19  C   UNL     1      -9.055  13.724  67.955  1.00  0.00    -0.193 A  
HETATM   20  C   UNL     1      -8.804  12.362  67.749  1.00  0.00    -0.176 A  
BRANCH  18  21
HETATM   21  S   UNL     1     -10.576  16.000  67.756  1.00  0.00    -0.315 S  
HETATM   22  C   UNL     1      -9.207  16.515  68.771  1.00  0.00    -0.252 C  
HETATM   23  O   UNL     1     -10.498  16.714  66.497  1.00  0.00    -0.302 OA 
HETATM   24  O   UNL     1     -11.775  16.044  68.571  1.00  0.00    -0.375 OA 
ENDBRANCH  18  21
ENDBRANCH   9  15
ENDBRANCH   5   8
TORSDOF 3
ENDMDL
MODEL       81
REMARK 921   NORMALIZED FREE ENERGY PREDICTED BY IDOCK:   -4.51 KCAL/MOL
REMARK 922        TOTAL FREE ENERGY PREDICTED BY IDOCK:   -6.16 KCAL/MOL
REMARK 923 INTER-LIGAND FREE ENERGY PREDICTED BY IDOCK:   -5.18 KCAL/MOL
REMARK 924 INTRA-LIGAND FREE ENERGY PREDICTED BY IDOCK:   -0.98 KCAL/MOL
REMARK 927      BINDING AFFINITY PREDICTED BY RF-SCORE:    0.00 PKD
ROOT
HETATM    1  C   UNL     1      -9.177   5.527  74.191  1.00  0.00    -0.126 C  
HETATM    2  C   UNL     1      -9.452   6.183  72.872  1.00  0.00    -0.150 A  
HETATM    3  N   UNL     1      -8.479   6.963  72.348  1.00  0.00    -0.115 NA 
HETATM    4  C   UNL     1      -8.794   7.707  71.255  1.00  0.00    -0.133 A  
HETATM    5  C   UNL     1     -10.060   7.780  70.685  1.00  0.00    -0.191 A  
HETATM    6  C   UNL     1     -10.681   6.020  72.251  1.00  0.00    -0.272 A  
HETATM    7  C   UNL     1     -10.981   6.830  71.159  1.00  0.00    -0.298 A  
ENDROOT
BRANCH   5   8
HETATM    8  C   UNL     1     -10.477   8.810  69.706  1.00  0.00    -0.219 A  
HETATM    9  C   UNL     1     -10.514   8.662  68.292  1.00  0.00    -0.234 A  
HETATM   10  C   UNL     1     -10.870   9.821  67.558  1.00  0.00    -0.286 A  
HETATM   11  N   UNL     1     -10.730  10.012  70.314  1.00  0.00    -0.294 NA 
HETATM   12  C   UNL     1     -11.136  11.032  68.184  1.00  0.00    -0.270 A  
HETATM   13  C   UNL     1     -11.040  11.084  69.553  1.00  0.00    -0.263 A  
HETATM   14 CL   UNL     1     -11.536  12.424  67.264  1.00  0.00    -0.418 Cl 
BRANCH   9  15
HETATM   15  C   UNL     1     -10.163   7.440  67.504  1.00  0.00    -0.289 A  
HETATM   16  C   UNL     1      -8.811   7.113  67.249  1.00  0.00    -0.120 A  
HETATM   17  C   UNL     1      -8.444   5.941  66.577  1.00  0.00    -0.113 A  
HETATM   18  C   UNL     1      -9.433   5.085  66.104  1.00  0.00    -0.160 A  
HETATM   19  C   UNL     1     -10.777   5.391  66.296  1.00  0.00    -0.234 A  
HETATM   20  C   UNL     1     -11.128   6.529  67.034  1.00  0.00    -0.411 A  
BRANCH  18  21
HETATM   21  S   UNL     1      -8.981   3.603  65.241  1.00  0.00    -0.142 S  
HETATM   22  C   UNL     1     -10.306   3.404  64.070  1.00  0.00    -0.220 C  
HETATM   23  O   UNL     1      -7.763   3.877  64.504  1.00  0.00    -0.079 OA 
HETATM   24  O   UNL     1      -9.054   2.507  66.187  1.00  0.00    -0.143 OA 
ENDBRANCH  18  21
ENDBRANCH   9  15
ENDBRANCH   5   8
TORSDOF 3
ENDMDL
MODEL       82
REMARK 921   NORMALIZED FREE ENERGY PREDICTED BY IDOCK:   -4.50 KCAL/MOL
REMARK 922        TOTAL FREE ENERGY PREDICTED BY IDOCK:   -6.15 KCAL/MOL
REMARK 923 INTER-LIGAND FREE ENERGY PREDICTED BY IDOCK:   -5.26 KCAL/MOL
REMARK 924 INTRA-LIGAND FREE ENERGY PREDICTED BY IDOCK:   -0.89 KCAL/MOL
REMARK 927      BINDING AFFINITY PREDICTED BY RF-SCORE:    0.00 PKD
ROOT
HETATM    1  C   UNL     1     -11.254   5.909  72.593  1.00  0.00    -0.335 C  
HETATM    2  C   UNL     1     -10.905   6.608  71.313  1.00  0.00    -0.238 A  
HETATM    3  N   UNL     1     -11.660   6.331  70.226  1.00  0.00    -0.374 NA 
HETATM    4  C   UNL     1     -11.233   6.812  69.029  1.00  0.00    -0.149 A  
HETATM    5  C   UNL     1     -10.040   7.500  68.832  1.00  0.00    -0.195 A  
HETATM    6  C   UNL     1      -9.818   7.466  71.258  1.00  0.00    -0.182 A  
HETATM    7  C   UNL     1      -9.386   7.903  70.008  1.00  0.00    -0.157 A  
ENDROOT
BRANCH   5   8
HETATM    8  C   UNL     1      -9.429   7.748  67.506  1.00  0.00    -0.141 A  
HETATM    9  C   UNL     1      -9.329   9.003  66.846  1.00  0.00    -0.203 A  
HETATM   10  C   UNL     1      -8.774   8.973  65.541  1.00  0.00    -0.212 A  
HETATM   11  N   UNL     1      -9.047   6.579  66.900  1.00  0.00    -0.133 NA 
HETATM   12  C   UNL     1      -8.380   7.785  64.940  1.00  0.00    -0.063 A  
HETATM   13  C   UNL     1      -8.547   6.619  65.646  1.00  0.00    -0.123 A  
HETATM   14 CL   UNL     1      -7.737   7.780  63.349  1.00  0.00    -0.130 Cl 
BRANCH   9  15
HETATM   15  C   UNL     1      -9.800  10.329  67.353  1.00  0.00    -0.214 A  
HETATM   16  C   UNL     1     -11.164  10.536  67.666  1.00  0.00    -0.338 A  
HETATM   17  C   UNL     1     -11.626  11.741  68.210  1.00  0.00    -0.373 A  
HETATM   18  C   UNL     1     -10.733  12.787  68.414  1.00  0.00    -0.250 A  
HETATM   19  C   UNL     1      -9.390  12.640  68.079  1.00  0.00    -0.209 A  
HETATM   20  C   UNL     1      -8.928  11.405  67.605  1.00  0.00    -0.140 A  
BRANCH  18  21
HETATM   21  S   UNL     1     -11.309  14.321  69.091  1.00  0.00    -0.292 S  
HETATM   22  C   UNL     1      -9.798  15.192  69.447  1.00  0.00    -0.212 C  
HETATM   23  O   UNL     1     -12.004  15.034  68.037  1.00  0.00    -0.296 OA 
HETATM   24  O   UNL     1     -11.960  14.025  70.352  1.00  0.00    -0.305 OA 
ENDBRANCH  18  21
ENDBRANCH   9  15
ENDBRANCH   5   8
TORSDOF 3
ENDMDL
MODEL       83
REMARK 921   NORMALIZED FREE ENERGY PREDICTED BY IDOCK:   -4.43 KCAL/MOL
REMARK 922        TOTAL FREE ENERGY PREDICTED BY IDOCK:   -6.07 KCAL/MOL
REMARK 923 INTER-LIGAND FREE ENERGY PREDICTED BY IDOCK:   -5.01 KCAL/MOL
REMARK 924 INTRA-LIGAND FREE ENERGY PREDICTED BY IDOCK:   -1.06 KCAL/MOL
REMARK 927      BINDING AFFINITY PREDICTED BY RF-SCORE:    0.00 PKD
ROOT
HETATM    1  C   UNL     1     -11.222   7.613  72.938  1.00  0.00    -0.426 C  
HETATM    2  C   UNL     1     -10.857   6.880  71.682  1.00  0.00    -0.226 A  
HETATM    3  N   UNL     1      -9.641   6.290  71.636  1.00  0.00    -0.155 NA 
HETATM    4  C   UNL     1      -9.232   5.791  70.440  1.00  0.00    -0.153 A  
HETATM    5  C   UNL     1      -9.940   5.913  69.248  1.00  0.00    -0.224 A  
HETATM    6  C   UNL     1     -11.728   6.859  70.604  1.00  0.00    -0.417 A  
HETATM    7  C   UNL     1     -11.258   6.380  69.385  1.00  0.00    -0.459 A  
ENDROOT
BRANCH   5   8
HETATM    8  C   UNL     1      -9.366   5.655  67.907  1.00  0.00    -0.107 A  
HETATM    9  C   UNL     1      -8.992   6.635  66.948  1.00  0.00    -0.131 A  
HETATM   10  C   UNL     1      -8.542   6.138  65.699  1.00  0.00    -0.148 A  
HETATM   11  N   UNL     1      -9.331   4.314  67.623  1.00  0.00    -0.150 NA 
HETATM   12  C   UNL     1      -8.500   4.778  65.424  1.00  0.00    -0.129 A  
HETATM   13  C   UNL     1      -8.915   3.909  66.403  1.00  0.00    -0.133 A  
HETATM   14 CL   UNL     1      -7.977   4.210  63.892  1.00  0.00    -0.087 Cl 
BRANCH   9  15
HETATM   15  C   UNL     1      -9.079   8.121  67.097  1.00  0.00    -0.163 A  
HETATM   16  C   UNL     1     -10.105   8.849  66.452  1.00  0.00    -0.333 A  
HETATM   17  C   UNL     1     -10.259  10.230  66.626  1.00  0.00    -0.294 A  
HETATM   18  C   UNL     1      -9.354  10.924  67.422  1.00  0.00    -0.155 A  
HETATM   19  C   UNL     1      -8.303  10.252  68.041  1.00  0.00    -0.114 A  
HETATM   20  C   UNL     1      -8.205   8.861  67.916  1.00  0.00    -0.110 A  
BRANCH  18  21
HETATM   21  S   UNL     1      -9.531  12.675  67.642  1.00  0.00    -0.196 S  
HETATM   22  C   UNL     1     -11.009  12.806  68.625  1.00  0.00    -0.260 C  
HETATM   23  O   UNL     1      -8.413  13.133  68.443  1.00  0.00    -0.168 OA 
HETATM   24  O   UNL     1      -9.808  13.253  66.341  1.00  0.00    -0.269 OA 
ENDBRANCH  18  21
ENDBRANCH   9  15
ENDBRANCH   5   8
TORSDOF 3
ENDMDL
MODEL       84
REMARK 921   NORMALIZED FREE ENERGY PREDICTED BY IDOCK:   -4.41 KCAL/MOL
REMARK 922        TOTAL FREE ENERGY PREDICTED BY IDOCK:   -6.04 KCAL/MOL
REMARK 923 INTER-LIGAND FREE ENERGY PREDICTED BY IDOCK:   -5.15 KCAL/MOL
REMARK 924 INTRA-LIGAND FREE ENERGY PREDICTED BY IDOCK:   -0.89 KCAL/MOL
REMARK 927      BINDING AFFINITY PREDICTED BY RF-SCORE:    0.00 PKD
ROOT
HETATM    1  C   UNL     1      -6.726   3.561  67.703  1.00  0.00    -0.042 C  
HETATM    2  C   UNL     1      -7.109   4.776  66.913  1.00  0.00    -0.075 A  
HETATM    3  N   UNL     1      -6.447   5.925  67.176  1.00  0.00    -0.045 NA 
HETATM    4  C   UNL     1      -6.917   7.064  66.602  1.00  0.00    -0.073 A  
HETATM    5  C   UNL     1      -8.070   7.143  65.829  1.00  0.00    -0.130 A  
HETATM    6  C   UNL     1      -8.137   4.713  65.984  1.00  0.00    -0.103 A  
HETATM    7  C   UNL     1      -8.619   5.906  65.452  1.00  0.00    -0.138 A  
ENDROOT
BRANCH   5   8
HETATM    8  C   UNL     1      -8.749   8.409  65.469  1.00  0.00    -0.162 A  
HETATM    9  C   UNL     1      -9.643   9.149  66.292  1.00  0.00    -0.321 A  
HETATM   10  C   UNL     1     -10.232  10.291  65.693  1.00  0.00    -0.301 A  
HETATM   11  N   UNL     1      -8.506   8.760  64.166  1.00  0.00    -0.147 NA 
HETATM   12  C   UNL     1      -9.972  10.644  64.375  1.00  0.00    -0.350 A  
HETATM   13  C   UNL     1      -9.121   9.847  63.651  1.00  0.00    -0.259 A  
HETATM   14 CL   UNL     1     -10.724  12.017  63.671  1.00  0.00    -0.453 Cl 
BRANCH   9  15
HETATM   15  C   UNL     1     -10.068   8.818  67.687  1.00  0.00    -0.273 A  
HETATM   16  C   UNL     1     -10.642   7.560  67.984  1.00  0.00    -0.217 A  
HETATM   17  C   UNL     1     -10.985   7.190  69.291  1.00  0.00    -0.163 A  
HETATM   18  C   UNL     1     -10.799   8.096  70.329  1.00  0.00    -0.244 A  
HETATM   19  C   UNL     1     -10.277   9.361  70.074  1.00  0.00    -0.262 A  
HETATM   20  C   UNL     1      -9.871   9.690  68.774  1.00  0.00    -0.173 A  
BRANCH  18  21
HETATM   21  S   UNL     1     -11.241   7.644  71.986  1.00  0.00    -0.289 S  
HETATM   22  C   UNL     1     -12.503   8.829  72.400  1.00  0.00    -0.352 C  
HETATM   23  O   UNL     1     -11.853   6.331  71.935  1.00  0.00    -0.319 OA 
HETATM   24  O   UNL     1     -10.092   7.904  72.832  1.00  0.00    -0.263 OA 
ENDBRANCH  18  21
ENDBRANCH   9  15
ENDBRANCH   5   8
TORSDOF 3
ENDMDL
MODEL       85
REMARK 921   NORMALIZED FREE ENERGY PREDICTED BY IDOCK:   -4.35 KCAL/MOL
REMARK 922        TOTAL FREE ENERGY PREDICTED BY IDOCK:   -5.98 KCAL/MOL
REMARK 923 INTER-LIGAND FREE ENERGY PREDICTED BY IDOCK:   -5.03 KCAL/MOL
REMARK 924 INTRA-LIGAND FREE ENERGY PREDICTED BY IDOCK:   -0.95 KCAL/MOL
REMARK 927      BINDING AFFINITY PREDICTED BY RF-SCORE:    0.00 PKD
ROOT
HETATM    1  C   UNL     1      -5.720  12.653  70.238  1.00  0.00    -0.164 C  
HETATM    2  C   UNL     1      -6.071  11.295  69.709  1.00  0.00    -0.112 A  
HETATM    3  N   UNL     1      -5.757  11.028  68.421  1.00  0.00    -0.043 NA 
HETATM    4  C   UNL     1      -6.240   9.876  67.885  1.00  0.00    -0.051 A  
HETATM    5  C   UNL     1      -7.095   8.996  68.541  1.00  0.00    -0.072 A  
HETATM    6  C   UNL     1      -6.733  10.380  70.512  1.00  0.00    -0.039 A  
HETATM    7  C   UNL     1      -7.251   9.233  69.917  1.00  0.00    -0.071 A  
ENDROOT
BRANCH   5   8
HETATM    8  C   UNL     1      -7.863   7.922  67.869  1.00  0.00    -0.127 A  
HETATM    9  C   UNL     1      -8.963   8.100  66.985  1.00  0.00    -0.160 A  
HETATM   10  C   UNL     1      -9.590   6.912  66.532  1.00  0.00    -0.197 A  
HETATM   11  N   UNL     1      -7.462   6.679  68.284  1.00  0.00    -0.093 NA 
HETATM   12  C   UNL     1      -9.170   5.656  66.950  1.00  0.00    -0.120 A  
HETATM   13  C   UNL     1      -8.119   5.589  67.831  1.00  0.00    -0.100 A  
HETATM   14 CL   UNL     1      -9.968   4.239  66.404  1.00  0.00    -0.241 Cl 
BRANCH   9  15
HETATM   15  C   UNL     1      -9.559   9.396  66.538  1.00  0.00    -0.267 A  
HETATM   16  C   UNL     1     -10.288  10.203  67.443  1.00  0.00    -0.289 A  
HETATM   17  C   UNL     1     -10.799  11.455  67.077  1.00  0.00    -0.331 A  
HETATM   18  C   UNL     1     -10.627  11.910  65.774  1.00  0.00    -0.267 A  
HETATM   19  C   UNL     1      -9.953  11.128  64.841  1.00  0.00    -0.331 A  
HETATM   20  C   UNL     1      -9.385   9.911  65.239  1.00  0.00    -0.309 A  
BRANCH  18  21
HETATM   21  S   UNL     1     -11.279  13.488  65.296  1.00  0.00    -0.300 S  
HETATM   22  C   UNL     1     -11.913  13.179  63.662  1.00  0.00    -0.514 C  
HETATM   23  O   UNL     1     -12.399  13.783  66.168  1.00  0.00    -0.445 OA 
HETATM   24  O   UNL     1     -10.162  14.404  65.174  1.00  0.00    -0.383 OA 
ENDBRANCH  18  21
ENDBRANCH   9  15
ENDBRANCH   5   8
TORSDOF 3
ENDMDL
MODEL       86
REMARK 921   NORMALIZED FREE ENERGY PREDICTED BY IDOCK:   -4.32 KCAL/MOL
REMARK 922        TOTAL FREE ENERGY PREDICTED BY IDOCK:   -5.95 KCAL/MOL
REMARK 923 INTER-LIGAND FREE ENERGY PREDICTED BY IDOCK:   -5.16 KCAL/MOL
REMARK 924 INTRA-LIGAND FREE ENERGY PREDICTED BY IDOCK:   -0.79 KCAL/MOL
REMARK 927      BINDING AFFINITY PREDICTED BY RF-SCORE:    0.00 PKD
ROOT
HETATM    1  C   UNL     1      -5.867  10.291  68.481  1.00  0.00    -0.040 C  
HETATM    2  C   UNL     1      -5.714  11.752  68.777  1.00  0.00    -0.049 A  
HETATM    3  N   UNL     1      -6.165  12.198  69.971  1.00  0.00    -0.133 NA 
HETATM    4  C   UNL     1      -6.202  13.543  70.164  1.00  0.00    -0.077 A  
HETATM    5  C   UNL     1      -5.881  14.490  69.197  1.00  0.00    -0.092 A  
HETATM    6  C   UNL     1      -5.168  12.605  67.829  1.00  0.00    -0.105 A  
HETATM    7  C   UNL     1      -5.263  13.977  68.044  1.00  0.00    -0.098 A  
ENDROOT
BRANCH   5   8
HETATM    8  C   UNL     1      -6.214  15.930  69.297  1.00  0.00    -0.146 A  
HETATM    9  C   UNL     1      -7.280  16.596  68.633  1.00  0.00    -0.192 A  
HETATM   10  C   UNL     1      -7.345  18.000  68.822  1.00  0.00    -0.279 A  
HETATM   11  N   UNL     1      -5.286  16.612  70.041  1.00  0.00    -0.174 NA 
HETATM   12  C   UNL     1      -6.407  18.681  69.587  1.00  0.00    -0.216 A  
HETATM   13  C   UNL     1      -5.394  17.953  70.161  1.00  0.00    -0.236 A  
HETATM   14 CL   UNL     1      -6.499  20.384  69.774  1.00  0.00    -0.270 Cl 
BRANCH   9  15
HETATM   15  C   UNL     1      -8.292  15.987  67.716  1.00  0.00    -0.159 A  
HETATM   16  C   UNL     1      -8.701  16.664  66.544  1.00  0.00    -0.317 A  
HETATM   17  C   UNL     1      -9.593  16.092  65.628  1.00  0.00    -0.226 A  
HETATM   18  C   UNL     1     -10.131  14.836  65.890  1.00  0.00    -0.321 A  
HETATM   19  C   UNL     1      -9.787  14.154  67.053  1.00  0.00    -0.258 A  
HETATM   20  C   UNL     1      -8.839  14.706  67.924  1.00  0.00    -0.170 A  
BRANCH  18  21
HETATM   21  S   UNL     1     -11.269  14.106  64.743  1.00  0.00    -0.378 S  
HETATM   22  C   UNL     1     -12.201  12.985  65.764  1.00  0.00    -0.453 C  
HETATM   23  O   UNL     1     -12.164  15.151  64.286  1.00  0.00    -0.536 OA 
HETATM   24  O   UNL     1     -10.497  13.316  63.804  1.00  0.00    -0.232 OA 
ENDBRANCH  18  21
ENDBRANCH   9  15
ENDBRANCH   5   8
TORSDOF 3
ENDMDL
MODEL       87
REMARK 921   NORMALIZED FREE ENERGY PREDICTED BY IDOCK:   -4.32 KCAL/MOL
REMARK 922        TOTAL FREE ENERGY PREDICTED BY IDOCK:   -5.94 KCAL/MOL
REMARK 923 INTER-LIGAND FREE ENERGY PREDICTED BY IDOCK:   -5.02 KCAL/MOL
REMARK 924 INTRA-LIGAND FREE ENERGY PREDICTED BY IDOCK:   -0.92 KCAL/MOL
REMARK 927      BINDING AFFINITY PREDICTED BY RF-SCORE:    0.00 PKD
ROOT
HETATM    1  C   UNL     1     -12.891  11.923  63.512  1.00  0.00    -0.435 C  
HETATM    2  C   UNL     1     -12.118  12.758  64.487  1.00  0.00    -0.414 A  
HETATM    3  N   UNL     1     -11.186  13.600  63.986  1.00  0.00    -0.256 NA 
HETATM    4  C   UNL     1     -10.356  14.213  64.870  1.00  0.00    -0.408 A  
HETATM    5  C   UNL     1     -10.348  13.979  66.241  1.00  0.00    -0.294 A  
HETATM    6  C   UNL     1     -12.334  12.624  65.850  1.00  0.00    -0.247 A  
HETATM    7  C   UNL     1     -11.437  13.233  66.723  1.00  0.00    -0.387 A  
ENDROOT
BRANCH   5   8
HETATM    8  C   UNL     1      -9.260  14.400  67.153  1.00  0.00    -0.222 A  
HETATM    9  C   UNL     1      -8.459  13.544  67.959  1.00  0.00    -0.176 A  
HETATM   10  C   UNL     1      -7.532  14.191  68.815  1.00  0.00    -0.129 A  
HETATM   11  N   UNL     1      -9.166  15.765  67.232  1.00  0.00    -0.204 NA 
HETATM   12  C   UNL     1      -7.436  15.575  68.880  1.00  0.00    -0.158 A  
HETATM   13  C   UNL     1      -8.277  16.317  68.087  1.00  0.00    -0.163 A  
HETATM   14 CL   UNL     1      -6.324  16.327  69.948  1.00  0.00    -0.176 Cl 
BRANCH   9  15
HETATM   15  C   UNL     1      -8.533  12.053  68.041  1.00  0.00    -0.168 A  
HETATM   16  C   UNL     1      -9.419  11.426  68.948  1.00  0.00    -0.064 A  
HETATM   17  C   UNL     1      -9.566  10.034  69.001  1.00  0.00    -0.200 A  
HETATM   18  C   UNL     1      -8.791   9.232  68.170  1.00  0.00    -0.129 A  
HETATM   19  C   UNL     1      -7.875   9.807  67.294  1.00  0.00    -0.098 A  
HETATM   20  C   UNL     1      -7.791  11.202  67.199  1.00  0.00    -0.139 A  
BRANCH  18  21
HETATM   21  S   UNL     1      -8.959   7.469  68.237  1.00  0.00    -0.129 S  
HETATM   22  C   UNL     1      -8.495   7.086  69.912  1.00  0.00    -0.140 C  
HETATM   23  O   UNL     1     -10.365   7.155  68.074  1.00  0.00    -0.176 OA 
HETATM   24  O   UNL     1      -7.958   6.900  67.356  1.00  0.00    -0.109 OA 
ENDBRANCH  18  21
ENDBRANCH   9  15
ENDBRANCH   5   8
TORSDOF 3
ENDMDL
MODEL       88
REMARK 921   NORMALIZED FREE ENERGY PREDICTED BY IDOCK:   -4.32 KCAL/MOL
REMARK 922        TOTAL FREE ENERGY PREDICTED BY IDOCK:   -5.94 KCAL/MOL
REMARK 923 INTER-LIGAND FREE ENERGY PREDICTED BY IDOCK:   -4.97 KCAL/MOL
REMARK 924 INTRA-LIGAND FREE ENERGY PREDICTED BY IDOCK:   -0.97 KCAL/MOL
REMARK 927      BINDING AFFINITY PREDICTED BY RF-SCORE:    0.00 PKD
ROOT
HETATM    1  C   UNL     1      -9.550   8.434  72.497  1.00  0.00    -0.358 C  
HETATM    2  C   UNL     1      -9.327   8.502  71.016  1.00  0.00    -0.185 A  
HETATM    3  N   UNL     1      -8.207   9.123  70.582  1.00  0.00    -0.175 NA 
HETATM    4  C   UNL     1      -8.097   9.353  69.247  1.00  0.00    -0.105 A  
HETATM    5  C   UNL     1      -9.083   9.064  68.310  1.00  0.00    -0.133 A  
HETATM    6  C   UNL     1     -10.268   7.980  70.142  1.00  0.00    -0.203 A  
HETATM    7  C   UNL     1     -10.143   8.274  68.787  1.00  0.00    -0.212 A  
ENDROOT
BRANCH   5   8
HETATM    8  C   UNL     1      -9.098   9.589  66.925  1.00  0.00    -0.135 A  
HETATM    9  C   UNL     1      -9.527  10.883  66.520  1.00  0.00    -0.210 A  
HETATM   10  C   UNL     1      -9.526  11.125  65.122  1.00  0.00    -0.257 A  
HETATM   11  N   UNL     1      -8.744   8.626  66.016  1.00  0.00    -0.159 NA 
HETATM   12  C   UNL     1      -9.156  10.146  64.209  1.00  0.00    -0.250 A  
HETATM   13  C   UNL     1      -8.789   8.916  64.697  1.00  0.00    -0.055 A  
HETATM   14 CL   UNL     1      -9.192  10.462  62.523  1.00  0.00    -0.288 Cl 
BRANCH   9  15
HETATM   15  C   UNL     1     -10.032  11.982  67.399  1.00  0.00    -0.200 A  
HETATM   16  C   UNL     1     -11.210  11.809  68.162  1.00  0.00    -0.320 A  
HETATM   17  C   UNL     1     -11.671  12.790  69.049  1.00  0.00    -0.371 A  
HETATM   18  C   UNL     1     -10.980  13.992  69.159  1.00  0.00    -0.230 A  
HETATM   19  C   UNL     1      -9.840  14.220  68.394  1.00  0.00    -0.233 A  
HETATM   20  C   UNL     1      -9.350  13.203  67.566  1.00  0.00    -0.207 A  
BRANCH  18  21
HETATM   21  S   UNL     1     -11.561  15.246  70.270  1.00  0.00    -0.333 S  
HETATM   22  C   UNL     1     -12.875  14.426  71.146  1.00  0.00    -0.347 C  
HETATM   23  O   UNL     1     -10.495  15.527  71.213  1.00  0.00     0.086 OA 
HETATM   24  O   UNL     1     -12.151  16.302  69.470  1.00  0.00    -0.095 OA 
ENDBRANCH  18  21
ENDBRANCH   9  15
ENDBRANCH   5   8
TORSDOF 3
ENDMDL
MODEL       89
REMARK 921   NORMALIZED FREE ENERGY PREDICTED BY IDOCK:   -4.32 KCAL/MOL
REMARK 922        TOTAL FREE ENERGY PREDICTED BY IDOCK:   -5.94 KCAL/MOL
REMARK 923 INTER-LIGAND FREE ENERGY PREDICTED BY IDOCK:   -5.28 KCAL/MOL
REMARK 924 INTRA-LIGAND FREE ENERGY PREDICTED BY IDOCK:   -0.66 KCAL/MOL
REMARK 927      BINDING AFFINITY PREDICTED BY RF-SCORE:    0.00 PKD
ROOT
HETATM    1  C   UNL     1      -8.093   5.408  63.840  1.00  0.00    -0.119 C  
HETATM    2  C   UNL     1      -8.385   5.147  65.287  1.00  0.00    -0.139 A  
HETATM    3  N   UNL     1      -9.509   4.457  65.582  1.00  0.00    -0.162 NA 
HETATM    4  C   UNL     1      -9.875   4.383  66.889  1.00  0.00    -0.207 A  
HETATM    5  C   UNL     1      -9.218   5.029  67.931  1.00  0.00    -0.135 A  
HETATM    6  C   UNL     1      -7.543   5.641  66.272  1.00  0.00    -0.091 A  
HETATM    7  C   UNL     1      -7.973   5.586  67.595  1.00  0.00    -0.101 A  
ENDROOT
BRANCH   5   8
HETATM    8  C   UNL     1      -9.782   5.207  69.289  1.00  0.00    -0.172 A  
HETATM    9  C   UNL     1     -10.327   6.407  69.824  1.00  0.00    -0.246 A  
HETATM   10  C   UNL     1     -10.730   6.351  71.182  1.00  0.00    -0.293 A  
HETATM   11  N   UNL     1      -9.620   4.081  70.055  1.00  0.00    -0.195 NA 
HETATM   12  C   UNL     1     -10.573   5.202  71.947  1.00  0.00    -0.188 A  
HETATM   13  C   UNL     1     -10.004   4.104  71.350  1.00  0.00    -0.153 A  
HETATM   14 CL   UNL     1     -11.045   5.176  73.596  1.00  0.00    -0.356 Cl 
BRANCH   9  15
HETATM   15  C   UNL     1     -10.462   7.724  69.129  1.00  0.00    -0.219 A  
HETATM   16  C   UNL     1     -10.347   8.934  69.852  1.00  0.00    -0.215 A  
HETATM   17  C   UNL     1     -10.397  10.184  69.222  1.00  0.00    -0.242 A  
HETATM   18  C   UNL     1     -10.610  10.250  67.849  1.00  0.00    -0.239 A  
HETATM   19  C   UNL     1     -10.771   9.084  67.106  1.00  0.00    -0.206 A  
HETATM   20  C   UNL     1     -10.646   7.839  67.738  1.00  0.00    -0.254 A  
BRANCH  18  21
HETATM   21  S   UNL     1     -10.687  11.826  67.041  1.00  0.00    -0.259 S  
HETATM   22  C   UNL     1     -10.522  12.974  68.391  1.00  0.00    -0.252 C  
HETATM   23  O   UNL     1      -9.513  11.947  66.199  1.00  0.00    -0.225 OA 
HETATM   24  O   UNL     1     -12.022  11.972  66.494  1.00  0.00    -0.616 OA 
ENDBRANCH  18  21
ENDBRANCH   9  15
ENDBRANCH   5   8
TORSDOF 3
ENDMDL
MODEL       90
REMARK 921   NORMALIZED FREE ENERGY PREDICTED BY IDOCK:   -4.28 KCAL/MOL
REMARK 922        TOTAL FREE ENERGY PREDICTED BY IDOCK:   -5.90 KCAL/MOL
REMARK 923 INTER-LIGAND FREE ENERGY PREDICTED BY IDOCK:   -4.97 KCAL/MOL
REMARK 924 INTRA-LIGAND FREE ENERGY PREDICTED BY IDOCK:   -0.93 KCAL/MOL
REMARK 927      BINDING AFFINITY PREDICTED BY RF-SCORE:    0.00 PKD
ROOT
HETATM    1  C   UNL     1      -9.812   8.066  72.717  1.00  0.00    -0.351 C  
HETATM    2  C   UNL     1      -9.635   7.054  71.625  1.00  0.00    -0.156 A  
HETATM    3  N   UNL     1      -8.380   6.842  71.170  1.00  0.00    -0.123 NA 
HETATM    4  C   UNL     1      -8.239   6.072  70.058  1.00  0.00    -0.122 A  
HETATM    5  C   UNL     1      -9.295   5.552  69.317  1.00  0.00    -0.153 A  
HETATM    6  C   UNL     1     -10.735   6.404  71.087  1.00  0.00    -0.293 A  
HETATM    7  C   UNL     1     -10.557   5.659  69.924  1.00  0.00    -0.399 A  
ENDROOT
BRANCH   5   8
HETATM    8  C   UNL     1      -9.159   4.987  67.955  1.00  0.00    -0.114 A  
HETATM    9  C   UNL     1      -9.229   5.710  66.732  1.00  0.00    -0.130 A  
HETATM   10  C   UNL     1      -9.153   4.933  65.549  1.00  0.00    -0.153 A  
HETATM   11  N   UNL     1      -9.063   3.620  67.982  1.00  0.00    -0.138 NA 
HETATM   12  C   UNL     1      -9.045   3.549  65.586  1.00  0.00    -0.149 A  
HETATM   13  C   UNL     1      -9.018   2.938  66.816  1.00  0.00    -0.158 A  
HETATM   14 CL   UNL     1      -8.982   2.635  64.136  1.00  0.00    -0.104 Cl 
BRANCH   9  15
HETATM   15  C   UNL     1      -9.434   7.182  66.566  1.00  0.00    -0.208 A  
HETATM   16  C   UNL     1      -8.506   7.959  65.835  1.00  0.00    -0.147 A  
HETATM   17  C   UNL     1      -8.704   9.326  65.599  1.00  0.00    -0.193 A  
HETATM   18  C   UNL     1      -9.822   9.957  66.133  1.00  0.00    -0.260 A  
HETATM   19  C   UNL     1     -10.738   9.238  66.895  1.00  0.00    -0.164 A  
HETATM   20  C   UNL     1     -10.566   7.858  67.061  1.00  0.00    -0.381 A  
BRANCH  18  21
HETATM   21  S   UNL     1     -10.077  11.689  65.851  1.00  0.00    -0.240 S  
HETATM   22  C   UNL     1     -10.010  11.819  64.077  1.00  0.00    -0.293 C  
HETATM   23  O   UNL     1     -11.426  12.010  66.277  1.00  0.00    -0.347 OA 
HETATM   24  O   UNL     1      -8.932  12.394  66.394  1.00  0.00    -0.192 OA 
ENDBRANCH  18  21
ENDBRANCH   9  15
ENDBRANCH   5   8
TORSDOF 3
ENDMDL
MODEL       91
REMARK 921   NORMALIZED FREE ENERGY PREDICTED BY IDOCK:   -4.23 KCAL/MOL
REMARK 922        TOTAL FREE ENERGY PREDICTED BY IDOCK:   -5.84 KCAL/MOL
REMARK 923 INTER-LIGAND FREE ENERGY PREDICTED BY IDOCK:   -4.97 KCAL/MOL
REMARK 924 INTRA-LIGAND FREE ENERGY PREDICTED BY IDOCK:   -0.87 KCAL/MOL
REMARK 927      BINDING AFFINITY PREDICTED BY RF-SCORE:    0.00 PKD
ROOT
HETATM    1  C   UNL     1      -5.597  12.105  70.659  1.00  0.00    -0.157 C  
HETATM    2  C   UNL     1      -6.435  11.817  69.450  1.00  0.00    -0.120 A  
HETATM    3  N   UNL     1      -6.158  12.507  68.321  1.00  0.00    -0.060 NA 
HETATM    4  C   UNL     1      -7.030  12.389  67.285  1.00  0.00    -0.129 A  
HETATM    5  C   UNL     1      -8.221  11.673  67.331  1.00  0.00    -0.153 A  
HETATM    6  C   UNL     1      -7.479  10.907  69.521  1.00  0.00    -0.081 A  
HETATM    7  C   UNL     1      -8.375  10.847  68.457  1.00  0.00    -0.142 A  
ENDROOT
BRANCH   5   8
HETATM    8  C   UNL     1      -9.308  11.796  66.332  1.00  0.00    -0.220 A  
HETATM    9  C   UNL     1      -9.976  10.725  65.678  1.00  0.00    -0.317 A  
HETATM   10  C   UNL     1     -10.929  11.097  64.696  1.00  0.00    -0.238 A  
HETATM   11  N   UNL     1      -9.545  13.106  66.003  1.00  0.00    -0.209 NA 
HETATM   12  C   UNL     1     -11.170  12.427  64.377  1.00  0.00    -0.332 A  
HETATM   13  C   UNL     1     -10.450  13.390  65.040  1.00  0.00    -0.365 A  
HETATM   14 CL   UNL     1     -12.310  12.844  63.164  1.00  0.00    -0.441 Cl 
BRANCH   9  15
HETATM   15  C   UNL     1      -9.737   9.261  65.872  1.00  0.00    -0.355 A  
HETATM   16  C   UNL     1      -8.640   8.623  65.248  1.00  0.00    -0.206 A  
HETATM   17  C   UNL     1      -8.346   7.270  65.465  1.00  0.00    -0.137 A  
HETATM   18  C   UNL     1      -9.177   6.512  66.283  1.00  0.00    -0.133 A  
HETATM   19  C   UNL     1     -10.292   7.091  66.882  1.00  0.00    -0.338 A  
HETATM   20  C   UNL     1     -10.532   8.461  66.715  1.00  0.00    -0.315 A  
BRANCH  18  21
HETATM   21  S   UNL     1      -8.822   4.797  66.556  1.00  0.00    -0.113 S  
HETATM   22  C   UNL     1      -9.772   3.986  65.289  1.00  0.00    -0.197 C  
HETATM   23  O   UNL     1      -7.416   4.588  66.270  1.00  0.00    -0.080 OA 
HETATM   24  O   UNL     1      -9.388   4.431  67.840  1.00  0.00    -0.131 OA 
ENDBRANCH  18  21
ENDBRANCH   9  15
ENDBRANCH   5   8
TORSDOF 3
ENDMDL
MODEL       92
REMARK 921   NORMALIZED FREE ENERGY PREDICTED BY IDOCK:   -4.10 KCAL/MOL
REMARK 922        TOTAL FREE ENERGY PREDICTED BY IDOCK:   -5.69 KCAL/MOL
REMARK 923 INTER-LIGAND FREE ENERGY PREDICTED BY IDOCK:   -5.23 KCAL/MOL
REMARK 924 INTRA-LIGAND FREE ENERGY PREDICTED BY IDOCK:   -0.46 KCAL/MOL
REMARK 927      BINDING AFFINITY PREDICTED BY RF-SCORE:    0.00 PKD
ROOT
HETATM    1  C   UNL     1      -6.429  10.999  66.118  1.00  0.00    -0.082 C  
HETATM    2  C   UNL     1      -7.301  10.075  66.913  1.00  0.00    -0.092 A  
HETATM    3  N   UNL     1      -8.420   9.607  66.315  1.00  0.00    -0.119 NA 
HETATM    4  C   UNL     1      -9.306   8.926  67.090  1.00  0.00    -0.145 A  
HETATM    5  C   UNL     1      -9.179   8.744  68.463  1.00  0.00    -0.141 A  
HETATM    6  C   UNL     1      -6.978   9.759  68.223  1.00  0.00    -0.073 A  
HETATM    7  C   UNL     1      -7.929   9.099  68.997  1.00  0.00    -0.101 A  
ENDROOT
BRANCH   5   8
HETATM    8  C   UNL     1     -10.274   8.285  69.349  1.00  0.00    -0.204 A  
HETATM    9  C   UNL     1     -11.253   9.107  69.973  1.00  0.00    -0.168 A  
HETATM   10  C   UNL     1     -12.151   8.443  70.846  1.00  0.00    -0.152 A  
HETATM   11  N   UNL     1     -10.184   6.942  69.609  1.00  0.00    -0.188 NA 
HETATM   12  C   UNL     1     -12.059   7.080  71.094  1.00  0.00    -0.369 A  
HETATM   13  C   UNL     1     -11.058   6.377  70.470  1.00  0.00    -0.328 A  
HETATM   14 CL   UNL     1     -13.146   6.312  72.178  1.00  0.00     0.052 Cl 
BRANCH   9  15
HETATM   15  C   UNL     1     -11.393  10.591  69.853  1.00  0.00    -0.380 A  
HETATM   16  C   UNL     1     -12.088  11.329  70.839  1.00  0.00    -0.406 A  
HETATM   17  C   UNL     1     -12.177  12.726  70.796  1.00  0.00    -0.338 A  
HETATM   18  C   UNL     1     -11.605  13.416  69.732  1.00  0.00    -0.235 A  
HETATM   19  C   UNL     1     -10.950  12.724  68.718  1.00  0.00    -0.289 A  
HETATM   20  C   UNL     1     -10.805  11.334  68.812  1.00  0.00    -0.252 A  
BRANCH  18  21
HETATM   21  S   UNL     1     -11.722  15.183  69.660  1.00  0.00    -0.350 S  
HETATM   22  C   UNL     1     -12.993  15.548  70.851  1.00  0.00    -0.467 C  
HETATM   23  O   UNL     1     -10.471  15.727  70.152  1.00  0.00    -0.306 OA 
HETATM   24  O   UNL     1     -12.227  15.535  68.347  1.00  0.00    -0.095 OA 
ENDBRANCH  18  21
ENDBRANCH   9  15
ENDBRANCH   5   8
TORSDOF 3
ENDMDL
MODEL       93
REMARK 921   NORMALIZED FREE ENERGY PREDICTED BY IDOCK:   -4.05 KCAL/MOL
REMARK 922        TOTAL FREE ENERGY PREDICTED BY IDOCK:   -5.63 KCAL/MOL
REMARK 923 INTER-LIGAND FREE ENERGY PREDICTED BY IDOCK:   -4.69 KCAL/MOL
REMARK 924 INTRA-LIGAND FREE ENERGY PREDICTED BY IDOCK:   -0.93 KCAL/MOL
REMARK 927      BINDING AFFINITY PREDICTED BY RF-SCORE:    0.00 PKD
ROOT
HETATM    1  C   UNL     1      -8.856  11.238  68.575  1.00  0.00    -0.159 C  
HETATM    2  C   UNL     1      -8.880   9.945  67.819  1.00  0.00    -0.129 A  
HETATM    3  N   UNL     1     -10.067   9.541  67.312  1.00  0.00    -0.200 NA 
HETATM    4  C   UNL     1     -10.132   8.286  66.795  1.00  0.00    -0.303 A  
HETATM    5  C   UNL     1      -9.090   7.365  66.818  1.00  0.00    -0.178 A  
HETATM    6  C   UNL     1      -7.728   9.185  67.693  1.00  0.00    -0.089 A  
HETATM    7  C   UNL     1      -7.843   7.888  67.198  1.00  0.00    -0.109 A  
ENDROOT
BRANCH   5   8
HETATM    8  C   UNL     1      -9.249   5.918  66.544  1.00  0.00    -0.145 A  
HETATM    9  C   UNL     1      -9.567   4.911  67.497  1.00  0.00    -0.179 A  
HETATM   10  C   UNL     1      -9.582   3.580  67.007  1.00  0.00    -0.155 A  
HETATM   11  N   UNL     1      -8.938   5.612  65.245  1.00  0.00    -0.087 NA 
HETATM   12  C   UNL     1      -9.276   3.281  65.686  1.00  0.00    -0.150 A  
HETATM   13  C   UNL     1      -8.948   4.320  64.850  1.00  0.00    -0.143 A  
HETATM   14 CL   UNL     1      -9.277   1.657  65.132  1.00  0.00    -0.110 Cl 
BRANCH   9  15
HETATM   15  C   UNL     1      -9.824   5.100  68.957  1.00  0.00    -0.246 A  
HETATM   16  C   UNL     1      -8.979   4.502  69.921  1.00  0.00    -0.145 A  
HETATM   17  C   UNL     1      -9.149   4.716  71.294  1.00  0.00    -0.179 A  
HETATM   18  C   UNL     1     -10.204   5.507  71.738  1.00  0.00    -0.202 A  
HETATM   19  C   UNL     1     -11.084   6.080  70.825  1.00  0.00    -0.355 A  
HETATM   20  C   UNL     1     -10.860   5.916  69.452  1.00  0.00    -0.422 A  
BRANCH  18  21
HETATM   21  S   UNL     1     -10.436   5.777  73.475  1.00  0.00    -0.273 S  
HETATM   22  C   UNL     1      -8.785   5.634  74.125  1.00  0.00    -0.119 C  
HETATM   23  O   UNL     1     -10.875   7.147  73.653  1.00  0.00    -0.352 OA 
HETATM   24  O   UNL     1     -11.214   4.667  73.990  1.00  0.00    -0.265 OA 
ENDBRANCH  18  21
ENDBRANCH   9  15
ENDBRANCH   5   8
TORSDOF 3
ENDMDL
MODEL       94
REMARK 921   NORMALIZED FREE ENERGY PREDICTED BY IDOCK:   -4.03 KCAL/MOL
REMARK 922        TOTAL FREE ENERGY PREDICTED BY IDOCK:   -5.60 KCAL/MOL
REMARK 923 INTER-LIGAND FREE ENERGY PREDICTED BY IDOCK:   -4.78 KCAL/MOL
REMARK 924 INTRA-LIGAND FREE ENERGY PREDICTED BY IDOCK:   -0.82 KCAL/MOL
REMARK 927      BINDING AFFINITY PREDICTED BY RF-SCORE:    0.00 PKD
ROOT
HETATM    1  C   UNL     1      -6.414   8.571  71.140  1.00  0.00    -0.049 C  
HETATM    2  C   UNL     1      -7.358   9.528  70.478  1.00  0.00    -0.138 A  
HETATM    3  N   UNL     1      -8.681   9.350  70.696  1.00  0.00    -0.229 NA 
HETATM    4  C   UNL     1      -9.543  10.091  69.951  1.00  0.00    -0.192 A  
HETATM    5  C   UNL     1      -9.165  10.959  68.933  1.00  0.00    -0.168 A  
HETATM    6  C   UNL     1      -6.876  10.524  69.642  1.00  0.00    -0.117 A  
HETATM    7  C   UNL     1      -7.788  11.231  68.864  1.00  0.00    -0.114 A  
ENDROOT
BRANCH   5   8
HETATM    8  C   UNL     1     -10.096  11.521  67.926  1.00  0.00    -0.189 A  
HETATM    9  C   UNL     1     -10.305  11.032  66.608  1.00  0.00    -0.288 A  
HETATM   10  C   UNL     1     -11.189  11.791  65.800  1.00  0.00    -0.337 A  
HETATM   11  N   UNL     1     -10.683  12.676  68.372  1.00  0.00    -0.235 NA 
HETATM   12  C   UNL     1     -11.789  12.955  66.263  1.00  0.00    -0.416 A  
HETATM   13  C   UNL     1     -11.497  13.364  67.541  1.00  0.00    -0.323 A  
HETATM   14 CL   UNL     1     -12.832  13.865  65.251  1.00  0.00    -0.489 Cl 
BRANCH   9  15
HETATM   15  C   UNL     1      -9.650   9.848  65.971  1.00  0.00    -0.284 A  
HETATM   16  C   UNL     1      -9.157   9.924  64.647  1.00  0.00    -0.288 A  
HETATM   17  C   UNL     1      -8.476   8.859  64.045  1.00  0.00    -0.146 A  
HETATM   18  C   UNL     1      -8.310   7.669  64.747  1.00  0.00    -0.027 A  
HETATM   19  C   UNL     1      -8.818   7.537  66.036  1.00  0.00    -0.179 A  
HETATM   20  C   UNL     1      -9.433   8.635  66.652  1.00  0.00    -0.267 A  
BRANCH  18  21
HETATM   21  S   UNL     1      -7.459   6.309  63.991  1.00  0.00    -0.090 S  
HETATM   22  C   UNL     1      -8.137   6.279  62.346  1.00  0.00    -0.101 C  
HETATM   23  O   UNL     1      -6.057   6.666  63.896  1.00  0.00    -0.033 OA 
HETATM   24  O   UNL     1      -7.881   5.099  64.669  1.00  0.00    -0.086 OA 
ENDBRANCH  18  21
ENDBRANCH   9  15
ENDBRANCH   5   8
TORSDOF 3
ENDMDL
MODEL       95
REMARK 921   NORMALIZED FREE ENERGY PREDICTED BY IDOCK:   -3.99 KCAL/MOL
REMARK 922        TOTAL FREE ENERGY PREDICTED BY IDOCK:   -5.56 KCAL/MOL
REMARK 923 INTER-LIGAND FREE ENERGY PREDICTED BY IDOCK:   -4.56 KCAL/MOL
REMARK 924 INTRA-LIGAND FREE ENERGY PREDICTED BY IDOCK:   -1.00 KCAL/MOL
REMARK 927      BINDING AFFINITY PREDICTED BY RF-SCORE:    0.00 PKD
ROOT
HETATM    1  C   UNL     1      -9.810  12.735  67.652  1.00  0.00    -0.214 C  
HETATM    2  C   UNL     1      -9.326  11.492  66.968  1.00  0.00    -0.178 A  
HETATM    3  N   UNL     1     -10.240  10.751  66.302  1.00  0.00    -0.238 NA 
HETATM    4  C   UNL     1      -9.846   9.533  65.845  1.00  0.00    -0.290 A  
HETATM    5  C   UNL     1      -8.597   8.966  66.079  1.00  0.00    -0.162 A  
HETATM    6  C   UNL     1      -7.996  11.112  67.064  1.00  0.00    -0.145 A  
HETATM    7  C   UNL     1      -7.640   9.840  66.623  1.00  0.00    -0.098 A  
ENDROOT
BRANCH   5   8
HETATM    8  C   UNL     1      -8.274   7.538  65.858  1.00  0.00    -0.134 A  
HETATM    9  C   UNL     1      -8.635   6.452  66.703  1.00  0.00    -0.121 A  
HETATM   10  C   UNL     1      -8.137   5.181  66.322  1.00  0.00    -0.108 A  
HETATM   11  N   UNL     1      -7.464   7.367  64.766  1.00  0.00    -0.082 NA 
HETATM   12  C   UNL     1      -7.326   5.015  65.207  1.00  0.00    -0.072 A  
HETATM   13  C   UNL     1      -7.005   6.130  64.473  1.00  0.00    -0.051 A  
HETATM   14 CL   UNL     1      -6.717   3.466  64.789  1.00  0.00    -0.039 Cl 
BRANCH   9  15
HETATM   15  C   UNL     1      -9.424   6.521  67.971  1.00  0.00    -0.120 A  
HETATM   16  C   UNL     1      -8.840   7.029  69.155  1.00  0.00    -0.135 A  
HETATM   17  C   UNL     1      -9.571   7.174  70.341  1.00  0.00    -0.169 A  
HETATM   18  C   UNL     1     -10.901   6.769  70.379  1.00  0.00    -0.262 A  
HETATM   19  C   UNL     1     -11.502   6.223  69.248  1.00  0.00    -0.288 A  
HETATM   20  C   UNL     1     -10.781   6.152  68.049  1.00  0.00    -0.370 A  
BRANCH  18  21
HETATM   21  S   UNL     1     -11.833   6.936  71.878  1.00  0.00    -0.326 S  
HETATM   22  C   UNL     1     -11.342   5.505  72.815  1.00  0.00    -0.303 C  
HETATM   23  O   UNL     1     -11.349   8.116  72.568  1.00  0.00    -0.363 OA 
HETATM   24  O   UNL     1     -13.235   6.787  71.540  1.00  0.00    -0.291 OA 
ENDBRANCH  18  21
ENDBRANCH   9  15
ENDBRANCH   5   8
TORSDOF 3
ENDMDL
MODEL       96
REMARK 921   NORMALIZED FREE ENERGY PREDICTED BY IDOCK:   -3.95 KCAL/MOL
REMARK 922        TOTAL FREE ENERGY PREDICTED BY IDOCK:   -5.50 KCAL/MOL
REMARK 923 INTER-LIGAND FREE ENERGY PREDICTED BY IDOCK:   -4.69 KCAL/MOL
REMARK 924 INTRA-LIGAND FREE ENERGY PREDICTED BY IDOCK:   -0.81 KCAL/MOL
REMARK 927      BINDING AFFINITY PREDICTED BY RF-SCORE:    0.00 PKD
ROOT
HETATM    1  C   UNL     1      -6.236  10.641  66.619  1.00  0.00    -0.083 C  
HETATM    2  C   UNL     1      -7.170  10.004  67.604  1.00  0.00    -0.088 A  
HETATM    3  N   UNL     1      -8.187   9.264  67.109  1.00  0.00    -0.116 NA 
HETATM    4  C   UNL     1      -9.140   8.845  67.983  1.00  0.00    -0.139 A  
HETATM    5  C   UNL     1      -9.182   9.187  69.331  1.00  0.00    -0.156 A  
HETATM    6  C   UNL     1      -7.005  10.215  68.964  1.00  0.00    -0.058 A  
HETATM    7  C   UNL     1      -8.023   9.810  69.823  1.00  0.00    -0.169 A  
ENDROOT
BRANCH   5   8
HETATM    8  C   UNL     1     -10.365   8.997  70.203  1.00  0.00    -0.210 A  
HETATM    9  C   UNL     1     -10.868   7.756  70.681  1.00  0.00    -0.241 A  
HETATM   10  C   UNL     1     -12.067   7.825  71.436  1.00  0.00    -0.335 A  
HETATM   11  N   UNL     1     -11.021  10.180  70.426  1.00  0.00    -0.307 NA 
HETATM   12  C   UNL     1     -12.719   9.029  71.667  1.00  0.00    -0.358 A  
HETATM   13  C   UNL     1     -12.172  10.171  71.134  1.00  0.00    -0.389 A  
HETATM   14 CL   UNL     1     -14.183   9.075  72.561  1.00  0.00    -0.468 Cl 
BRANCH   9  15
HETATM   15  C   UNL     1     -10.306   6.395  70.422  1.00  0.00    -0.251 A  
HETATM   16  C   UNL     1     -10.467   5.779  69.159  1.00  0.00    -0.346 A  
HETATM   17  C   UNL     1      -9.893   4.537  68.860  1.00  0.00    -0.190 A  
HETATM   18  C   UNL     1      -9.175   3.860  69.841  1.00  0.00    -0.144 A  
HETATM   19  C   UNL     1      -9.029   4.412  71.110  1.00  0.00    -0.167 A  
HETATM   20  C   UNL     1      -9.547   5.687  71.373  1.00  0.00    -0.188 A  
BRANCH  18  21
HETATM   21  S   UNL     1      -8.454   2.282  69.478  1.00  0.00    -0.056 S  
HETATM   22  C   UNL     1      -9.603   1.576  68.317  1.00  0.00    -0.139 C  
HETATM   23  O   UNL     1      -7.201   2.520  68.787  1.00  0.00    -0.044 OA 
HETATM   24  O   UNL     1      -8.502   1.489  70.691  1.00  0.00    -0.047 OA 
ENDBRANCH  18  21
ENDBRANCH   9  15
ENDBRANCH   5   8
TORSDOF 3
ENDMDL
MODEL       97
REMARK 921   NORMALIZED FREE ENERGY PREDICTED BY IDOCK:   -3.94 KCAL/MOL
REMARK 922        TOTAL FREE ENERGY PREDICTED BY IDOCK:   -5.49 KCAL/MOL
REMARK 923 INTER-LIGAND FREE ENERGY PREDICTED BY IDOCK:   -4.75 KCAL/MOL
REMARK 924 INTRA-LIGAND FREE ENERGY PREDICTED BY IDOCK:   -0.74 KCAL/MOL
REMARK 927      BINDING AFFINITY PREDICTED BY RF-SCORE:    0.00 PKD
ROOT
HETATM    1  C   UNL     1      -5.576  13.222  70.740  1.00  0.00    -0.186 C  
HETATM    2  C   UNL     1      -6.130  12.292  69.703  1.00  0.00    -0.132 A  
HETATM    3  N   UNL     1      -6.685  11.137  70.134  1.00  0.00    -0.190 NA 
HETATM    4  C   UNL     1      -7.014  10.212  69.194  1.00  0.00    -0.062 A  
HETATM    5  C   UNL     1      -6.750  10.337  67.834  1.00  0.00    -0.066 A  
HETATM    6  C   UNL     1      -6.026  12.604  68.356  1.00  0.00    -0.059 A  
HETATM    7  C   UNL     1      -6.332  11.615  67.425  1.00  0.00    -0.100 A  
ENDROOT
BRANCH   5   8
HETATM    8  C   UNL     1      -6.819   9.220  66.864  1.00  0.00    -0.080 A  
HETATM    9  C   UNL     1      -7.762   9.077  65.810  1.00  0.00    -0.091 A  
HETATM   10  C   UNL     1      -7.677   7.875  65.063  1.00  0.00    -0.106 A  
HETATM   11  N   UNL     1      -5.912   8.236  67.162  1.00  0.00    -0.052 NA 
HETATM   12  C   UNL     1      -6.747   6.888  65.365  1.00  0.00    -0.051 A  
HETATM   13  C   UNL     1      -5.901   7.104  66.424  1.00  0.00    -0.035 A  
HETATM   14 CL   UNL     1      -6.688   5.433  64.459  1.00  0.00    -0.046 Cl 
BRANCH   9  15
HETATM   15  C   UNL     1      -8.862  10.024  65.449  1.00  0.00    -0.199 A  
HETATM   16  C   UNL     1      -9.135  10.326  64.094  1.00  0.00    -0.284 A  
HETATM   17  C   UNL     1     -10.201  11.153  63.718  1.00  0.00    -0.434 A  
HETATM   18  C   UNL     1     -10.997  11.734  64.700  1.00  0.00    -0.310 A  
HETATM   19  C   UNL     1     -10.735  11.497  66.046  1.00  0.00    -0.332 A  
HETATM   20  C   UNL     1      -9.711  10.611  66.406  1.00  0.00    -0.241 A  
BRANCH  18  21
HETATM   21  S   UNL     1     -12.342  12.791  64.236  1.00  0.00    -0.408 S  
HETATM   22  C   UNL     1     -12.654  13.716  65.725  1.00  0.00    -0.461 C  
HETATM   23  O   UNL     1     -11.853  13.710  63.227  1.00  0.00    -0.223 OA 
HETATM   24  O   UNL     1     -13.495  11.948  63.987  1.00  0.00    -0.600 OA 
ENDBRANCH  18  21
ENDBRANCH   9  15
ENDBRANCH   5   8
TORSDOF 3
ENDMDL
MODEL       98
REMARK 921   NORMALIZED FREE ENERGY PREDICTED BY IDOCK:   -3.91 KCAL/MOL
REMARK 922        TOTAL FREE ENERGY PREDICTED BY IDOCK:   -5.46 KCAL/MOL
REMARK 923 INTER-LIGAND FREE ENERGY PREDICTED BY IDOCK:   -4.41 KCAL/MOL
REMARK 924 INTRA-LIGAND FREE ENERGY PREDICTED BY IDOCK:   -1.05 KCAL/MOL
REMARK 927      BINDING AFFINITY PREDICTED BY RF-SCORE:    0.00 PKD
ROOT
HETATM    1  C   UNL     1      -6.867  10.154  64.920  1.00  0.00    -0.129 C  
HETATM    2  C   UNL     1      -7.838   9.951  66.043  1.00  0.00    -0.111 A  
HETATM    3  N   UNL     1      -7.329   9.758  67.280  1.00  0.00    -0.087 NA 
HETATM    4  C   UNL     1      -8.193   9.386  68.261  1.00  0.00    -0.118 A  
HETATM    5  C   UNL     1      -9.544   9.118  68.067  1.00  0.00    -0.165 A  
HETATM    6  C   UNL     1      -9.202   9.922  65.793  1.00  0.00    -0.228 A  
HETATM    7  C   UNL     1     -10.050   9.495  66.811  1.00  0.00    -0.312 A  
ENDROOT
BRANCH   5   8
HETATM    8  C   UNL     1     -10.407   8.422  69.049  1.00  0.00    -0.218 A  
HETATM    9  C   UNL     1     -10.764   7.045  69.030  1.00  0.00    -0.234 A  
HETATM   10  C   UNL     1     -11.673   6.628  70.035  1.00  0.00    -0.378 A  
HETATM   11  N   UNL     1     -10.942   9.296  69.960  1.00  0.00    -0.234 NA 
HETATM   12  C   UNL     1     -12.201   7.519  70.961  1.00  0.00    -0.259 A  
HETATM   13  C   UNL     1     -11.821   8.836  70.876  1.00  0.00    -0.230 A  
HETATM   14 CL   UNL     1     -13.320   6.987  72.147  1.00  0.00    -0.111 Cl 
BRANCH   9  15
HETATM   15  C   UNL     1     -10.332   6.016  68.035  1.00  0.00    -0.250 A  
HETATM   16  C   UNL     1     -10.968   5.923  66.775  1.00  0.00    -0.280 A  
HETATM   17  C   UNL     1     -10.544   5.019  65.793  1.00  0.00    -0.158 A  
HETATM   18  C   UNL     1      -9.492   4.152  66.070  1.00  0.00    -0.180 A  
HETATM   19  C   UNL     1      -8.867   4.181  67.313  1.00  0.00    -0.126 A  
HETATM   20  C   UNL     1      -9.254   5.139  68.259  1.00  0.00    -0.139 A  
BRANCH  18  21
HETATM   21  S   UNL     1      -8.953   2.996  64.839  1.00  0.00    -0.136 S  
HETATM   22  C   UNL     1      -7.681   3.894  63.977  1.00  0.00    -0.083 C  
HETATM   23  O   UNL     1      -8.332   1.880  65.525  1.00  0.00    -0.084 OA 
HETATM   24  O   UNL     1     -10.055   2.790  63.919  1.00  0.00    -0.155 OA 
ENDBRANCH  18  21
ENDBRANCH   9  15
ENDBRANCH   5   8
TORSDOF 3
ENDMDL
MODEL       99
REMARK 921   NORMALIZED FREE ENERGY PREDICTED BY IDOCK:   -3.76 KCAL/MOL
REMARK 922        TOTAL FREE ENERGY PREDICTED BY IDOCK:   -5.29 KCAL/MOL
REMARK 923 INTER-LIGAND FREE ENERGY PREDICTED BY IDOCK:   -4.52 KCAL/MOL
REMARK 924 INTRA-LIGAND FREE ENERGY PREDICTED BY IDOCK:   -0.76 KCAL/MOL
REMARK 927      BINDING AFFINITY PREDICTED BY RF-SCORE:    0.00 PKD
ROOT
HETATM    1  C   UNL     1      -9.804   1.475  71.985  1.00  0.00    -0.196 C  
HETATM    2  C   UNL     1      -9.261   2.233  70.812  1.00  0.00    -0.126 A  
HETATM    3  N   UNL     1      -8.446   3.281  71.070  1.00  0.00    -0.065 NA 
HETATM    4  C   UNL     1      -8.107   4.082  70.026  1.00  0.00    -0.057 A  
HETATM    5  C   UNL     1      -8.596   3.944  68.731  1.00  0.00    -0.117 A  
HETATM    6  C   UNL     1      -9.627   1.883  69.521  1.00  0.00    -0.046 A  
HETATM    7  C   UNL     1      -9.297   2.751  68.484  1.00  0.00    -0.249 A  
ENDROOT
BRANCH   5   8
HETATM    8  C   UNL     1      -8.479   4.981  67.680  1.00  0.00    -0.104 A  
HETATM    9  C   UNL     1      -9.104   6.259  67.684  1.00  0.00    -0.117 A  
HETATM   10  C   UNL     1      -8.907   7.047  66.521  1.00  0.00    -0.151 A  
HETATM   11  N   UNL     1      -7.765   4.528  66.601  1.00  0.00    -0.093 NA 
HETATM   12  C   UNL     1      -8.172   6.584  65.438  1.00  0.00    -0.135 A  
HETATM   13  C   UNL     1      -7.636   5.322  65.515  1.00  0.00    -0.082 A  
HETATM   14 CL   UNL     1      -7.976   7.551  64.035  1.00  0.00    -0.121 Cl 
BRANCH   9  15
HETATM   15  C   UNL     1      -9.988   6.827  68.748  1.00  0.00    -0.149 A  
HETATM   16  C   UNL     1      -9.822   8.162  69.183  1.00  0.00    -0.182 A  
HETATM   17  C   UNL     1     -10.677   8.748  70.126  1.00  0.00    -0.239 A  
HETATM   18  C   UNL     1     -11.698   7.989  70.689  1.00  0.00    -0.150 A  
HETATM   19  C   UNL     1     -11.869   6.658  70.319  1.00  0.00    -0.378 A  
HETATM   20  C   UNL     1     -11.053   6.107  69.323  1.00  0.00    -0.463 A  
BRANCH  18  21
HETATM   21  S   UNL     1     -12.779   8.716  71.891  1.00  0.00    -0.389 S  
HETATM   22  C   UNL     1     -14.340   7.931  71.551  1.00  0.00    -0.445 C  
HETATM   23  O   UNL     1     -12.332   8.285  73.202  1.00  0.00    -0.097 OA 
HETATM   24  O   UNL     1     -12.908  10.124  71.569  1.00  0.00    -0.370 OA 
ENDBRANCH  18  21
ENDBRANCH   9  15
ENDBRANCH   5   8
TORSDOF 3
ENDMDL
MODEL      100
REMARK 921   NORMALIZED FREE ENERGY PREDICTED BY IDOCK:   -3.74 KCAL/MOL
REMARK 922        TOTAL FREE ENERGY PREDICTED BY IDOCK:   -5.26 KCAL/MOL
REMARK 923 INTER-LIGAND FREE ENERGY PREDICTED BY IDOCK:   -4.36 KCAL/MOL
REMARK 924 INTRA-LIGAND FREE ENERGY PREDICTED BY IDOCK:   -0.91 KCAL/MOL
REMARK 927      BINDING AFFINITY PREDICTED BY RF-SCORE:    0.00 PKD
ROOT
HETATM    1  C   UNL     1      -6.858  11.591  68.819  1.00  0.00    -0.084 C  
HETATM    2  C   UNL     1      -7.495  10.263  69.099  1.00  0.00    -0.105 A  
HETATM    3  N   UNL     1      -8.846  10.207  69.097  1.00  0.00    -0.164 NA 
HETATM    4  C   UNL     1      -9.425   9.058  69.534  1.00  0.00    -0.164 A  
HETATM    5  C   UNL     1      -8.731   7.969  70.053  1.00  0.00    -0.135 A  
HETATM    6  C   UNL     1      -6.711   9.157  69.390  1.00  0.00    -0.048 A  
HETATM    7  C   UNL     1      -7.338   8.013  69.876  1.00  0.00    -0.066 A  
ENDROOT
BRANCH   5   8
HETATM    8  C   UNL     1      -9.360   6.862  70.808  1.00  0.00    -0.161 A  
HETATM    9  C   UNL     1      -9.867   5.651  70.261  1.00  0.00    -0.254 A  
HETATM   10  C   UNL     1     -10.502   4.776  71.179  1.00  0.00    -0.121 A  
HETATM   11  N   UNL     1      -9.513   7.177  72.133  1.00  0.00    -0.137 NA 
HETATM   12  C   UNL     1     -10.642   5.099  72.523  1.00  0.00    -0.220 A  
HETATM   13  C   UNL     1     -10.149   6.307  72.949  1.00  0.00    -0.183 A  
HETATM   14 CL   UNL     1     -11.439   4.030  73.602  1.00  0.00    -0.262 Cl 
BRANCH   9  15
HETATM   15  C   UNL     1      -9.856   5.236  68.825  1.00  0.00    -0.224 A  
HETATM   16  C   UNL     1      -9.067   4.142  68.398  1.00  0.00    -0.179 A  
HETATM   17  C   UNL     1      -9.086   3.682  67.076  1.00  0.00    -0.186 A  
HETATM   18  C   UNL     1      -9.871   4.341  66.134  1.00  0.00    -0.221 A  
HETATM   19  C   UNL     1     -10.629   5.448  66.503  1.00  0.00    -0.353 A  
HETATM   20  C   UNL     1     -10.656   5.852  67.844  1.00  0.00    -0.322 A  
BRANCH  18  21
HETATM   21  S   UNL     1      -9.895   3.775  64.454  1.00  0.00    -0.198 S  
HETATM   22  C   UNL     1      -9.397   2.073  64.599  1.00  0.00    -0.119 C  
HETATM   23  O   UNL     1     -11.272   3.806  63.999  1.00  0.00    -0.314 OA 
HETATM   24  O   UNL     1      -8.853   4.485  63.738  1.00  0.00    -0.135 OA 
ENDBRANCH  18  21
ENDBRANCH   9  15
ENDBRANCH   5   8
TORSDOF 3
ENDMDL
MODEL      101
REMARK 921   NORMALIZED FREE ENERGY PREDICTED BY IDOCK:   -3.72 KCAL/MOL
REMARK 922        TOTAL FREE ENERGY PREDICTED BY IDOCK:   -5.24 KCAL/MOL
REMARK 923 INTER-LIGAND FREE ENERGY PREDICTED BY IDOCK:   -4.34 KCAL/MOL
REMARK 924 INTRA-LIGAND FREE ENERGY PREDICTED BY IDOCK:   -0.90 KCAL/MOL
REMARK 927      BINDING AFFINITY PREDICTED BY RF-SCORE:    0.00 PKD
ROOT
HETATM    1  C   UNL     1      -7.218   8.666  72.250  1.00  0.00    -0.040 C  
HETATM    2  C   UNL     1      -7.626   9.188  70.906  1.00  0.00    -0.124 A  
HETATM    3  N   UNL     1      -8.810   8.767  70.407  1.00  0.00    -0.154 NA 
HETATM    4  C   UNL     1      -9.094   9.084  69.116  1.00  0.00    -0.140 A  
HETATM    5  C   UNL     1      -8.224   9.742  68.253  1.00  0.00    -0.105 A  
HETATM    6  C   UNL     1      -6.786  10.034  70.198  1.00  0.00    -0.137 A  
HETATM    7  C   UNL     1      -7.089  10.300  68.865  1.00  0.00    -0.075 A  
ENDROOT
BRANCH   5   8
HETATM    8  C   UNL     1      -8.398   9.811  66.784  1.00  0.00    -0.124 A  
HETATM    9  C   UNL     1      -8.836  10.942  66.040  1.00  0.00    -0.198 A  
HETATM   10  C   UNL     1      -9.005  10.737  64.647  1.00  0.00    -0.191 A  
HETATM   11  N   UNL     1      -8.193   8.591  66.193  1.00  0.00    -0.110 NA 
HETATM   12  C   UNL     1      -8.784   9.500  64.055  1.00  0.00    -0.216 A  
HETATM   13  C   UNL     1      -8.396   8.460  64.864  1.00  0.00    -0.149 A  
HETATM   14 CL   UNL     1      -9.025   9.279  62.371  1.00  0.00    -0.246 Cl 
BRANCH   9  15
HETATM   15  C   UNL     1      -9.190  12.292  66.576  1.00  0.00    -0.219 A  
HETATM   16  C   UNL     1     -10.537  12.721  66.610  1.00  0.00    -0.272 A  
HETATM   17  C   UNL     1     -10.912  13.949  67.171  1.00  0.00    -0.298 A  
HETATM   18  C   UNL     1      -9.932  14.799  67.674  1.00  0.00    -0.226 A  
HETATM   19  C   UNL     1      -8.591  14.433  67.621  1.00  0.00    -0.189 A  
HETATM   20  C   UNL     1      -8.237  13.172  67.124  1.00  0.00    -0.127 A  
BRANCH  18  21
HETATM   21  S   UNL     1     -10.393  16.360  68.375  1.00  0.00    -0.299 S  
HETATM   22  C   UNL     1      -8.826  17.173  68.605  1.00  0.00    -0.266 C  
HETATM   23  O   UNL     1     -11.138  17.092  67.370  1.00  0.00    -0.137 OA 
HETATM   24  O   UNL     1     -10.957  16.102  69.686  1.00  0.00    -0.299 OA 
ENDBRANCH  18  21
ENDBRANCH   9  15
ENDBRANCH   5   8
TORSDOF 3
ENDMDL
MODEL      102
REMARK 921   NORMALIZED FREE ENERGY PREDICTED BY IDOCK:   -3.72 KCAL/MOL
REMARK 922        TOTAL FREE ENERGY PREDICTED BY IDOCK:   -5.24 KCAL/MOL
REMARK 923 INTER-LIGAND FREE ENERGY PREDICTED BY IDOCK:   -4.48 KCAL/MOL
REMARK 924 INTRA-LIGAND FREE ENERGY PREDICTED BY IDOCK:   -0.75 KCAL/MOL
REMARK 927      BINDING AFFINITY PREDICTED BY RF-SCORE:    0.00 PKD
ROOT
HETATM    1  C   UNL     1     -12.933  11.823  63.770  1.00  0.00    -0.192 C  
HETATM    2  C   UNL     1     -11.854  11.734  64.807  1.00  0.00    -0.099 A  
HETATM    3  N   UNL     1     -12.097  12.300  66.010  1.00  0.00    -0.630 NA 
HETATM    4  C   UNL     1     -11.058  12.388  66.882  1.00  0.00    -0.287 A  
HETATM    5  C   UNL     1      -9.751  12.007  66.596  1.00  0.00    -0.221 A  
HETATM    6  C   UNL     1     -10.644  11.127  64.507  1.00  0.00    -0.397 A  
HETATM    7  C   UNL     1      -9.591  11.276  65.407  1.00  0.00    -0.261 A  
ENDROOT
BRANCH   5   8
HETATM    8  C   UNL     1      -8.575  12.383  67.414  1.00  0.00    -0.181 A  
HETATM    9  C   UNL     1      -7.983  11.605  68.446  1.00  0.00    -0.140 A  
HETATM   10  C   UNL     1      -6.911  12.217  69.145  1.00  0.00    -0.073 A  
HETATM   11  N   UNL     1      -8.158  13.660  67.141  1.00  0.00    -0.128 NA 
HETATM   12  C   UNL     1      -6.488  13.508  68.854  1.00  0.00    -0.102 A  
HETATM   13  C   UNL     1      -7.146  14.192  67.861  1.00  0.00    -0.160 A  
HETATM   14 CL   UNL     1      -5.207  14.230  69.736  1.00  0.00    -0.091 Cl 
BRANCH   9  15
HETATM   15  C   UNL     1      -8.407  10.247  68.908  1.00  0.00    -0.136 A  
HETATM   16  C   UNL     1      -8.504   9.174  67.992  1.00  0.00    -0.121 A  
HETATM   17  C   UNL     1      -8.829   7.875  68.401  1.00  0.00    -0.130 A  
HETATM   18  C   UNL     1      -9.109   7.630  69.742  1.00  0.00    -0.147 A  
HETATM   19  C   UNL     1      -9.067   8.667  70.669  1.00  0.00    -0.201 A  
HETATM   20  C   UNL     1      -8.669   9.946  70.258  1.00  0.00    -0.073 A  
BRANCH  18  21
HETATM   21  S   UNL     1      -9.532   5.991  70.270  1.00  0.00    -0.164 S  
HETATM   22  C   UNL     1      -8.734   4.962  69.058  1.00  0.00    -0.088 C  
HETATM   23  O   UNL     1      -8.892   5.762  71.551  1.00  0.00    -0.135 OA 
HETATM   24  O   UNL     1     -10.965   5.837  70.111  1.00  0.00    -0.326 OA 
ENDBRANCH  18  21
ENDBRANCH   9  15
ENDBRANCH   5   8
TORSDOF 3
ENDMDL
MODEL      103
REMARK 921   NORMALIZED FREE ENERGY PREDICTED BY IDOCK:   -3.71 KCAL/MOL
REMARK 922        TOTAL FREE ENERGY PREDICTED BY IDOCK:   -5.22 KCAL/MOL
REMARK 923 INTER-LIGAND FREE ENERGY PREDICTED BY IDOCK:   -4.70 KCAL/MOL
REMARK 924 INTRA-LIGAND FREE ENERGY PREDICTED BY IDOCK:   -0.53 KCAL/MOL
REMARK 927      BINDING AFFINITY PREDICTED BY RF-SCORE:    0.00 PKD
ROOT
HETATM    1  C   UNL     1      -6.562  16.718  69.477  1.00  0.00    -0.207 C  
HETATM    2  C   UNL     1      -7.224  15.788  68.505  1.00  0.00    -0.122 A  
HETATM    3  N   UNL     1      -7.551  16.284  67.291  1.00  0.00    -0.154 NA 
HETATM    4  C   UNL     1      -8.317  15.506  66.482  1.00  0.00    -0.199 A  
HETATM    5  C   UNL     1      -8.850  14.273  66.843  1.00  0.00    -0.234 A  
HETATM    6  C   UNL     1      -7.521  14.485  68.874  1.00  0.00    -0.133 A  
HETATM    7  C   UNL     1      -8.344  13.734  68.039  1.00  0.00    -0.171 A  
ENDROOT
BRANCH   5   8
HETATM    8  C   UNL     1      -9.923  13.577  66.098  1.00  0.00    -0.304 A  
HETATM    9  C   UNL     1     -10.185  12.179  66.106  1.00  0.00    -0.254 A  
HETATM   10  C   UNL     1     -11.219  11.738  65.243  1.00  0.00    -0.315 A  
HETATM   11  N   UNL     1     -10.605  14.435  65.275  1.00  0.00    -0.356 NA 
HETATM   12  C   UNL     1     -11.912  12.617  64.420  1.00  0.00    -0.400 A  
HETATM   13  C   UNL     1     -11.564  13.945  64.459  1.00  0.00    -0.393 A  
HETATM   14 CL   UNL     1     -13.140  12.047  63.367  1.00  0.00    -0.332 Cl 
BRANCH   9  15
HETATM   15  C   UNL     1      -9.450  11.129  66.877  1.00  0.00    -0.203 A  
HETATM   16  C   UNL     1      -8.273  10.544  66.353  1.00  0.00    -0.140 A  
HETATM   17  C   UNL     1      -7.521   9.610  67.078  1.00  0.00    -0.091 A  
HETATM   18  C   UNL     1      -7.959   9.208  68.335  1.00  0.00    -0.103 A  
HETATM   19  C   UNL     1      -9.134   9.727  68.869  1.00  0.00    -0.148 A  
HETATM   20  C   UNL     1      -9.837  10.713  68.165  1.00  0.00    -0.170 A  
BRANCH  18  21
HETATM   21  S   UNL     1      -7.022   8.018  69.257  1.00  0.00    -0.057 S  
HETATM   22  C   UNL     1      -8.205   7.406  70.437  1.00  0.00    -0.121 C  
HETATM   23  O   UNL     1      -6.678   6.935  68.357  1.00  0.00    -0.062 OA 
HETATM   24  O   UNL     1      -5.997   8.739  69.988  1.00  0.00    -0.030 OA 
ENDBRANCH  18  21
ENDBRANCH   9  15
ENDBRANCH   5   8
TORSDOF 3
ENDMDL
MODEL      104
REMARK 921   NORMALIZED FREE ENERGY PREDICTED BY IDOCK:   -3.70 KCAL/MOL
REMARK 922        TOTAL FREE ENERGY PREDICTED BY IDOCK:   -5.21 KCAL/MOL
REMARK 923 INTER-LIGAND FREE ENERGY PREDICTED BY IDOCK:   -4.14 KCAL/MOL
REMARK 924 INTRA-LIGAND FREE ENERGY PREDICTED BY IDOCK:   -1.07 KCAL/MOL
REMARK 927      BINDING AFFINITY PREDICTED BY RF-SCORE:    0.00 PKD
ROOT
HETATM    1  C   UNL     1      -5.769  13.345  70.918  1.00  0.00    -0.180 C  
HETATM    2  C   UNL     1      -5.888  12.624  69.609  1.00  0.00    -0.114 A  
HETATM    3  N   UNL     1      -6.372  13.321  68.556  1.00  0.00    -0.076 NA 
HETATM    4  C   UNL     1      -6.659  12.625  67.424  1.00  0.00    -0.144 A  
HETATM    5  C   UNL     1      -6.563  11.244  67.299  1.00  0.00    -0.093 A  
HETATM    6  C   UNL     1      -5.552  11.283  69.515  1.00  0.00    -0.057 A  
HETATM    7  C   UNL     1      -5.901  10.595  68.355  1.00  0.00    -0.043 A  
ENDROOT
BRANCH   5   8
HETATM    8  C   UNL     1      -7.162  10.462  66.192  1.00  0.00    -0.131 A  
HETATM    9  C   UNL     1      -8.311   9.629  66.275  1.00  0.00    -0.117 A  
HETATM   10  C   UNL     1      -8.644   8.916  65.096  1.00  0.00    -0.208 A  
HETATM   11  N   UNL     1      -6.403  10.538  65.052  1.00  0.00    -0.092 NA 
HETATM   12  C   UNL     1      -7.875   9.007  63.942  1.00  0.00    -0.133 A  
HETATM   13  C   UNL     1      -6.764   9.813  63.971  1.00  0.00    -0.120 A  
HETATM   14 CL   UNL     1      -8.290   8.109  62.540  1.00  0.00    -0.160 Cl 
BRANCH   9  15
HETATM   15  C   UNL     1      -9.160   9.382  67.481  1.00  0.00    -0.136 A  
HETATM   16  C   UNL     1      -8.902   8.279  68.329  1.00  0.00    -0.140 A  
HETATM   17  C   UNL     1      -9.631   8.059  69.504  1.00  0.00    -0.164 A  
HETATM   18  C   UNL     1     -10.671   8.920  69.835  1.00  0.00    -0.227 A  
HETATM   19  C   UNL     1     -10.987   9.992  69.006  1.00  0.00    -0.249 A  
HETATM   20  C   UNL     1     -10.202  10.243  67.872  1.00  0.00    -0.217 A  
BRANCH  18  21
HETATM   21  S   UNL     1     -11.610   8.645  71.314  1.00  0.00    -0.298 S  
HETATM   22  C   UNL     1     -10.363   8.177  72.496  1.00  0.00    -0.330 C  
HETATM   23  O   UNL     1     -12.167   9.918  71.725  1.00  0.00    -0.389 OA 
HETATM   24  O   UNL     1     -12.460   7.493  71.085  1.00  0.00    -0.319 OA 
ENDBRANCH  18  21
ENDBRANCH   9  15
ENDBRANCH   5   8
TORSDOF 3
ENDMDL
MODEL      105
REMARK 921   NORMALIZED FREE ENERGY PREDICTED BY IDOCK:   -3.70 KCAL/MOL
REMARK 922        TOTAL FREE ENERGY PREDICTED BY IDOCK:   -5.21 KCAL/MOL
REMARK 923 INTER-LIGAND FREE ENERGY PREDICTED BY IDOCK:   -4.17 KCAL/MOL
REMARK 924 INTRA-LIGAND FREE ENERGY PREDICTED BY IDOCK:   -1.04 KCAL/MOL
REMARK 927      BINDING AFFINITY PREDICTED BY RF-SCORE:    0.00 PKD
ROOT
HETATM    1  C   UNL     1     -10.525   4.492  66.190  1.00  0.00    -0.198 C  
HETATM    2  C   UNL     1     -10.154   5.936  66.336  1.00  0.00    -0.110 A  
HETATM    3  N   UNL     1      -8.937   6.316  65.884  1.00  0.00    -0.142 NA 
HETATM    4  C   UNL     1      -8.523   7.575  66.185  1.00  0.00    -0.144 A  
HETATM    5  C   UNL     1      -9.227   8.470  66.984  1.00  0.00    -0.187 A  
HETATM    6  C   UNL     1     -11.022   6.824  66.953  1.00  0.00    -0.370 A  
HETATM    7  C   UNL     1     -10.546   8.091  67.282  1.00  0.00    -0.360 A  
ENDROOT
BRANCH   5   8
HETATM    8  C   UNL     1      -8.649   9.705  67.563  1.00  0.00    -0.126 A  
HETATM    9  C   UNL     1      -8.367   9.939  68.937  1.00  0.00    -0.124 A  
HETATM   10  C   UNL     1      -7.892  11.236  69.258  1.00  0.00     0.040 A  
HETATM   11  N   UNL     1      -8.505  10.687  66.617  1.00  0.00    -0.133 NA 
HETATM   12  C   UNL     1      -7.739  12.221  68.291  1.00  0.00    -0.143 A  
HETATM   13  C   UNL     1      -8.069  11.909  66.996  1.00  0.00    -0.167 A  
HETATM   14 CL   UNL     1      -7.187  13.789  68.718  1.00  0.00    -0.105 Cl 
BRANCH   9  15
HETATM   15  C   UNL     1      -8.576   8.991  70.074  1.00  0.00    -0.157 A  
HETATM   16  C   UNL     1      -9.668   9.158  70.958  1.00  0.00    -0.359 A  
HETATM   17  C   UNL     1      -9.935   8.249  71.990  1.00  0.00    -0.327 A  
HETATM   18  C   UNL     1      -9.081   7.168  72.187  1.00  0.00    -0.129 A  
HETATM   19  C   UNL     1      -7.971   6.992  71.366  1.00  0.00    -0.103 A  
HETATM   20  C   UNL     1      -7.758   7.867  70.294  1.00  0.00    -0.088 A  
BRANCH  18  21
HETATM   21  S   UNL     1      -9.401   6.017  73.496  1.00  0.00    -0.135 S  
HETATM   22  C   UNL     1     -10.022   4.590  72.631  1.00  0.00    -0.165 C  
HETATM   23  O   UNL     1      -8.128   5.665  74.094  1.00  0.00    -0.105 OA 
HETATM   24  O   UNL     1     -10.482   6.556  74.299  1.00  0.00    -0.333 OA 
ENDBRANCH  18  21
ENDBRANCH   9  15
ENDBRANCH   5   8
TORSDOF 3
ENDMDL
MODEL      106
REMARK 921   NORMALIZED FREE ENERGY PREDICTED BY IDOCK:   -3.61 KCAL/MOL
REMARK 922        TOTAL FREE ENERGY PREDICTED BY IDOCK:   -5.10 KCAL/MOL
REMARK 923 INTER-LIGAND FREE ENERGY PREDICTED BY IDOCK:   -4.67 KCAL/MOL
REMARK 924 INTRA-LIGAND FREE ENERGY PREDICTED BY IDOCK:   -0.43 KCAL/MOL
REMARK 927      BINDING AFFINITY PREDICTED BY RF-SCORE:    0.00 PKD
ROOT
HETATM    1  C   UNL     1     -12.795  14.448  64.836  1.00  0.00    -0.057 C  
HETATM    2  C   UNL     1     -11.803  13.703  65.677  1.00  0.00    -0.364 A  
HETATM    3  N   UNL     1     -12.083  13.561  66.992  1.00  0.00    -0.378 NA 
HETATM    4  C   UNL     1     -11.104  13.056  67.789  1.00  0.00    -0.262 A  
HETATM    5  C   UNL     1      -9.816  12.749  67.363  1.00  0.00    -0.210 A  
HETATM    6  C   UNL     1     -10.629  13.224  65.116  1.00  0.00    -0.342 A  
HETATM    7  C   UNL     1      -9.634  12.755  65.970  1.00  0.00    -0.182 A  
ENDROOT
BRANCH   5   8
HETATM    8  C   UNL     1      -8.673  12.501  68.272  1.00  0.00    -0.171 A  
HETATM    9  C   UNL     1      -7.777  13.479  68.784  1.00  0.00    -0.044 A  
HETATM   10  C   UNL     1      -6.707  12.985  69.572  1.00  0.00     0.029 A  
HETATM   11  N   UNL     1      -8.487  11.161  68.495  1.00  0.00    -0.150 NA 
HETATM   12  C   UNL     1      -6.533  11.627  69.802  1.00  0.00    -0.111 A  
HETATM   13  C   UNL     1      -7.432  10.757  69.236  1.00  0.00    -0.135 A  
HETATM   14 CL   UNL     1      -5.211  11.059  70.738  1.00  0.00    -0.097 Cl 
BRANCH   9  15
HETATM   15  C   UNL     1      -7.811  14.953  68.532  1.00  0.00    -0.126 A  
HETATM   16  C   UNL     1      -6.694  15.762  68.846  1.00  0.00    -0.126 A  
HETATM   17  C   UNL     1      -6.665  17.132  68.558  1.00  0.00    -0.178 A  
HETATM   18  C   UNL     1      -7.778  17.734  67.982  1.00  0.00    -0.238 A  
HETATM   19  C   UNL     1      -8.914  16.983  67.696  1.00  0.00    -0.221 A  
HETATM   20  C   UNL     1      -8.903  15.600  67.923  1.00  0.00    -0.171 A  
BRANCH  18  21
HETATM   21  S   UNL     1      -7.757  19.470  67.622  1.00  0.00    -0.280 S  
HETATM   22  C   UNL     1      -6.503  20.091  68.723  1.00  0.00    -0.314 C  
HETATM   23  O   UNL     1      -7.285  19.632  66.261  1.00  0.00    -0.234 OA 
HETATM   24  O   UNL     1      -9.031  20.020  68.044  1.00  0.00    -0.309 OA 
ENDBRANCH  18  21
ENDBRANCH   9  15
ENDBRANCH   5   8
TORSDOF 3
ENDMDL
MODEL      107
REMARK 921   NORMALIZED FREE ENERGY PREDICTED BY IDOCK:   -3.48 KCAL/MOL
REMARK 922        TOTAL FREE ENERGY PREDICTED BY IDOCK:   -4.95 KCAL/MOL
REMARK 923 INTER-LIGAND FREE ENERGY PREDICTED BY IDOCK:   -4.18 KCAL/MOL
REMARK 924 INTRA-LIGAND FREE ENERGY PREDICTED BY IDOCK:   -0.77 KCAL/MOL
REMARK 927      BINDING AFFINITY PREDICTED BY RF-SCORE:    0.00 PKD
ROOT
HETATM    1  C   UNL     1      -6.116   1.511  71.406  1.00  0.00    -0.014 C  
HETATM    2  C   UNL     1      -6.988   2.241  70.430  1.00  0.00    -0.033 A  
HETATM    3  N   UNL     1      -8.199   1.706  70.155  1.00  0.00    -0.041 NA 
HETATM    4  C   UNL     1      -8.909   2.256  69.135  1.00  0.00    -0.094 A  
HETATM    5  C   UNL     1      -8.448   3.276  68.309  1.00  0.00    -0.105 A  
HETATM    6  C   UNL     1      -6.533   3.394  69.810  1.00  0.00    -0.033 A  
HETATM    7  C   UNL     1      -7.267   3.903  68.741  1.00  0.00    -0.054 A  
ENDROOT
BRANCH   5   8
HETATM    8  C   UNL     1      -9.078   3.658  67.024  1.00  0.00    -0.167 A  
HETATM    9  C   UNL     1      -9.904   4.793  66.796  1.00  0.00    -0.227 A  
HETATM   10  C   UNL     1     -10.459   4.902  65.496  1.00  0.00    -0.091 A  
HETATM   11  N   UNL     1      -8.867   2.710  66.057  1.00  0.00    -0.132 NA 
HETATM   12  C   UNL     1     -10.231   3.942  64.519  1.00  0.00    -0.223 A  
HETATM   13  C   UNL     1      -9.446   2.864  64.846  1.00  0.00    -0.123 A  
HETATM   14 CL   UNL     1     -10.941   4.088  62.964  1.00  0.00    -0.036 Cl 
BRANCH   9  15
HETATM   15  C   UNL     1     -10.293   5.840  67.790  1.00  0.00    -0.266 A  
HETATM   16  C   UNL     1     -10.776   5.474  69.068  1.00  0.00    -0.231 A  
HETATM   17  C   UNL     1     -11.082   6.427  70.048  1.00  0.00    -0.442 A  
HETATM   18  C   UNL     1     -10.950   7.780  69.752  1.00  0.00    -0.158 A  
HETATM   19  C   UNL     1     -10.518   8.184  68.492  1.00  0.00    -0.199 A  
HETATM   20  C   UNL     1     -10.147   7.219  67.546  1.00  0.00    -0.250 A  
BRANCH  18  21
HETATM   21  S   UNL     1     -11.344   8.996  70.980  1.00  0.00    -0.319 S  
HETATM   22  C   UNL     1     -11.610  10.467  70.014  1.00  0.00    -0.301 C  
HETATM   23  O   UNL     1     -12.607   8.617  71.584  1.00  0.00    -0.313 OA 
HETATM   24  O   UNL     1     -10.158   9.202  71.788  1.00  0.00    -0.329 OA 
ENDBRANCH  18  21
ENDBRANCH   9  15
ENDBRANCH   5   8
TORSDOF 3
ENDMDL
MODEL      108
REMARK 921   NORMALIZED FREE ENERGY PREDICTED BY IDOCK:   -3.39 KCAL/MOL
REMARK 922        TOTAL FREE ENERGY PREDICTED BY IDOCK:   -4.85 KCAL/MOL
REMARK 923 INTER-LIGAND FREE ENERGY PREDICTED BY IDOCK:   -3.95 KCAL/MOL
REMARK 924 INTRA-LIGAND FREE ENERGY PREDICTED BY IDOCK:   -0.90 KCAL/MOL
REMARK 927      BINDING AFFINITY PREDICTED BY RF-SCORE:    0.00 PKD
ROOT
HETATM    1  C   UNL     1      -7.856   2.246  65.144  1.00  0.00    -0.077 C  
HETATM    2  C   UNL     1      -8.080   2.840  66.502  1.00  0.00    -0.082 A  
HETATM    3  N   UNL     1      -9.128   2.377  67.220  1.00  0.00    -0.157 NA 
HETATM    4  C   UNL     1      -9.447   3.041  68.362  1.00  0.00    -0.146 A  
HETATM    5  C   UNL     1      -8.821   4.202  68.803  1.00  0.00    -0.143 A  
HETATM    6  C   UNL     1      -7.259   3.855  66.967  1.00  0.00    -0.064 A  
HETATM    7  C   UNL     1      -7.642   4.540  68.117  1.00  0.00    -0.076 A  
ENDROOT
BRANCH   5   8
HETATM    8  C   UNL     1      -9.359   5.090  69.860  1.00  0.00    -0.139 A  
HETATM    9  C   UNL     1      -9.556   6.495  69.760  1.00  0.00    -0.161 A  
HETATM   10  C   UNL     1     -10.007   7.141  70.939  1.00  0.00    -0.193 A  
HETATM   11  N   UNL     1      -9.555   4.414  71.036  1.00  0.00    -0.165 NA 
HETATM   12  C   UNL     1     -10.214   6.446  72.123  1.00  0.00    -0.186 A  
HETATM   13  C   UNL     1      -9.963   5.096  72.129  1.00  0.00    -0.187 A  
HETATM   14 CL   UNL     1     -10.733   7.263  73.539  1.00  0.00    -0.417 Cl 
BRANCH   9  15
HETATM   15  C   UNL     1      -9.283   7.361  68.572  1.00  0.00    -0.142 A  
HETATM   16  C   UNL     1     -10.206   7.427  67.502  1.00  0.00    -0.289 A  
HETATM   17  C   UNL     1     -10.016   8.281  66.408  1.00  0.00    -0.264 A  
HETATM   18  C   UNL     1      -8.867   9.062  66.341  1.00  0.00    -0.146 A  
HETATM   19  C   UNL     1      -7.913   8.996  67.352  1.00  0.00    -0.100 A  
HETATM   20  C   UNL     1      -8.151   8.192  68.475  1.00  0.00    -0.124 A  
BRANCH  18  21
HETATM   21  S   UNL     1      -8.611  10.138  64.956  1.00  0.00    -0.178 S  
HETATM   22  C   UNL     1      -9.666  11.523  65.326  1.00  0.00    -0.238 C  
HETATM   23  O   UNL     1      -7.235  10.594  65.002  1.00  0.00    -0.047 OA 
HETATM   24  O   UNL     1      -9.142   9.475  63.782  1.00  0.00    -0.224 OA 
ENDBRANCH  18  21
ENDBRANCH   9  15
ENDBRANCH   5   8
TORSDOF 3
ENDMDL
MODEL      109
REMARK 921   NORMALIZED FREE ENERGY PREDICTED BY IDOCK:   -3.36 KCAL/MOL
REMARK 922        TOTAL FREE ENERGY PREDICTED BY IDOCK:   -4.81 KCAL/MOL
REMARK 923 INTER-LIGAND FREE ENERGY PREDICTED BY IDOCK:   -4.65 KCAL/MOL
REMARK 924 INTRA-LIGAND FREE ENERGY PREDICTED BY IDOCK:   -0.16 KCAL/MOL
REMARK 927      BINDING AFFINITY PREDICTED BY RF-SCORE:    0.00 PKD
ROOT
HETATM    1  C   UNL     1     -12.535  14.706  64.219  1.00  0.00    -0.267 C  
HETATM    2  C   UNL     1     -11.199  14.851  64.882  1.00  0.00    -0.410 A  
HETATM    3  N   UNL     1     -10.562  13.719  65.255  1.00  0.00    -0.334 NA 
HETATM    4  C   UNL     1      -9.448  13.851  66.022  1.00  0.00    -0.118 A  
HETATM    5  C   UNL     1      -8.963  15.060  66.511  1.00  0.00    -0.310 A  
HETATM    6  C   UNL     1     -10.675  16.110  65.134  1.00  0.00    -0.391 A  
HETATM    7  C   UNL     1      -9.558  16.206  65.959  1.00  0.00    -0.381 A  
ENDROOT
BRANCH   5   8
HETATM    8  C   UNL     1      -7.950  15.179  67.586  1.00  0.00    -0.161 A  
HETATM    9  C   UNL     1      -7.374  14.108  68.323  1.00  0.00    -0.120 A  
HETATM   10  C   UNL     1      -6.485  14.481  69.362  1.00  0.00    -0.132 A  
HETATM   11  N   UNL     1      -7.691  16.490  67.892  1.00  0.00    -0.150 NA 
HETATM   12  C   UNL     1      -6.219  15.811  69.658  1.00  0.00    -0.169 A  
HETATM   13  C   UNL     1      -6.851  16.775  68.911  1.00  0.00    -0.198 A  
HETATM   14 CL   UNL     1      -5.160  16.229  70.941  1.00  0.00    -0.195 Cl 
BRANCH   9  15
HETATM   15  C   UNL     1      -7.651  12.648  68.157  1.00  0.00    -0.132 A  
HETATM   16  C   UNL     1      -8.834  12.076  68.680  1.00  0.00    -0.024 A  
HETATM   17  C   UNL     1      -9.159  10.728  68.482  1.00  0.00    -0.170 A  
HETATM   18  C   UNL     1      -8.278   9.907  67.786  1.00  0.00    -0.114 A  
HETATM   19  C   UNL     1      -7.083  10.420  67.291  1.00  0.00    -0.088 A  
HETATM   20  C   UNL     1      -6.805  11.786  67.433  1.00  0.00    -0.122 A  
BRANCH  18  21
HETATM   21  S   UNL     1      -8.673   8.197  67.538  1.00  0.00    -0.129 S  
HETATM   22  C   UNL     1     -10.402   8.243  67.119  1.00  0.00    -0.317 C  
HETATM   23  O   UNL     1      -7.938   7.739  66.375  1.00  0.00    -0.095 OA 
HETATM   24  O   UNL     1      -8.543   7.528  68.818  1.00  0.00    -0.129 OA 
ENDBRANCH  18  21
ENDBRANCH   9  15
ENDBRANCH   5   8
TORSDOF 3
ENDMDL
MODEL      110
REMARK 921   NORMALIZED FREE ENERGY PREDICTED BY IDOCK:   -3.36 KCAL/MOL
REMARK 922        TOTAL FREE ENERGY PREDICTED BY IDOCK:   -4.81 KCAL/MOL
REMARK 923 INTER-LIGAND FREE ENERGY PREDICTED BY IDOCK:   -4.08 KCAL/MOL
REMARK 924 INTRA-LIGAND FREE ENERGY PREDICTED BY IDOCK:   -0.73 KCAL/MOL
REMARK 927      BINDING AFFINITY PREDICTED BY RF-SCORE:    0.00 PKD
ROOT
HETATM    1  C   UNL     1      -5.285  11.380  71.983  1.00  0.00     0.268 C  
HETATM    2  C   UNL     1      -5.228  12.694  71.264  1.00  0.00    -0.149 A  
HETATM    3  N   UNL     1      -5.294  13.818  72.012  1.00  0.00    -0.260 NA 
HETATM    4  C   UNL     1      -5.435  15.000  71.356  1.00  0.00     0.002 A  
HETATM    5  C   UNL     1      -5.590  15.127  69.980  1.00  0.00    -0.124 A  
HETATM    6  C   UNL     1      -5.155  12.732  69.880  1.00  0.00    -0.082 A  
HETATM    7  C   UNL     1      -5.345  13.955  69.243  1.00  0.00    -0.081 A  
ENDROOT
BRANCH   5   8
HETATM    8  C   UNL     1      -6.049  16.361  69.302  1.00  0.00    -0.169 A  
HETATM    9  C   UNL     1      -7.207  16.493  68.487  1.00  0.00    -0.175 A  
HETATM   10  C   UNL     1      -7.393  17.760  67.878  1.00  0.00    -0.215 A  
HETATM   11  N   UNL     1      -5.151  17.385  69.454  1.00  0.00    -0.160 NA 
HETATM   12  C   UNL     1      -6.483  18.796  68.047  1.00  0.00    -0.218 A  
HETATM   13  C   UNL     1      -5.377  18.560  68.826  1.00  0.00    -0.189 A  
HETATM   14 CL   UNL     1      -6.722  20.308  67.273  1.00  0.00    -0.258 Cl 
BRANCH   9  15
HETATM   15  C   UNL     1      -8.206  15.430  68.161  1.00  0.00    -0.144 A  
HETATM   16  C   UNL     1      -8.604  15.204  66.822  1.00  0.00    -0.297 A  
HETATM   17  C   UNL     1      -9.483  14.170  66.473  1.00  0.00    -0.303 A  
HETATM   18  C   UNL     1     -10.019  13.362  67.470  1.00  0.00    -0.230 A  
HETATM   19  C   UNL     1      -9.686  13.577  68.804  1.00  0.00    -0.016 A  
HETATM   20  C   UNL     1      -8.751  14.567  69.131  1.00  0.00     0.032 A  
BRANCH  18  21
HETATM   21  S   UNL     1     -11.141  12.057  67.041  1.00  0.00    -0.317 S  
HETATM   22  C   UNL     1     -12.028  11.779  68.558  1.00  0.00    -0.215 C  
HETATM   23  O   UNL     1     -12.072  12.582  66.062  1.00  0.00    -0.557 OA 
HETATM   24  O   UNL     1     -10.350  10.873  66.764  1.00  0.00    -0.222 OA 
ENDBRANCH  18  21
ENDBRANCH   9  15
ENDBRANCH   5   8
TORSDOF 3
ENDMDL
MODEL      111
REMARK 921   NORMALIZED FREE ENERGY PREDICTED BY IDOCK:   -3.30 KCAL/MOL
REMARK 922        TOTAL FREE ENERGY PREDICTED BY IDOCK:   -4.75 KCAL/MOL
REMARK 923 INTER-LIGAND FREE ENERGY PREDICTED BY IDOCK:   -4.07 KCAL/MOL
REMARK 924 INTRA-LIGAND FREE ENERGY PREDICTED BY IDOCK:   -0.68 KCAL/MOL
REMARK 927      BINDING AFFINITY PREDICTED BY RF-SCORE:    0.00 PKD
ROOT
HETATM    1  C   UNL     1     -12.988  12.229  63.001  1.00  0.00     0.280 C  
HETATM    2  C   UNL     1     -11.969  11.882  64.044  1.00  0.00    -0.356 A  
HETATM    3  N   UNL     1     -12.285  12.137  65.334  1.00  0.00    -0.495 NA 
HETATM    4  C   UNL     1     -11.298  12.002  66.259  1.00  0.00    -0.357 A  
HETATM    5  C   UNL     1      -9.974  11.696  65.964  1.00  0.00    -0.260 A  
HETATM    6  C   UNL     1     -10.738  11.360  63.675  1.00  0.00    -0.470 A  
HETATM    7  C   UNL     1      -9.740  11.278  64.643  1.00  0.00    -0.294 A  
ENDROOT
BRANCH   5   8
HETATM    8  C   UNL     1      -8.849  11.853  66.914  1.00  0.00    -0.197 A  
HETATM    9  C   UNL     1      -8.058  10.807  67.464  1.00  0.00    -0.111 A  
HETATM   10  C   UNL     1      -7.089  11.203  68.421  1.00  0.00    -0.076 A  
HETATM   11  N   UNL     1      -8.707  13.156  67.316  1.00  0.00    -0.202 NA 
HETATM   12  C   UNL     1      -6.944  12.527  68.814  1.00  0.00    -0.094 A  
HETATM   13  C   UNL     1      -7.779  13.460  68.250  1.00  0.00    -0.141 A  
HETATM   14 CL   UNL     1      -5.780  12.968  69.995  1.00  0.00    -0.122 Cl 
BRANCH   9  15
HETATM   15  C   UNL     1      -8.181   9.343  67.187  1.00  0.00    -0.113 A  
HETATM   16  C   UNL     1      -7.910   8.830  65.898  1.00  0.00    -0.102 A  
HETATM   17  C   UNL     1      -7.947   7.457  65.621  1.00  0.00    -0.118 A  
HETATM   18  C   UNL     1      -8.301   6.565  66.629  1.00  0.00    -0.113 A  
HETATM   19  C   UNL     1      -8.617   7.033  67.901  1.00  0.00    -0.126 A  
HETATM   20  C   UNL     1      -8.506   8.400  68.182  1.00  0.00    -0.132 A  
BRANCH  18  21
HETATM   21  S   UNL     1      -8.362   4.827  66.288  1.00  0.00    -0.111 S  
HETATM   22  C   UNL     1      -9.688   4.262  67.331  1.00  0.00    -0.163 C  
HETATM   23  O   UNL     1      -8.771   4.663  64.907  1.00  0.00    -0.133 OA 
HETATM   24  O   UNL     1      -7.129   4.241  66.779  1.00  0.00    -0.065 OA 
ENDBRANCH  18  21
ENDBRANCH   9  15
ENDBRANCH   5   8
TORSDOF 3
ENDMDL
MODEL      112
REMARK 921   NORMALIZED FREE ENERGY PREDICTED BY IDOCK:   -3.27 KCAL/MOL
REMARK 922        TOTAL FREE ENERGY PREDICTED BY IDOCK:   -4.70 KCAL/MOL
REMARK 923 INTER-LIGAND FREE ENERGY PREDICTED BY IDOCK:   -3.73 KCAL/MOL
REMARK 924 INTRA-LIGAND FREE ENERGY PREDICTED BY IDOCK:   -0.97 KCAL/MOL
REMARK 927      BINDING AFFINITY PREDICTED BY RF-SCORE:    0.00 PKD
ROOT
HETATM    1  C   UNL     1      -5.741   2.419  71.260  1.00  0.00    -0.013 C  
HETATM    2  C   UNL     1      -6.614   2.883  70.133  1.00  0.00    -0.033 A  
HETATM    3  N   UNL     1      -7.863   2.370  70.060  1.00  0.00    -0.042 NA 
HETATM    4  C   UNL     1      -8.586   2.639  68.941  1.00  0.00    -0.074 A  
HETATM    5  C   UNL     1      -8.107   3.339  67.839  1.00  0.00    -0.082 A  
HETATM    6  C   UNL     1      -6.125   3.771  69.188  1.00  0.00    -0.028 A  
HETATM    7  C   UNL     1      -6.876   3.988  68.035  1.00  0.00    -0.047 A  
ENDROOT
BRANCH   5   8
HETATM    8  C   UNL     1      -8.769   3.365  66.514  1.00  0.00    -0.126 A  
HETATM    9  C   UNL     1      -9.510   4.447  65.964  1.00  0.00    -0.173 A  
HETATM   10  C   UNL     1     -10.122   4.202  64.709  1.00  0.00    -0.204 A  
HETATM   11  N   UNL     1      -8.688   2.150  65.885  1.00  0.00    -0.116 NA 
HETATM   12  C   UNL     1     -10.026   2.971  64.074  1.00  0.00    -0.162 A  
HETATM   13  C   UNL     1      -9.316   1.977  64.701  1.00  0.00    -0.119 A  
HETATM   14 CL   UNL     1     -10.802   2.699  62.568  1.00  0.00    -0.164 Cl 
BRANCH   9  15
HETATM   15  C   UNL     1      -9.758   5.781  66.592  1.00  0.00    -0.180 A  
HETATM   16  C   UNL     1      -8.962   6.898  66.248  1.00  0.00    -0.172 A  
HETATM   17  C   UNL     1      -9.211   8.176  66.763  1.00  0.00    -0.206 A  
HETATM   18  C   UNL     1     -10.246   8.356  67.675  1.00  0.00    -0.236 A  
HETATM   19  C   UNL     1     -11.026   7.275  68.074  1.00  0.00    -0.081 A  
HETATM   20  C   UNL     1     -10.812   6.018  67.496  1.00  0.00    -0.393 A  
BRANCH  18  21
HETATM   21  S   UNL     1     -10.565   9.967  68.343  1.00  0.00    -0.232 S  
HETATM   22  C   UNL     1      -9.025  10.820  68.080  1.00  0.00    -0.139 C  
HETATM   23  O   UNL     1     -11.576  10.595  67.515  1.00  0.00    -0.482 OA 
HETATM   24  O   UNL     1     -10.753   9.819  69.773  1.00  0.00    -0.225 OA 
ENDBRANCH  18  21
ENDBRANCH   9  15
ENDBRANCH   5   8
TORSDOF 3
ENDMDL
MODEL      113
REMARK 921   NORMALIZED FREE ENERGY PREDICTED BY IDOCK:   -3.26 KCAL/MOL
REMARK 922        TOTAL FREE ENERGY PREDICTED BY IDOCK:   -4.69 KCAL/MOL
REMARK 923 INTER-LIGAND FREE ENERGY PREDICTED BY IDOCK:   -3.75 KCAL/MOL
REMARK 924 INTRA-LIGAND FREE ENERGY PREDICTED BY IDOCK:   -0.95 KCAL/MOL
REMARK 927      BINDING AFFINITY PREDICTED BY RF-SCORE:    0.00 PKD
ROOT
HETATM    1  C   UNL     1      -5.234  12.236  70.987  1.00  0.00    -0.150 C  
HETATM    2  C   UNL     1      -6.117  12.070  69.787  1.00  0.00    -0.145 A  
HETATM    3  N   UNL     1      -6.054  13.023  68.831  1.00  0.00    -0.078 NA 
HETATM    4  C   UNL     1      -6.983  12.978  67.840  1.00  0.00    -0.127 A  
HETATM    5  C   UNL     1      -8.035  12.071  67.782  1.00  0.00    -0.147 A  
HETATM    6  C   UNL     1      -6.991  10.997  69.703  1.00  0.00    -0.110 A  
HETATM    7  C   UNL     1      -7.955  11.009  68.699  1.00  0.00    -0.143 A  
ENDROOT
BRANCH   5   8
HETATM    8  C   UNL     1      -9.211  12.211  66.892  1.00  0.00    -0.203 A  
HETATM    9  C   UNL     1      -9.586  11.324  65.847  1.00  0.00    -0.249 A  
HETATM   10  C   UNL     1     -10.710  11.717  65.076  1.00  0.00    -0.351 A  
HETATM   11  N   UNL     1      -9.873  13.392  67.112  1.00  0.00    -0.233 NA 
HETATM   12  C   UNL     1     -11.381  12.909  65.313  1.00  0.00    -0.300 A  
HETATM   13  C   UNL     1     -10.921  13.716  66.325  1.00  0.00    -0.299 A  
HETATM   14 CL   UNL     1     -12.720  13.369  64.344  1.00  0.00    -0.221 Cl 
BRANCH   9  15
HETATM   15  C   UNL     1      -8.891  10.064  65.441  1.00  0.00    -0.199 A  
HETATM   16  C   UNL     1      -9.393   8.804  65.843  1.00  0.00    -0.284 A  
HETATM   17  C   UNL     1      -8.808   7.603  65.422  1.00  0.00     0.036 A  
HETATM   18  C   UNL     1      -7.674   7.638  64.618  1.00  0.00    -0.121 A  
HETATM   19  C   UNL     1      -7.123   8.857  64.235  1.00  0.00    -0.090 A  
HETATM   20  C   UNL     1      -7.760  10.050  64.603  1.00  0.00    -0.146 A  
BRANCH  18  21
HETATM   21  S   UNL     1      -6.918   6.124  64.089  1.00  0.00    -0.053 S  
HETATM   22  C   UNL     1      -6.701   6.377  62.340  1.00  0.00    -0.038 C  
HETATM   23  O   UNL     1      -5.606   6.049  64.701  1.00  0.00    -0.017 OA 
HETATM   24  O   UNL     1      -7.891   5.064  64.267  1.00  0.00    -0.081 OA 
ENDBRANCH  18  21
ENDBRANCH   9  15
ENDBRANCH   5   8
TORSDOF 3
ENDMDL
MODEL      114
REMARK 921   NORMALIZED FREE ENERGY PREDICTED BY IDOCK:   -3.25 KCAL/MOL
REMARK 922        TOTAL FREE ENERGY PREDICTED BY IDOCK:   -4.69 KCAL/MOL
REMARK 923 INTER-LIGAND FREE ENERGY PREDICTED BY IDOCK:   -4.10 KCAL/MOL
REMARK 924 INTRA-LIGAND FREE ENERGY PREDICTED BY IDOCK:   -0.58 KCAL/MOL
REMARK 927      BINDING AFFINITY PREDICTED BY RF-SCORE:    0.00 PKD
ROOT
HETATM    1  C   UNL     1      -6.015  11.592  70.242  1.00  0.00    -0.160 C  
HETATM    2  C   UNL     1      -6.190  10.360  69.407  1.00  0.00    -0.049 A  
HETATM    3  N   UNL     1      -6.334  10.526  68.073  1.00  0.00    -0.058 NA 
HETATM    4  C   UNL     1      -6.681   9.435  67.340  1.00  0.00    -0.068 A  
HETATM    5  C   UNL     1      -6.970   8.183  67.872  1.00  0.00    -0.078 A  
HETATM    6  C   UNL     1      -6.242   9.110  70.004  1.00  0.00    -0.038 A  
HETATM    7  C   UNL     1      -6.643   8.024  69.230  1.00  0.00    -0.036 A  
ENDROOT
BRANCH   5   8
HETATM    8  C   UNL     1      -7.641   7.094  67.126  1.00  0.00    -0.103 A  
HETATM    9  C   UNL     1      -8.940   6.573  67.382  1.00  0.00    -0.110 A  
HETATM   10  C   UNL     1      -9.332   5.470  66.582  1.00  0.00    -0.147 A  
HETATM   11  N   UNL     1      -6.809   6.535  66.191  1.00  0.00    -0.056 NA 
HETATM   12  C   UNL     1      -8.486   4.918  65.629  1.00  0.00    -0.124 A  
HETATM   13  C   UNL     1      -7.238   5.470  65.480  1.00  0.00    -0.068 A  
HETATM   14 CL   UNL     1      -8.981   3.565  64.697  1.00  0.00    -0.122 Cl 
BRANCH   9  15
HETATM   15  C   UNL     1      -9.900   7.024  68.436  1.00  0.00    -0.148 A  
HETATM   16  C   UNL     1     -10.747   6.094  69.082  1.00  0.00    -0.381 A  
HETATM   17  C   UNL     1     -11.607   6.469  70.122  1.00  0.00    -0.466 A  
HETATM   18  C   UNL     1     -11.668   7.803  70.511  1.00  0.00    -0.102 A  
HETATM   19  C   UNL     1     -10.883   8.758  69.872  1.00  0.00    -0.211 A  
HETATM   20  C   UNL     1      -9.975   8.357  68.884  1.00  0.00    -0.194 A  
BRANCH  18  21
HETATM   21  S   UNL     1     -12.761   8.292  71.819  1.00  0.00    -0.346 S  
HETATM   22  C   UNL     1     -12.809  10.064  71.656  1.00  0.00    -0.440 C  
HETATM   23  O   UNL     1     -14.079   7.774  71.508  1.00  0.00    -0.401 OA 
HETATM   24  O   UNL     1     -12.109   7.978  73.075  1.00  0.00    -0.200 OA 
ENDBRANCH  18  21
ENDBRANCH   9  15
ENDBRANCH   5   8
TORSDOF 3
ENDMDL
MODEL      115
REMARK 921   NORMALIZED FREE ENERGY PREDICTED BY IDOCK:   -3.16 KCAL/MOL
REMARK 922        TOTAL FREE ENERGY PREDICTED BY IDOCK:   -4.58 KCAL/MOL
REMARK 923 INTER-LIGAND FREE ENERGY PREDICTED BY IDOCK:   -3.64 KCAL/MOL
REMARK 924 INTRA-LIGAND FREE ENERGY PREDICTED BY IDOCK:   -0.94 KCAL/MOL
REMARK 927      BINDING AFFINITY PREDICTED BY RF-SCORE:    0.00 PKD
ROOT
HETATM    1  C   UNL     1      -6.942   8.622  72.907  1.00  0.00     0.008 C  
HETATM    2  C   UNL     1      -7.277   8.302  71.481  1.00  0.00    -0.084 A  
HETATM    3  N   UNL     1      -8.033   7.206  71.249  1.00  0.00    -0.101 NA 
HETATM    4  C   UNL     1      -8.178   6.807  69.958  1.00  0.00    -0.134 A  
HETATM    5  C   UNL     1      -7.544   7.400  68.871  1.00  0.00    -0.103 A  
HETATM    6  C   UNL     1      -6.781   9.088  70.452  1.00  0.00    -0.052 A  
HETATM    7  C   UNL     1      -6.912   8.624  69.146  1.00  0.00    -0.063 A  
ENDROOT
BRANCH   5   8
HETATM    8  C   UNL     1      -7.450   6.788  67.525  1.00  0.00    -0.097 A  
HETATM    9  C   UNL     1      -8.009   7.306  66.324  1.00  0.00    -0.110 A  
HETATM   10  C   UNL     1      -7.855   6.495  65.171  1.00  0.00    -0.111 A  
HETATM   11  N   UNL     1      -6.837   5.563  67.569  1.00  0.00    -0.059 NA 
HETATM   12  C   UNL     1      -7.223   5.259  65.223  1.00  0.00    -0.067 A  
HETATM   13  C   UNL     1      -6.746   4.831  66.437  1.00  0.00    -0.054 A  
HETATM   14 CL   UNL     1      -7.078   4.290  63.815  1.00  0.00    -0.045 Cl 
BRANCH   9  15
HETATM   15  C   UNL     1      -8.786   8.573  66.165  1.00  0.00    -0.200 A  
HETATM   16  C   UNL     1     -10.104   8.677  66.668  1.00  0.00    -0.364 A  
HETATM   17  C   UNL     1     -10.834   9.870  66.599  1.00  0.00    -0.031 A  
HETATM   18  C   UNL     1     -10.271  10.982  65.981  1.00  0.00    -0.252 A  
HETATM   19  C   UNL     1      -8.993  10.910  65.434  1.00  0.00    -0.209 A  
HETATM   20  C   UNL     1      -8.247   9.732  65.575  1.00  0.00    -0.129 A  
BRANCH  18  21
HETATM   21  S   UNL     1     -11.189  12.495  65.877  1.00  0.00    -0.336 S  
HETATM   22  C   UNL     1     -12.334  12.177  64.552  1.00  0.00    -0.307 C  
HETATM   23  O   UNL     1     -11.947  12.635  67.105  1.00  0.00    -0.437 OA 
HETATM   24  O   UNL     1     -10.276  13.532  65.438  1.00  0.00    -0.303 OA 
ENDBRANCH  18  21
ENDBRANCH   9  15
ENDBRANCH   5   8
TORSDOF 3
ENDMDL
MODEL      116
REMARK 921   NORMALIZED FREE ENERGY PREDICTED BY IDOCK:   -3.15 KCAL/MOL
REMARK 922        TOTAL FREE ENERGY PREDICTED BY IDOCK:   -4.57 KCAL/MOL
REMARK 923 INTER-LIGAND FREE ENERGY PREDICTED BY IDOCK:   -3.62 KCAL/MOL
REMARK 924 INTRA-LIGAND FREE ENERGY PREDICTED BY IDOCK:   -0.95 KCAL/MOL
REMARK 927      BINDING AFFINITY PREDICTED BY RF-SCORE:    0.00 PKD
ROOT
HETATM    1  C   UNL     1     -14.190   7.991  72.829  1.00  0.00     0.225 C  
HETATM    2  C   UNL     1     -13.519   8.937  71.879  1.00  0.00    -0.414 A  
HETATM    3  N   UNL     1     -12.241   9.287  72.148  1.00  0.00    -0.341 NA 
HETATM    4  C   UNL     1     -11.696  10.284  71.402  1.00  0.00    -0.227 A  
HETATM    5  C   UNL     1     -12.381  11.018  70.439  1.00  0.00    -0.442 A  
HETATM    6  C   UNL     1     -14.215   9.455  70.798  1.00  0.00     0.441 A  
HETATM    7  C   UNL     1     -13.640  10.504  70.085  1.00  0.00     0.913 A  
ENDROOT
BRANCH   5   8
HETATM    8  C   UNL     1     -11.894  12.289  69.856  1.00  0.00    -0.311 A  
HETATM    9  C   UNL     1     -10.931  12.427  68.819  1.00  0.00    -0.287 A  
HETATM   10  C   UNL     1     -10.565  13.756  68.487  1.00  0.00    -0.261 A  
HETATM   11  N   UNL     1     -12.405  13.376  70.518  1.00  0.00    -0.345 NA 
HETATM   12  C   UNL     1     -11.096  14.851  69.155  1.00  0.00    -0.269 A  
HETATM   13  C   UNL     1     -11.995  14.615  70.166  1.00  0.00    -0.313 A  
HETATM   14 CL   UNL     1     -10.612  16.445  68.748  1.00  0.00    -0.289 Cl 
BRANCH   9  15
HETATM   15  C   UNL     1     -10.227  11.326  68.092  1.00  0.00    -0.196 A  
HETATM   16  C   UNL     1      -9.008  10.803  68.585  1.00  0.00    -0.162 A  
HETATM   17  C   UNL     1      -8.359   9.726  67.969  1.00  0.00    -0.110 A  
HETATM   18  C   UNL     1      -8.898   9.173  66.812  1.00  0.00    -0.127 A  
HETATM   19  C   UNL     1     -10.072   9.685  66.270  1.00  0.00    -0.322 A  
HETATM   20  C   UNL     1     -10.750  10.715  66.936  1.00  0.00    -0.297 A  
BRANCH  18  21
HETATM   21  S   UNL     1      -8.079   7.816  66.017  1.00  0.00    -0.124 S  
HETATM   22  C   UNL     1      -7.973   8.351  64.323  1.00  0.00    -0.149 C  
HETATM   23  O   UNL     1      -6.733   7.740  66.552  1.00  0.00    -0.059 OA 
HETATM   24  O   UNL     1      -8.972   6.675  66.068  1.00  0.00    -0.154 OA 
ENDBRANCH  18  21
ENDBRANCH   9  15
ENDBRANCH   5   8
TORSDOF 3
ENDMDL
MODEL      117
REMARK 921   NORMALIZED FREE ENERGY PREDICTED BY IDOCK:   -3.15 KCAL/MOL
REMARK 922        TOTAL FREE ENERGY PREDICTED BY IDOCK:   -4.57 KCAL/MOL
REMARK 923 INTER-LIGAND FREE ENERGY PREDICTED BY IDOCK:   -3.83 KCAL/MOL
REMARK 924 INTRA-LIGAND FREE ENERGY PREDICTED BY IDOCK:   -0.73 KCAL/MOL
REMARK 927      BINDING AFFINITY PREDICTED BY RF-SCORE:    0.00 PKD
ROOT
HETATM    1  C   UNL     1     -10.407   4.015  72.555  1.00  0.00    -0.223 C  
HETATM    2  C   UNL     1      -9.620   4.704  71.481  1.00  0.00    -0.163 A  
HETATM    3  N   UNL     1     -10.308   5.222  70.439  1.00  0.00    -0.275 NA 
HETATM    4  C   UNL     1      -9.590   5.675  69.378  1.00  0.00    -0.143 A  
HETATM    5  C   UNL     1      -8.208   5.575  69.257  1.00  0.00    -0.095 A  
HETATM    6  C   UNL     1      -8.236   4.758  71.551  1.00  0.00    -0.104 A  
HETATM    7  C   UNL     1      -7.535   5.188  70.428  1.00  0.00    -0.067 A  
ENDROOT
BRANCH   5   8
HETATM    8  C   UNL     1      -7.464   5.778  67.992  1.00  0.00    -0.077 A  
HETATM    9  C   UNL     1      -7.552   6.909  67.135  1.00  0.00    -0.107 A  
HETATM   10  C   UNL     1      -6.801   6.834  65.934  1.00  0.00    -0.056 A  
HETATM   11  N   UNL     1      -6.729   4.670  67.656  1.00  0.00    -0.050 NA 
HETATM   12  C   UNL     1      -6.051   5.712  65.607  1.00  0.00    -0.029 A  
HETATM   13  C   UNL     1      -6.057   4.656  66.484  1.00  0.00    -0.031 A  
HETATM   14 CL   UNL     1      -5.177   5.643  64.133  1.00  0.00    -0.013 Cl 
BRANCH   9  15
HETATM   15  C   UNL     1      -8.392   8.129  67.336  1.00  0.00    -0.122 A  
HETATM   16  C   UNL     1      -9.715   8.182  66.839  1.00  0.00    -0.291 A  
HETATM   17  C   UNL     1     -10.553   9.280  67.071  1.00  0.00    -0.263 A  
HETATM   18  C   UNL     1     -10.065  10.376  67.775  1.00  0.00    -0.181 A  
HETATM   19  C   UNL     1      -8.756  10.383  68.245  1.00  0.00    -0.128 A  
HETATM   20  C   UNL     1      -7.952   9.249  68.069  1.00  0.00    -0.100 A  
BRANCH  18  21
HETATM   21  S   UNL     1     -11.113  11.777  68.066  1.00  0.00    -0.264 S  
HETATM   22  C   UNL     1     -11.731  12.157  66.440  1.00  0.00    -0.324 C  
HETATM   23  O   UNL     1     -12.227  11.332  68.880  1.00  0.00    -0.494 OA 
HETATM   24  O   UNL     1     -10.267  12.876  68.488  1.00  0.00    -0.234 OA 
ENDBRANCH  18  21
ENDBRANCH   9  15
ENDBRANCH   5   8
TORSDOF 3
ENDMDL
MODEL      118
REMARK 921   NORMALIZED FREE ENERGY PREDICTED BY IDOCK:   -3.15 KCAL/MOL
REMARK 922        TOTAL FREE ENERGY PREDICTED BY IDOCK:   -4.56 KCAL/MOL
REMARK 923 INTER-LIGAND FREE ENERGY PREDICTED BY IDOCK:   -4.69 KCAL/MOL
REMARK 924 INTRA-LIGAND FREE ENERGY PREDICTED BY IDOCK:    0.13 KCAL/MOL
REMARK 927      BINDING AFFINITY PREDICTED BY RF-SCORE:    0.00 PKD
ROOT
HETATM    1  C   UNL     1     -10.517  19.947  66.172  1.00  0.00    -0.581 C  
HETATM    2  C   UNL     1      -9.756  18.725  66.590  1.00  0.00    -0.344 A  
HETATM    3  N   UNL     1     -10.432  17.773  67.272  1.00  0.00    -0.363 NA 
HETATM    4  C   UNL     1      -9.708  16.759  67.815  1.00  0.00    -0.248 A  
HETATM    5  C   UNL     1      -8.320  16.672  67.783  1.00  0.00    -0.184 A  
HETATM    6  C   UNL     1      -8.402  18.615  66.316  1.00  0.00    -0.249 A  
HETATM    7  C   UNL     1      -7.687  17.587  66.925  1.00  0.00    -0.248 A  
ENDROOT
BRANCH   5   8
HETATM    8  C   UNL     1      -7.522  15.753  68.627  1.00  0.00    -0.151 A  
HETATM    9  C   UNL     1      -7.455  14.339  68.501  1.00  0.00    -0.121 A  
HETATM   10  C   UNL     1      -6.684  13.666  69.483  1.00  0.00    -0.023 A  
HETATM   11  N   UNL     1      -6.911  16.418  69.659  1.00  0.00    -0.156 NA 
HETATM   12  C   UNL     1      -6.059  14.349  70.519  1.00  0.00    -0.185 A  
HETATM   13  C   UNL     1      -6.211  15.713  70.574  1.00  0.00     0.139 A  
HETATM   14 CL   UNL     1      -5.156  13.503  71.707  1.00  0.00    -0.164 Cl 
BRANCH   9  15
HETATM   15  C   UNL     1      -8.154  13.490  67.488  1.00  0.00    -0.190 A  
HETATM   16  C   UNL     1      -9.289  13.978  66.801  1.00  0.00    -0.289 A  
HETATM   17  C   UNL     1      -9.925  13.238  65.796  1.00  0.00    -0.261 A  
HETATM   18  C   UNL     1      -9.460  11.965  65.485  1.00  0.00    -0.138 A  
HETATM   19  C   UNL     1      -8.372  11.429  66.168  1.00  0.00    -0.071 A  
HETATM   20  C   UNL     1      -7.701  12.209  67.119  1.00  0.00    -0.151 A  
BRANCH  18  21
HETATM   21  S   UNL     1     -10.263  11.014  64.223  1.00  0.00    -0.373 S  
HETATM   22  C   UNL     1      -9.455  11.562  62.735  1.00  0.00    -0.188 C  
HETATM   23  O   UNL     1      -9.921   9.621  64.436  1.00  0.00     0.092 OA 
HETATM   24  O   UNL     1     -11.646  11.446  64.164  1.00  0.00    -0.240 OA 
ENDBRANCH  18  21
ENDBRANCH   9  15
ENDBRANCH   5   8
TORSDOF 3
ENDMDL
MODEL      119
REMARK 921   NORMALIZED FREE ENERGY PREDICTED BY IDOCK:   -3.14 KCAL/MOL
REMARK 922        TOTAL FREE ENERGY PREDICTED BY IDOCK:   -4.56 KCAL/MOL
REMARK 923 INTER-LIGAND FREE ENERGY PREDICTED BY IDOCK:   -3.53 KCAL/MOL
REMARK 924 INTRA-LIGAND FREE ENERGY PREDICTED BY IDOCK:   -1.03 KCAL/MOL
REMARK 927      BINDING AFFINITY PREDICTED BY RF-SCORE:    0.00 PKD
ROOT
HETATM    1  C   UNL     1      -8.331   3.182  73.490  1.00  0.00    -0.074 C  
HETATM    2  C   UNL     1      -8.386   2.834  72.034  1.00  0.00    -0.058 A  
HETATM    3  N   UNL     1      -7.314   3.157  71.275  1.00  0.00    -0.033 NA 
HETATM    4  C   UNL     1      -7.436   3.018  69.928  1.00  0.00    -0.044 A  
HETATM    5  C   UNL     1      -8.604   2.642  69.274  1.00  0.00    -0.114 A  
HETATM    6  C   UNL     1      -9.520   2.245  71.496  1.00  0.00    -0.204 A  
HETATM    7  C   UNL     1      -9.625   2.160  70.110  1.00  0.00    -0.070 A  
ENDROOT
BRANCH   5   8
HETATM    8  C   UNL     1      -8.829   2.790  67.818  1.00  0.00    -0.137 A  
HETATM    9  C   UNL     1      -9.191   3.986  67.139  1.00  0.00    -0.185 A  
HETATM   10  C   UNL     1      -9.433   3.858  65.747  1.00  0.00    -0.178 A  
HETATM   11  N   UNL     1      -8.759   1.583  67.170  1.00  0.00    -0.102 NA 
HETATM   12  C   UNL     1      -9.349   2.633  65.098  1.00  0.00    -0.100 A  
HETATM   13  C   UNL     1      -9.025   1.529  65.847  1.00  0.00    -0.102 A  
HETATM   14 CL   UNL     1      -9.674   2.508  63.418  1.00  0.00    -0.101 Cl 
BRANCH   9  15
HETATM   15  C   UNL     1      -9.400   5.338  67.743  1.00  0.00    -0.130 A  
HETATM   16  C   UNL     1     -10.672   5.719  68.229  1.00  0.00    -0.285 A  
HETATM   17  C   UNL     1     -10.887   6.949  68.865  1.00  0.00    -0.247 A  
HETATM   18  C   UNL     1      -9.832   7.847  68.990  1.00  0.00    -0.171 A  
HETATM   19  C   UNL     1      -8.574   7.529  68.487  1.00  0.00    -0.129 A  
HETATM   20  C   UNL     1      -8.357   6.267  67.919  1.00  0.00    -0.118 A  
BRANCH  18  21
HETATM   21  S   UNL     1     -10.094   9.412  69.783  1.00  0.00    -0.228 S  
HETATM   22  C   UNL     1     -10.599   8.947  71.425  1.00  0.00    -0.303 C  
HETATM   23  O   UNL     1      -8.810  10.078  69.876  1.00  0.00    -0.205 OA 
HETATM   24  O   UNL     1     -11.224  10.048  69.133  1.00  0.00    -0.216 OA 
ENDBRANCH  18  21
ENDBRANCH   9  15
ENDBRANCH   5   8
TORSDOF 3
ENDMDL
MODEL      120
REMARK 921   NORMALIZED FREE ENERGY PREDICTED BY IDOCK:   -3.12 KCAL/MOL
REMARK 922        TOTAL FREE ENERGY PREDICTED BY IDOCK:   -4.53 KCAL/MOL
REMARK 923 INTER-LIGAND FREE ENERGY PREDICTED BY IDOCK:   -4.90 KCAL/MOL
REMARK 924 INTRA-LIGAND FREE ENERGY PREDICTED BY IDOCK:    0.37 KCAL/MOL
REMARK 927      BINDING AFFINITY PREDICTED BY RF-SCORE:    0.00 PKD
ROOT
HETATM    1  C   UNL     1     -12.567  13.029  63.936  1.00  0.00    -0.290 C  
HETATM    2  C   UNL     1     -11.502  13.991  64.371  1.00  0.00    -0.344 A  
HETATM    3  N   UNL     1     -10.323  13.472  64.780  1.00  0.00    -0.398 NA 
HETATM    4  C   UNL     1      -9.429  14.322  65.351  1.00  0.00     0.241 A  
HETATM    5  C   UNL     1      -9.672  15.666  65.612  1.00  0.00    -0.348 A  
HETATM    6  C   UNL     1     -11.754  15.354  64.387  1.00  0.00    -0.261 A  
HETATM    7  C   UNL     1     -10.835  16.187  65.019  1.00  0.00    -0.380 A  
ENDROOT
BRANCH   5   8
HETATM    8  C   UNL     1      -8.838  16.507  66.502  1.00  0.00    -0.282 A  
HETATM    9  C   UNL     1      -7.931  16.042  67.494  1.00  0.00    -0.165 A  
HETATM   10  C   UNL     1      -7.307  17.044  68.279  1.00  0.00    -0.203 A  
HETATM   11  N   UNL     1      -9.118  17.840  66.346  1.00  0.00    -0.377 NA 
HETATM   12  C   UNL     1      -7.588  18.393  68.106  1.00  0.00    -0.274 A  
HETATM   13  C   UNL     1      -8.505  18.741  67.144  1.00  0.00    -0.272 A  
HETATM   14 CL   UNL     1      -6.836  19.578  69.092  1.00  0.00    -0.371 Cl 
BRANCH   9  15
HETATM   15  C   UNL     1      -7.617  14.619  67.832  1.00  0.00    -0.151 A  
HETATM   16  C   UNL     1      -8.656  13.691  68.072  1.00  0.00    -0.175 A  
HETATM   17  C   UNL     1      -8.400  12.337  68.321  1.00  0.00    -0.174 A  
HETATM   18  C   UNL     1      -7.084  11.888  68.377  1.00  0.00    -0.086 A  
HETATM   19  C   UNL     1      -6.031  12.778  68.189  1.00  0.00    -0.086 A  
HETATM   20  C   UNL     1      -6.303  14.114  67.869  1.00  0.00    -0.173 A  
BRANCH  18  21
HETATM   21  S   UNL     1      -6.747  10.178  68.702  1.00  0.00    -0.057 S  
HETATM   22  C   UNL     1      -8.112   9.692  69.735  1.00  0.00    -0.155 C  
HETATM   23  O   UNL     1      -6.852   9.462  67.446  1.00  0.00    -0.077 OA 
HETATM   24  O   UNL     1      -5.539  10.115  69.503  1.00  0.00    -0.038 OA 
ENDBRANCH  18  21
ENDBRANCH   9  15
ENDBRANCH   5   8
TORSDOF 3
ENDMDL
MODEL      121
REMARK 921   NORMALIZED FREE ENERGY PREDICTED BY IDOCK:   -3.11 KCAL/MOL
REMARK 922        TOTAL FREE ENERGY PREDICTED BY IDOCK:   -4.52 KCAL/MOL
REMARK 923 INTER-LIGAND FREE ENERGY PREDICTED BY IDOCK:   -4.38 KCAL/MOL
REMARK 924 INTRA-LIGAND FREE ENERGY PREDICTED BY IDOCK:   -0.13 KCAL/MOL
REMARK 927      BINDING AFFINITY PREDICTED BY RF-SCORE:    0.00 PKD
ROOT
HETATM    1  C   UNL     1     -12.090  13.410  63.122  1.00  0.00    -0.138 C  
HETATM    2  C   UNL     1     -11.152  12.802  64.121  1.00  0.00    -0.389 A  
HETATM    3  N   UNL     1     -10.740  11.534  63.898  1.00  0.00    -0.365 NA 
HETATM    4  C   UNL     1     -10.048  10.916  64.891  1.00  0.00    -0.312 A  
HETATM    5  C   UNL     1      -9.801  11.466  66.144  1.00  0.00    -0.255 A  
HETATM    6  C   UNL     1     -10.771  13.513  65.248  1.00  0.00    -0.328 A  
HETATM    7  C   UNL     1     -10.101  12.834  66.262  1.00  0.00    -0.267 A  
ENDROOT
BRANCH   5   8
HETATM    8  C   UNL     1      -9.331  10.694  67.317  1.00  0.00    -0.150 A  
HETATM    9  C   UNL     1      -9.614  10.979  68.682  1.00  0.00    -0.198 A  
HETATM   10  C   UNL     1      -8.979  10.140  69.632  1.00  0.00    -0.190 A  
HETATM   11  N   UNL     1      -8.467   9.695  66.951  1.00  0.00    -0.120 NA 
HETATM   12  C   UNL     1      -8.114   9.123  69.251  1.00  0.00    -0.102 A  
HETATM   13  C   UNL     1      -7.877   8.948  67.910  1.00  0.00    -0.102 A  
HETATM   14 CL   UNL     1      -7.340   8.143  70.428  1.00  0.00    -0.061 Cl 
BRANCH   9  15
HETATM   15  C   UNL     1     -10.453  12.096  69.214  1.00  0.00     0.120 A  
HETATM   16  C   UNL     1     -11.694  11.829  69.837  1.00  0.00    -0.399 A  
HETATM   17  C   UNL     1     -12.471  12.844  70.410  1.00  0.00    -0.247 A  
HETATM   18  C   UNL     1     -12.039  14.164  70.332  1.00  0.00    -0.346 A  
HETATM   19  C   UNL     1     -10.844  14.474  69.690  1.00  0.00    -0.180 A  
HETATM   20  C   UNL     1     -10.042  13.443  69.186  1.00  0.00     0.224 A  
BRANCH  18  21
HETATM   21  S   UNL     1     -13.019  15.458  71.043  1.00  0.00    -0.489 S  
HETATM   22  C   UNL     1     -13.652  14.710  72.529  1.00  0.00    -0.470 C  
HETATM   23  O   UNL     1     -12.122  16.532  71.424  1.00  0.00    -0.149 OA 
HETATM   24  O   UNL     1     -14.140  15.698  70.154  1.00  0.00     0.530 OA 
ENDBRANCH  18  21
ENDBRANCH   9  15
ENDBRANCH   5   8
TORSDOF 3
ENDMDL
MODEL      122
REMARK 921   NORMALIZED FREE ENERGY PREDICTED BY IDOCK:   -3.05 KCAL/MOL
REMARK 922        TOTAL FREE ENERGY PREDICTED BY IDOCK:   -4.45 KCAL/MOL
REMARK 923 INTER-LIGAND FREE ENERGY PREDICTED BY IDOCK:   -4.00 KCAL/MOL
REMARK 924 INTRA-LIGAND FREE ENERGY PREDICTED BY IDOCK:   -0.45 KCAL/MOL
REMARK 927      BINDING AFFINITY PREDICTED BY RF-SCORE:    0.00 PKD
ROOT
HETATM    1  C   UNL     1     -13.217  13.103  71.165  1.00  0.00    -0.109 C  
HETATM    2  C   UNL     1     -12.511  14.192  70.416  1.00  0.00    -0.357 A  
HETATM    3  N   UNL     1     -12.689  14.244  69.077  1.00  0.00     0.306 NA 
HETATM    4  C   UNL     1     -11.907  15.105  68.374  1.00  0.00    -0.267 A  
HETATM    5  C   UNL     1     -10.887  15.876  68.923  1.00  0.00    -0.274 A  
HETATM    6  C   UNL     1     -11.675  15.074  71.084  1.00  0.00    -0.385 A  
HETATM    7  C   UNL     1     -10.858  15.910  70.327  1.00  0.00    -0.349 A  
ENDROOT
BRANCH   5   8
HETATM    8  C   UNL     1      -9.844  16.566  68.130  1.00  0.00    -0.244 A  
HETATM    9  C   UNL     1      -8.583  16.029  67.750  1.00  0.00    -0.168 A  
HETATM   10  C   UNL     1      -7.716  16.915  67.060  1.00  0.00    -0.230 A  
HETATM   11  N   UNL     1     -10.180  17.871  67.879  1.00  0.00    -0.352 NA 
HETATM   12  C   UNL     1      -8.070  18.233  66.801  1.00  0.00    -0.250 A  
HETATM   13  C   UNL     1      -9.297  18.668  67.238  1.00  0.00    -0.287 A  
HETATM   14 CL   UNL     1      -6.988  19.287  65.989  1.00  0.00    -0.266 Cl 
BRANCH   9  15
HETATM   15  C   UNL     1      -8.057  14.662  68.050  1.00  0.00    -0.135 A  
HETATM   16  C   UNL     1      -6.675  14.382  67.939  1.00  0.00    -0.177 A  
HETATM   17  C   UNL     1      -6.140  13.134  68.281  1.00  0.00    -0.089 A  
HETATM   18  C   UNL     1      -6.990  12.118  68.704  1.00  0.00    -0.097 A  
HETATM   19  C   UNL     1      -8.361  12.338  68.787  1.00  0.00     0.097 A  
HETATM   20  C   UNL     1      -8.874  13.612  68.512  1.00  0.00    -0.099 A  
BRANCH  18  21
HETATM   21  S   UNL     1      -6.325  10.530  69.129  1.00  0.00    -0.055 S  
HETATM   22  C   UNL     1      -5.662  10.798  70.759  1.00  0.00    -0.099 C  
HETATM   23  O   UNL     1      -7.435   9.603  69.240  1.00  0.00    -0.076 OA 
HETATM   24  O   UNL     1      -5.215  10.266  68.235  1.00  0.00    -0.036 OA 
ENDBRANCH  18  21
ENDBRANCH   9  15
ENDBRANCH   5   8
TORSDOF 3
ENDMDL
MODEL      123
REMARK 921   NORMALIZED FREE ENERGY PREDICTED BY IDOCK:   -3.03 KCAL/MOL
REMARK 922        TOTAL FREE ENERGY PREDICTED BY IDOCK:   -4.43 KCAL/MOL
REMARK 923 INTER-LIGAND FREE ENERGY PREDICTED BY IDOCK:   -3.45 KCAL/MOL
REMARK 924 INTRA-LIGAND FREE ENERGY PREDICTED BY IDOCK:   -0.98 KCAL/MOL
REMARK 927      BINDING AFFINITY PREDICTED BY RF-SCORE:    0.00 PKD
ROOT
HETATM    1  C   UNL     1      -6.496   8.503  67.002  1.00  0.00    -0.057 C  
HETATM    2  C   UNL     1      -6.640   7.362  67.963  1.00  0.00    -0.054 A  
HETATM    3  N   UNL     1      -7.516   6.384  67.644  1.00  0.00    -0.091 NA 
HETATM    4  C   UNL     1      -7.788   5.452  68.595  1.00  0.00    -0.087 A  
HETATM    5  C   UNL     1      -7.289   5.477  69.893  1.00  0.00    -0.069 A  
HETATM    6  C   UNL     1      -5.925   7.353  69.151  1.00  0.00    -0.030 A  
HETATM    7  C   UNL     1      -6.262   6.409  70.117  1.00  0.00    -0.035 A  
ENDROOT
BRANCH   5   8
HETATM    8  C   UNL     1      -7.819   4.656  71.006  1.00  0.00    -0.081 A  
HETATM    9  C   UNL     1      -8.976   4.938  71.783  1.00  0.00    -0.155 A  
HETATM   10  C   UNL     1      -9.235   4.043  72.853  1.00  0.00    -0.130 A  
HETATM   11  N   UNL     1      -6.986   3.608  71.302  1.00  0.00    -0.032 NA 
HETATM   12  C   UNL     1      -8.392   2.977  73.138  1.00  0.00    -0.079 A  
HETATM   13  C   UNL     1      -7.279   2.808  72.350  1.00  0.00    -0.039 A  
HETATM   14 CL   UNL     1      -8.719   1.930  74.456  1.00  0.00    -0.060 Cl 
BRANCH   9  15
HETATM   15  C   UNL     1      -9.905   6.099  71.629  1.00  0.00    -0.191 A  
HETATM   16  C   UNL     1     -11.244   5.901  71.220  1.00  0.00    -0.280 A  
HETATM   17  C   UNL     1     -12.160   6.957  71.135  1.00  0.00    -0.428 A  
HETATM   18  C   UNL     1     -11.738   8.252  71.417  1.00  0.00    -0.287 A  
HETATM   19  C   UNL     1     -10.418   8.497  71.781  1.00  0.00    -0.370 A  
HETATM   20  C   UNL     1      -9.532   7.423  71.934  1.00  0.00    -0.166 A  
BRANCH  18  21
HETATM   21  S   UNL     1     -12.885   9.599  71.301  1.00  0.00    -0.344 S  
HETATM   22  C   UNL     1     -12.158  10.636  70.050  1.00  0.00    -0.316 C  
HETATM   23  O   UNL     1     -14.132   9.072  70.783  1.00  0.00     0.043 OA 
HETATM   24  O   UNL     1     -12.841  10.321  72.558  1.00  0.00    -0.112 OA 
ENDBRANCH  18  21
ENDBRANCH   9  15
ENDBRANCH   5   8
TORSDOF 3
ENDMDL
MODEL      124
REMARK 921   NORMALIZED FREE ENERGY PREDICTED BY IDOCK:   -2.99 KCAL/MOL
REMARK 922        TOTAL FREE ENERGY PREDICTED BY IDOCK:   -4.37 KCAL/MOL
REMARK 923 INTER-LIGAND FREE ENERGY PREDICTED BY IDOCK:   -4.70 KCAL/MOL
REMARK 924 INTRA-LIGAND FREE ENERGY PREDICTED BY IDOCK:    0.33 KCAL/MOL
REMARK 927      BINDING AFFINITY PREDICTED BY RF-SCORE:    0.00 PKD
ROOT
HETATM    1  C   UNL     1     -11.255  20.419  65.283  1.00  0.00     0.749 C  
HETATM    2  C   UNL     1     -10.115  19.674  65.908  1.00  0.00    -0.397 A  
HETATM    3  N   UNL     1     -10.052  18.340  65.698  1.00  0.00    -0.495 NA 
HETATM    4  C   UNL     1      -9.137  17.635  66.414  1.00  0.00    -0.234 A  
HETATM    5  C   UNL     1      -8.315  18.176  67.398  1.00  0.00    -0.239 A  
HETATM    6  C   UNL     1      -9.195  20.339  66.704  1.00  0.00    -0.428 A  
HETATM    7  C   UNL     1      -8.301  19.580  67.455  1.00  0.00    -0.333 A  
ENDROOT
BRANCH   5   8
HETATM    8  C   UNL     1      -7.553  17.374  68.383  1.00  0.00    -0.255 A  
HETATM    9  C   UNL     1      -7.699  15.981  68.627  1.00  0.00    -0.176 A  
HETATM   10  C   UNL     1      -6.912  15.453  69.682  1.00  0.00    -0.184 A  
HETATM   11  N   UNL     1      -6.732  18.161  69.148  1.00  0.00    -0.259 NA 
HETATM   12  C   UNL     1      -6.074  16.256  70.445  1.00  0.00     0.098 A  
HETATM   13  C   UNL     1      -6.028  17.597  70.153  1.00  0.00    -0.121 A  
HETATM   14 CL   UNL     1      -5.156  15.591  71.732  1.00  0.00    -0.121 Cl 
BRANCH   9  15
HETATM   15  C   UNL     1      -8.630  15.036  67.936  1.00  0.00    -0.155 A  
HETATM   16  C   UNL     1      -8.146  13.831  67.375  1.00  0.00    -0.188 A  
HETATM   17  C   UNL     1      -9.000  12.892  66.784  1.00  0.00    -0.182 A  
HETATM   18  C   UNL     1     -10.362  13.161  66.702  1.00  0.00    -0.265 A  
HETATM   19  C   UNL     1     -10.873  14.355  67.202  1.00  0.00    -0.292 A  
HETATM   20  C   UNL     1     -10.019  15.252  67.856  1.00  0.00    -0.228 A  
BRANCH  18  21
HETATM   21  S   UNL     1     -11.451  11.985  65.945  1.00  0.00    -0.280 S  
HETATM   22  C   UNL     1     -12.797  12.999  65.370  1.00  0.00    -0.142 C  
HETATM   23  O   UNL     1     -10.772  11.436  64.788  1.00  0.00    -0.299 OA 
HETATM   24  O   UNL     1     -11.961  11.122  66.994  1.00  0.00    -0.272 OA 
ENDBRANCH  18  21
ENDBRANCH   9  15
ENDBRANCH   5   8
TORSDOF 3
ENDMDL
MODEL      125
REMARK 921   NORMALIZED FREE ENERGY PREDICTED BY IDOCK:   -2.72 KCAL/MOL
REMARK 922        TOTAL FREE ENERGY PREDICTED BY IDOCK:   -4.06 KCAL/MOL
REMARK 923 INTER-LIGAND FREE ENERGY PREDICTED BY IDOCK:   -3.37 KCAL/MOL
REMARK 924 INTRA-LIGAND FREE ENERGY PREDICTED BY IDOCK:   -0.69 KCAL/MOL
REMARK 927      BINDING AFFINITY PREDICTED BY RF-SCORE:    0.00 PKD
ROOT
HETATM    1  C   UNL     1     -13.555   6.951  72.081  1.00  0.00     0.006 C  
HETATM    2  C   UNL     1     -12.314   6.575  71.328  1.00  0.00    -0.168 A  
HETATM    3  N   UNL     1     -12.181   7.050  70.070  1.00  0.00     0.065 NA 
HETATM    4  C   UNL     1     -11.158   6.560  69.320  1.00  0.00    -0.334 A  
HETATM    5  C   UNL     1     -10.289   5.554  69.729  1.00  0.00    -0.366 A  
HETATM    6  C   UNL     1     -11.374   5.734  71.903  1.00  0.00    -0.268 A  
HETATM    7  C   UNL     1     -10.366   5.219  71.092  1.00  0.00    -0.291 A  
ENDROOT
BRANCH   5   8
HETATM    8  C   UNL     1      -9.388   4.809  68.819  1.00  0.00    -0.134 A  
HETATM    9  C   UNL     1      -8.581   5.368  67.790  1.00  0.00    -0.104 A  
HETATM   10  C   UNL     1      -7.863   4.439  66.995  1.00  0.00    -0.097 A  
HETATM   11  N   UNL     1      -9.494   3.455  69.001  1.00  0.00    -0.165 NA 
HETATM   12  C   UNL     1      -7.968   3.069  67.193  1.00  0.00    -0.078 A  
HETATM   13  C   UNL     1      -8.800   2.625  68.191  1.00  0.00    -0.122 A  
HETATM   14 CL   UNL     1      -7.108   1.971  66.195  1.00  0.00    -0.050 Cl 
BRANCH   9  15
HETATM   15  C   UNL     1      -8.459   6.813  67.425  1.00  0.00    -0.121 A  
HETATM   16  C   UNL     1      -9.085   7.316  66.261  1.00  0.00    -0.186 A  
HETATM   17  C   UNL     1      -9.050   8.675  65.927  1.00  0.00    -0.259 A  
HETATM   18  C   UNL     1      -8.346   9.561  66.735  1.00  0.00    -0.116 A  
HETATM   19  C   UNL     1      -7.680   9.100  67.867  1.00  0.00    -0.093 A  
HETATM   20  C   UNL     1      -7.783   7.751  68.229  1.00  0.00    -0.119 A  
BRANCH  18  21
HETATM   21  S   UNL     1      -8.286  11.283  66.317  1.00  0.00    -0.078 S  
HETATM   22  C   UNL     1      -9.480  12.004  67.422  1.00  0.00    -0.177 C  
HETATM   23  O   UNL     1      -6.973  11.779  66.683  1.00  0.00    -0.090 OA 
HETATM   24  O   UNL     1      -8.790  11.422  64.964  1.00  0.00    -0.024 OA 
ENDBRANCH  18  21
ENDBRANCH   9  15
ENDBRANCH   5   8
TORSDOF 3
ENDMDL
MODEL      126
REMARK 921   NORMALIZED FREE ENERGY PREDICTED BY IDOCK:   -2.65 KCAL/MOL
REMARK 922        TOTAL FREE ENERGY PREDICTED BY IDOCK:   -3.97 KCAL/MOL
REMARK 923 INTER-LIGAND FREE ENERGY PREDICTED BY IDOCK:   -3.65 KCAL/MOL
REMARK 924 INTRA-LIGAND FREE ENERGY PREDICTED BY IDOCK:   -0.33 KCAL/MOL
REMARK 927      BINDING AFFINITY PREDICTED BY RF-SCORE:    0.00 PKD
ROOT
HETATM    1  C   UNL     1     -12.879   8.892  72.304  1.00  0.00    -0.475 C  
HETATM    2  C   UNL     1     -11.854   9.227  71.264  1.00  0.00    -0.343 A  
HETATM    3  N   UNL     1     -12.143  10.226  70.401  1.00  0.00    -0.289 NA 
HETATM    4  C   UNL     1     -11.306  10.404  69.345  1.00  0.00    -0.250 A  
HETATM    5  C   UNL     1     -10.221   9.587  69.049  1.00  0.00    -0.211 A  
HETATM    6  C   UNL     1     -10.678   8.496  71.179  1.00  0.00    -0.290 A  
HETATM    7  C   UNL     1      -9.868   8.677  70.061  1.00  0.00    -0.185 A  
ENDROOT
BRANCH   5   8
HETATM    8  C   UNL     1      -9.506   9.586  67.752  1.00  0.00    -0.131 A  
HETATM    9  C   UNL     1      -8.539   8.634  67.324  1.00  0.00    -0.125 A  
HETATM   10  C   UNL     1      -7.931   8.893  66.070  1.00  0.00    -0.106 A  
HETATM   11  N   UNL     1      -9.798  10.703  67.013  1.00  0.00    -0.180 NA 
HETATM   12  C   UNL     1      -8.242  10.022  65.323  1.00  0.00    -0.148 A  
HETATM   13  C   UNL     1      -9.163  10.900  65.837  1.00  0.00    -0.191 A  
HETATM   14 CL   UNL     1      -7.467  10.320  63.822  1.00  0.00    -0.120 Cl 
BRANCH   9  15
HETATM   15  C   UNL     1      -8.059   7.435  68.078  1.00  0.00    -0.124 A  
HETATM   16  C   UNL     1      -6.856   7.486  68.819  1.00  0.00    -0.065 A  
HETATM   17  C   UNL     1      -6.413   6.406  69.593  1.00  0.00    -0.043 A  
HETATM   18  C   UNL     1      -7.151   5.227  69.607  1.00  0.00    -0.059 A  
HETATM   19  C   UNL     1      -8.318   5.120  68.857  1.00  0.00    -0.087 A  
HETATM   20  C   UNL     1      -8.787   6.232  68.146  1.00  0.00    -0.113 A  
BRANCH  18  21
HETATM   21  S   UNL     1      -6.595   3.849  70.574  1.00  0.00    -0.033 S  
HETATM   22  C   UNL     1      -7.822   2.604  70.237  1.00  0.00    -0.042 C  
HETATM   23  O   UNL     1      -5.333   3.402  70.018  1.00  0.00    -0.007 OA 
HETATM   24  O   UNL     1      -6.710   4.220  71.971  1.00  0.00    -0.028 OA 
ENDBRANCH  18  21
ENDBRANCH   9  15
ENDBRANCH   5   8
TORSDOF 3
ENDMDL
MODEL      127
REMARK 921   NORMALIZED FREE ENERGY PREDICTED BY IDOCK:   -2.62 KCAL/MOL
REMARK 922        TOTAL FREE ENERGY PREDICTED BY IDOCK:   -3.94 KCAL/MOL
REMARK 923 INTER-LIGAND FREE ENERGY PREDICTED BY IDOCK:   -3.74 KCAL/MOL
REMARK 924 INTRA-LIGAND FREE ENERGY PREDICTED BY IDOCK:   -0.20 KCAL/MOL
REMARK 927      BINDING AFFINITY PREDICTED BY RF-SCORE:    0.00 PKD
ROOT
HETATM    1  C   UNL     1     -12.441   6.855  70.347  1.00  0.00     0.017 C  
HETATM    2  C   UNL     1     -12.252   8.268  70.811  1.00  0.00     0.003 A  
HETATM    3  N   UNL     1     -13.289   8.859  71.445  1.00  0.00    -0.301 NA 
HETATM    4  C   UNL     1     -13.192  10.192  71.696  1.00  0.00    -0.418 A  
HETATM    5  C   UNL     1     -12.139  11.000  71.281  1.00  0.00    -0.280 A  
HETATM    6  C   UNL     1     -11.067   8.939  70.549  1.00  0.00    -0.288 A  
HETATM    7  C   UNL     1     -11.021  10.311  70.780  1.00  0.00    -0.213 A  
ENDROOT
BRANCH   5   8
HETATM    8  C   UNL     1     -12.175  12.481  71.276  1.00  0.00     0.142 A  
HETATM    9  C   UNL     1     -11.885  13.327  70.170  1.00  0.00    -0.333 A  
HETATM   10  C   UNL     1     -11.907  14.720  70.436  1.00  0.00    -0.352 A  
HETATM   11  N   UNL     1     -12.421  12.984  72.527  1.00  0.00     0.380 NA 
HETATM   12  C   UNL     1     -12.168  15.221  71.704  1.00  0.00    -0.365 A  
HETATM   13  C   UNL     1     -12.403  14.322  72.715  1.00  0.00    -0.023 A  
HETATM   14 CL   UNL     1     -12.160  16.911  71.998  1.00  0.00     0.408 Cl 
BRANCH   9  15
HETATM   15  C   UNL     1     -11.504  12.905  68.788  1.00  0.00    -0.345 A  
HETATM   16  C   UNL     1     -12.051  11.732  68.217  1.00  0.00    -0.068 A  
HETATM   17  C   UNL     1     -11.771  11.345  66.901  1.00  0.00     0.062 A  
HETATM   18  C   UNL     1     -10.896  12.108  66.135  1.00  0.00    -0.282 A  
HETATM   19  C   UNL     1     -10.303  13.247  66.672  1.00  0.00    -0.274 A  
HETATM   20  C   UNL     1     -10.648  13.661  67.965  1.00  0.00    -0.256 A  
BRANCH  18  21
HETATM   21  S   UNL     1     -10.525  11.623  64.470  1.00  0.00    -0.331 S  
HETATM   22  C   UNL     1      -9.668  10.078  64.687  1.00  0.00    -0.269 C  
HETATM   23  O   UNL     1     -11.782  11.353  63.800  1.00  0.00    -0.275 OA 
HETATM   24  O   UNL     1      -9.581  12.585  63.934  1.00  0.00    -0.084 OA 
ENDBRANCH  18  21
ENDBRANCH   9  15
ENDBRANCH   5   8
TORSDOF 3
ENDMDL
MODEL      128
REMARK 921   NORMALIZED FREE ENERGY PREDICTED BY IDOCK:   -2.60 KCAL/MOL
REMARK 922        TOTAL FREE ENERGY PREDICTED BY IDOCK:   -3.92 KCAL/MOL
REMARK 923 INTER-LIGAND FREE ENERGY PREDICTED BY IDOCK:   -2.89 KCAL/MOL
REMARK 924 INTRA-LIGAND FREE ENERGY PREDICTED BY IDOCK:   -1.03 KCAL/MOL
REMARK 927      BINDING AFFINITY PREDICTED BY RF-SCORE:    0.00 PKD
ROOT
HETATM    1  C   UNL     1      -9.685   4.038  67.511  1.00  0.00    -0.177 C  
HETATM    2  C   UNL     1      -8.895   5.092  68.227  1.00  0.00    -0.102 A  
HETATM    3  N   UNL     1      -9.501   5.741  69.246  1.00  0.00    -0.126 NA 
HETATM    4  C   UNL     1      -8.862   6.820  69.770  1.00  0.00    -0.141 A  
HETATM    5  C   UNL     1      -7.670   7.347  69.283  1.00  0.00    -0.107 A  
HETATM    6  C   UNL     1      -7.609   5.405  67.814  1.00  0.00    -0.088 A  
HETATM    7  C   UNL     1      -7.005   6.543  68.343  1.00  0.00    -0.080 A  
ENDROOT
BRANCH   5   8
HETATM    8  C   UNL     1      -7.141   8.683  69.642  1.00  0.00    -0.055 A  
HETATM    9  C   UNL     1      -7.073   9.819  68.788  1.00  0.00    -0.067 A  
HETATM   10  C   UNL     1      -6.445  10.967  69.336  1.00  0.00    -0.086 A  
HETATM   11  N   UNL     1      -6.597   8.690  70.900  1.00  0.00    -0.044 NA 
HETATM   12  C   UNL     1      -5.907  10.968  70.616  1.00  0.00    -0.105 A  
HETATM   13  C   UNL     1      -5.993   9.811  71.351  1.00  0.00     0.005 A  
HETATM   14 CL   UNL     1      -5.130  12.365  71.238  1.00  0.00    -0.146 Cl 
BRANCH   9  15
HETATM   15  C   UNL     1      -7.533   9.908  67.368  1.00  0.00    -0.091 A  
HETATM   16  C   UNL     1      -8.893  10.159  67.068  1.00  0.00    -0.144 A  
HETATM   17  C   UNL     1      -9.346  10.320  65.752  1.00  0.00    -0.233 A  
HETATM   18  C   UNL     1      -8.447  10.189  64.699  1.00  0.00    -0.173 A  
HETATM   19  C   UNL     1      -7.109   9.900  64.949  1.00  0.00    -0.132 A  
HETATM   20  C   UNL     1      -6.656   9.814  66.271  1.00  0.00    -0.073 A  
BRANCH  18  21
HETATM   21  S   UNL     1      -9.011  10.379  63.028  1.00  0.00    -0.276 S  
HETATM   22  C   UNL     1     -10.641  11.064  63.233  1.00  0.00    -0.103 C  
HETATM   23  O   UNL     1      -8.176  11.380  62.393  1.00  0.00    -0.193 OA 
HETATM   24  O   UNL     1      -9.153   9.052  62.461  1.00  0.00    -0.154 OA 
ENDBRANCH  18  21
ENDBRANCH   9  15
ENDBRANCH   5   8
TORSDOF 3
ENDMDL
MODEL      129
REMARK 921   NORMALIZED FREE ENERGY PREDICTED BY IDOCK:   -2.58 KCAL/MOL
REMARK 922        TOTAL FREE ENERGY PREDICTED BY IDOCK:   -3.90 KCAL/MOL
REMARK 923 INTER-LIGAND FREE ENERGY PREDICTED BY IDOCK:   -3.24 KCAL/MOL
REMARK 924 INTRA-LIGAND FREE ENERGY PREDICTED BY IDOCK:   -0.66 KCAL/MOL
REMARK 927      BINDING AFFINITY PREDICTED BY RF-SCORE:    0.00 PKD
ROOT
HETATM    1  C   UNL     1      -5.521  13.239  70.707  1.00  0.00    -0.174 C  
HETATM    2  C   UNL     1      -5.914  11.832  70.369  1.00  0.00    -0.123 A  
HETATM    3  N   UNL     1      -6.957  11.662  69.525  1.00  0.00    -0.057 NA 
HETATM    4  C   UNL     1      -7.435  10.400  69.367  1.00  0.00    -0.135 A  
HETATM    5  C   UNL     1      -6.978   9.288  70.066  1.00  0.00    -0.060 A  
HETATM    6  C   UNL     1      -5.250  10.761  70.946  1.00  0.00    -0.105 A  
HETATM    7  C   UNL     1      -5.795   9.488  70.796  1.00  0.00    -0.066 A  
ENDROOT
BRANCH   5   8
HETATM    8  C   UNL     1      -7.692   7.991  70.128  1.00  0.00    -0.087 A  
HETATM    9  C   UNL     1      -8.254   7.285  69.029  1.00  0.00    -0.125 A  
HETATM   10  C   UNL     1      -8.962   6.100  69.352  1.00  0.00    -0.128 A  
HETATM   11  N   UNL     1      -7.861   7.570  71.422  1.00  0.00    -0.092 NA 
HETATM   12  C   UNL     1      -9.120   5.675  70.665  1.00  0.00    -0.150 A  
HETATM   13  C   UNL     1      -8.568   6.444  71.661  1.00  0.00    -0.129 A  
HETATM   14 CL   UNL     1     -10.007   4.252  71.025  1.00  0.00    -0.252 Cl 
BRANCH   9  15
HETATM   15  C   UNL     1      -8.228   7.690  67.590  1.00  0.00    -0.121 A  
HETATM   16  C   UNL     1      -9.262   8.488  67.048  1.00  0.00    -0.187 A  
HETATM   17  C   UNL     1      -9.233   8.944  65.724  1.00  0.00    -0.283 A  
HETATM   18  C   UNL     1      -8.180   8.571  64.895  1.00  0.00    -0.165 A  
HETATM   19  C   UNL     1      -7.164   7.751  65.376  1.00  0.00    -0.068 A  
HETATM   20  C   UNL     1      -7.168   7.363  66.722  1.00  0.00    -0.087 A  
BRANCH  18  21
HETATM   21  S   UNL     1      -8.138   9.133  63.214  1.00  0.00    -0.175 S  
HETATM   22  C   UNL     1      -9.606  10.133  63.090  1.00  0.00    -0.173 C  
HETATM   23  O   UNL     1      -6.986  10.000  63.068  1.00  0.00    -0.122 OA 
HETATM   24  O   UNL     1      -8.317   7.974  62.361  1.00  0.00    -0.173 OA 
ENDBRANCH  18  21
ENDBRANCH   9  15
ENDBRANCH   5   8
TORSDOF 3
ENDMDL
MODEL      130
REMARK 921   NORMALIZED FREE ENERGY PREDICTED BY IDOCK:   -2.50 KCAL/MOL
REMARK 922        TOTAL FREE ENERGY PREDICTED BY IDOCK:   -3.81 KCAL/MOL
REMARK 923 INTER-LIGAND FREE ENERGY PREDICTED BY IDOCK:   -2.86 KCAL/MOL
REMARK 924 INTRA-LIGAND FREE ENERGY PREDICTED BY IDOCK:   -0.94 KCAL/MOL
REMARK 927      BINDING AFFINITY PREDICTED BY RF-SCORE:    0.00 PKD
ROOT
HETATM    1  C   UNL     1      -5.838   5.821  71.512  1.00  0.00    -0.026 C  
HETATM    2  C   UNL     1      -6.104   7.176  70.928  1.00  0.00    -0.036 A  
HETATM    3  N   UNL     1      -5.147   7.712  70.138  1.00  0.00    -0.023 NA 
HETATM    4  C   UNL     1      -5.300   9.010  69.763  1.00  0.00    -0.029 A  
HETATM    5  C   UNL     1      -6.326   9.843  70.196  1.00  0.00    -0.084 A  
HETATM    6  C   UNL     1      -7.274   7.854  71.234  1.00  0.00    -0.059 A  
HETATM    7  C   UNL     1      -7.374   9.194  70.871  1.00  0.00    -0.129 A  
ENDROOT
BRANCH   5   8
HETATM    8  C   UNL     1      -6.325  11.316  70.046  1.00  0.00    -0.140 A  
HETATM    9  C   UNL     1      -6.618  12.043  68.859  1.00  0.00    -0.089 A  
HETATM   10  C   UNL     1      -6.468  13.450  68.942  1.00  0.00    -0.103 A  
HETATM   11  N   UNL     1      -5.887  11.939  71.186  1.00  0.00    -0.334 NA 
HETATM   12  C   UNL     1      -6.034  14.074  70.105  1.00  0.00    -0.151 A  
HETATM   13  C   UNL     1      -5.744  13.283  71.189  1.00  0.00    -0.105 A  
HETATM   14 CL   UNL     1      -5.837  15.777  70.165  1.00  0.00    -0.161 Cl 
BRANCH   9  15
HETATM   15  C   UNL     1      -7.004  11.478  67.529  1.00  0.00    -0.102 A  
HETATM   16  C   UNL     1      -6.023  11.233  66.540  1.00  0.00    -0.144 A  
HETATM   17  C   UNL     1      -6.340  10.640  65.311  1.00  0.00    -0.025 A  
HETATM   18  C   UNL     1      -7.662  10.317  65.027  1.00  0.00    -0.129 A  
HETATM   19  C   UNL     1      -8.664  10.581  65.956  1.00  0.00    -0.174 A  
HETATM   20  C   UNL     1      -8.324  11.107  67.209  1.00  0.00    -0.135 A  
BRANCH  18  21
HETATM   21  S   UNL     1      -8.077   9.576  63.471  1.00  0.00    -0.164 S  
HETATM   22  C   UNL     1      -9.589  10.402  63.026  1.00  0.00    -0.302 C  
HETATM   23  O   UNL     1      -7.055   9.957  62.516  1.00  0.00    -0.108 OA 
HETATM   24  O   UNL     1      -8.388   8.181  63.719  1.00  0.00    -0.110 OA 
ENDBRANCH  18  21
ENDBRANCH   9  15
ENDBRANCH   5   8
TORSDOF 3
ENDMDL
MODEL      131
REMARK 921   NORMALIZED FREE ENERGY PREDICTED BY IDOCK:   -2.46 KCAL/MOL
REMARK 922        TOTAL FREE ENERGY PREDICTED BY IDOCK:   -3.76 KCAL/MOL
REMARK 923 INTER-LIGAND FREE ENERGY PREDICTED BY IDOCK:   -2.74 KCAL/MOL
REMARK 924 INTRA-LIGAND FREE ENERGY PREDICTED BY IDOCK:   -1.02 KCAL/MOL
REMARK 927      BINDING AFFINITY PREDICTED BY RF-SCORE:    0.00 PKD
ROOT
HETATM    1  C   UNL     1     -10.163  11.696  69.054  1.00  0.00    -0.077 C  
HETATM    2  C   UNL     1     -10.117  10.255  69.464  1.00  0.00    -0.235 A  
HETATM    3  N   UNL     1      -9.373   9.939  70.548  1.00  0.00    -0.043 NA 
HETATM    4  C   UNL     1      -9.175   8.619  70.808  1.00  0.00    -0.185 A  
HETATM    5  C   UNL     1      -9.618   7.578  70.000  1.00  0.00    -0.164 A  
HETATM    6  C   UNL     1     -10.783   9.293  68.720  1.00  0.00    -0.184 A  
HETATM    7  C   UNL     1     -10.521   7.952  68.990  1.00  0.00    -0.210 A  
ENDROOT
BRANCH   5   8
HETATM    8  C   UNL     1      -9.146   6.178  70.108  1.00  0.00    -0.152 A  
HETATM    9  C   UNL     1      -8.449   5.445  69.108  1.00  0.00    -0.103 A  
HETATM   10  C   UNL     1      -8.175   4.088  69.415  1.00  0.00    -0.068 A  
HETATM   11  N   UNL     1      -9.560   5.595  71.277  1.00  0.00    -0.158 NA 
HETATM   12  C   UNL     1      -8.588   3.508  70.607  1.00  0.00    -0.070 A  
HETATM   13  C   UNL     1      -9.286   4.290  71.496  1.00  0.00    -0.133 A  
HETATM   14 CL   UNL     1      -8.264   1.856  70.936  1.00  0.00    -0.059 Cl 
BRANCH   9  15
HETATM   15  C   UNL     1      -8.033   5.934  67.757  1.00  0.00    -0.098 A  
HETATM   16  C   UNL     1      -8.769   5.573  66.605  1.00  0.00    -0.116 A  
HETATM   17  C   UNL     1      -8.451   6.069  65.334  1.00  0.00    -0.145 A  
HETATM   18  C   UNL     1      -7.353   6.910  65.184  1.00  0.00    -0.081 A  
HETATM   19  C   UNL     1      -6.576   7.255  66.286  1.00  0.00    -0.052 A  
HETATM   20  C   UNL     1      -6.950   6.811  67.561  1.00  0.00    -0.083 A  
BRANCH  18  21
HETATM   21  S   UNL     1      -6.933   7.535  63.579  1.00  0.00    -0.063 S  
HETATM   22  C   UNL     1      -6.739   9.281  63.869  1.00  0.00    -0.092 C  
HETATM   23  O   UNL     1      -5.638   6.991  63.219  1.00  0.00    -0.035 OA 
HETATM   24  O   UNL     1      -8.088   7.352  62.721  1.00  0.00    -0.136 OA 
ENDBRANCH  18  21
ENDBRANCH   9  15
ENDBRANCH   5   8
TORSDOF 3
ENDMDL
MODEL      132
REMARK 921   NORMALIZED FREE ENERGY PREDICTED BY IDOCK:   -2.40 KCAL/MOL
REMARK 922        TOTAL FREE ENERGY PREDICTED BY IDOCK:   -3.68 KCAL/MOL
REMARK 923 INTER-LIGAND FREE ENERGY PREDICTED BY IDOCK:   -3.59 KCAL/MOL
REMARK 924 INTRA-LIGAND FREE ENERGY PREDICTED BY IDOCK:   -0.09 KCAL/MOL
REMARK 927      BINDING AFFINITY PREDICTED BY RF-SCORE:    0.00 PKD
ROOT
HETATM    1  C   UNL     1      -7.619   9.235  65.769  1.00  0.00    -0.098 C  
HETATM    2  C   UNL     1      -7.730  10.565  66.452  1.00  0.00    -0.135 A  
HETATM    3  N   UNL     1      -8.693  11.409  66.019  1.00  0.00    -0.167 NA 
HETATM    4  C   UNL     1      -8.674  12.680  66.502  1.00  0.00    -0.003 A  
HETATM    5  C   UNL     1      -7.695  13.191  67.347  1.00  0.00    -0.151 A  
HETATM    6  C   UNL     1      -6.840  10.913  67.457  1.00  0.00    -0.079 A  
HETATM    7  C   UNL     1      -6.823  12.235  67.894  1.00  0.00    -0.093 A  
ENDROOT
BRANCH   5   8
HETATM    8  C   UNL     1      -7.498  14.634  67.620  1.00  0.00    -0.186 A  
HETATM    9  C   UNL     1      -8.326  15.458  68.431  1.00  0.00    -0.147 A  
HETATM   10  C   UNL     1      -7.978  16.832  68.473  1.00  0.00    -0.235 A  
HETATM   11  N   UNL     1      -6.454  15.147  66.894  1.00  0.00     0.049 NA 
HETATM   12  C   UNL     1      -6.913  17.341  67.743  1.00  0.00    -0.161 A  
HETATM   13  C   UNL     1      -6.193  16.471  66.962  1.00  0.00    -0.158 A  
HETATM   14 CL   UNL     1      -6.536  19.014  67.794  1.00  0.00    -0.218 Cl 
BRANCH   9  15
HETATM   15  C   UNL     1      -9.547  15.042  69.187  1.00  0.00    -0.202 A  
HETATM   16  C   UNL     1     -10.378  14.007  68.699  1.00  0.00    -0.238 A  
HETATM   17  C   UNL     1     -11.488  13.544  69.416  1.00  0.00    -0.340 A  
HETATM   18  C   UNL     1     -11.818  14.144  70.627  1.00  0.00    -0.263 A  
HETATM   19  C   UNL     1     -11.052  15.195  71.123  1.00  0.00    -0.274 A  
HETATM   20  C   UNL     1      -9.903  15.598  70.431  1.00  0.00     0.370 A  
BRANCH  18  21
HETATM   21  S   UNL     1     -13.228  13.575  71.539  1.00  0.00    -0.286 S  
HETATM   22  C   UNL     1     -13.006  14.334  73.133  1.00  0.00    -0.319 C  
HETATM   23  O   UNL     1     -14.410  14.149  70.926  1.00  0.00     0.180 OA 
HETATM   24  O   UNL     1     -13.092  12.141  71.706  1.00  0.00    -0.438 OA 
ENDBRANCH  18  21
ENDBRANCH   9  15
ENDBRANCH   5   8
TORSDOF 3
ENDMDL
MODEL      133
REMARK 921   NORMALIZED FREE ENERGY PREDICTED BY IDOCK:   -2.26 KCAL/MOL
REMARK 922        TOTAL FREE ENERGY PREDICTED BY IDOCK:   -3.52 KCAL/MOL
REMARK 923 INTER-LIGAND FREE ENERGY PREDICTED BY IDOCK:   -2.84 KCAL/MOL
REMARK 924 INTRA-LIGAND FREE ENERGY PREDICTED BY IDOCK:   -0.68 KCAL/MOL
REMARK 927      BINDING AFFINITY PREDICTED BY RF-SCORE:    0.00 PKD
ROOT
HETATM    1  C   UNL     1      -5.546  12.365  70.212  1.00  0.00    -0.156 C  
HETATM    2  C   UNL     1      -6.286  11.065  70.304  1.00  0.00    -0.139 A  
HETATM    3  N   UNL     1      -7.493  10.991  69.700  1.00  0.00    -0.037 NA 
HETATM    4  C   UNL     1      -8.246   9.885  69.941  1.00  0.00    -0.184 A  
HETATM    5  C   UNL     1      -7.897   8.866  70.820  1.00  0.00    -0.135 A  
HETATM    6  C   UNL     1      -5.755  10.006  71.025  1.00  0.00    -0.083 A  
HETATM    7  C   UNL     1      -6.572   8.910  71.286  1.00  0.00    -0.080 A  
ENDROOT
BRANCH   5   8
HETATM    8  C   UNL     1      -8.837   7.834  71.316  1.00  0.00    -0.133 A  
HETATM    9  C   UNL     1      -9.336   6.725  70.579  1.00  0.00    -0.162 A  
HETATM   10  C   UNL     1     -10.292   5.918  71.247  1.00  0.00    -0.276 A  
HETATM   11  N   UNL     1      -9.285   8.124  72.579  1.00  0.00    -0.224 NA 
HETATM   12  C   UNL     1     -10.732   6.214  72.530  1.00  0.00    -0.224 A  
HETATM   13  C   UNL     1     -10.216   7.326  73.148  1.00  0.00    -0.298 A  
HETATM   14 CL   UNL     1     -11.911   5.233  73.300  1.00  0.00    -0.083 Cl 
BRANCH   9  15
HETATM   15  C   UNL     1      -9.007   6.360  69.167  1.00  0.00    -0.129 A  
HETATM   16  C   UNL     1      -9.328   7.236  68.104  1.00  0.00    -0.131 A  
HETATM   17  C   UNL     1      -8.971   6.958  66.778  1.00  0.00    -0.141 A  
HETATM   18  C   UNL     1      -8.318   5.767  66.481  1.00  0.00    -0.111 A  
HETATM   19  C   UNL     1      -8.021   4.858  67.491  1.00  0.00    -0.095 A  
HETATM   20  C   UNL     1      -8.318   5.181  68.821  1.00  0.00    -0.088 A  
BRANCH  18  21
HETATM   21  S   UNL     1      -7.871   5.400  64.805  1.00  0.00    -0.110 S  
HETATM   22  C   UNL     1      -8.471   6.817  63.911  1.00  0.00     0.324 C  
HETATM   23  O   UNL     1      -6.423   5.396  64.726  1.00  0.00    -0.036 OA 
HETATM   24  O   UNL     1      -8.647   4.248  64.388  1.00  0.00    -0.110 OA 
ENDBRANCH  18  21
ENDBRANCH   9  15
ENDBRANCH   5   8
TORSDOF 3
ENDMDL
MODEL      134
REMARK 921   NORMALIZED FREE ENERGY PREDICTED BY IDOCK:   -2.03 KCAL/MOL
REMARK 922        TOTAL FREE ENERGY PREDICTED BY IDOCK:   -3.25 KCAL/MOL
REMARK 923 INTER-LIGAND FREE ENERGY PREDICTED BY IDOCK:   -2.83 KCAL/MOL
REMARK 924 INTRA-LIGAND FREE ENERGY PREDICTED BY IDOCK:   -0.42 KCAL/MOL
REMARK 927      BINDING AFFINITY PREDICTED BY RF-SCORE:    0.00 PKD
ROOT
HETATM    1  C   UNL     1      -5.125  11.026  73.374  1.00  0.00     0.414 C  
HETATM    2  C   UNL     1      -5.240  12.003  72.244  1.00  0.00     0.373 A  
HETATM    3  N   UNL     1      -5.199  13.319  72.551  1.00  0.00    -0.379 NA 
HETATM    4  C   UNL     1      -5.492  14.203  71.560  1.00  0.00    -0.216 A  
HETATM    5  C   UNL     1      -5.903  13.848  70.280  1.00  0.00    -0.150 A  
HETATM    6  C   UNL     1      -5.426  11.554  70.945  1.00  0.00    -0.103 A  
HETATM    7  C   UNL     1      -5.767  12.485  69.968  1.00  0.00    -0.140 A  
ENDROOT
BRANCH   5   8
HETATM    8  C   UNL     1      -6.516  14.786  69.310  1.00  0.00    -0.121 A  
HETATM    9  C   UNL     1      -7.460  14.455  68.300  1.00  0.00    -0.123 A  
HETATM   10  C   UNL     1      -7.839  15.514  67.437  1.00  0.00    -0.213 A  
HETATM   11  N   UNL     1      -5.978  16.042  69.415  1.00  0.00    -0.132 NA 
HETATM   12  C   UNL     1      -7.297  16.787  67.557  1.00  0.00    -0.153 A  
HETATM   13  C   UNL     1      -6.366  17.000  68.544  1.00  0.00    -0.154 A  
HETATM   14 CL   UNL     1      -7.756  18.040  66.479  1.00  0.00    -0.264 Cl 
BRANCH   9  15
HETATM   15  C   UNL     1      -8.043  13.107  68.018  1.00  0.00    -0.157 A  
HETATM   16  C   UNL     1      -7.332  12.165  67.239  1.00  0.00    -0.149 A  
HETATM   17  C   UNL     1      -7.816  10.870  67.014  1.00  0.00    -0.132 A  
HETATM   18  C   UNL     1      -9.053  10.502  67.534  1.00  0.00    -0.138 A  
HETATM   19  C   UNL     1      -9.804  11.413  68.270  1.00  0.00    -0.202 A  
HETATM   20  C   UNL     1      -9.276  12.680  68.548  1.00  0.00    -0.068 A  
BRANCH  18  21
HETATM   21  S   UNL     1      -9.681   8.869  67.247  1.00  0.00    -0.197 S  
HETATM   22  C   UNL     1      -8.631   7.853  68.263  1.00  0.00    -0.124 C  
HETATM   23  O   UNL     1     -11.025   8.813  67.788  1.00  0.00    -0.093 OA 
HETATM   24  O   UNL     1      -9.417   8.536  65.861  1.00  0.00    -0.208 OA 
ENDBRANCH  18  21
ENDBRANCH   9  15
ENDBRANCH   5   8
TORSDOF 3
ENDMDL
MODEL      135
REMARK 921   NORMALIZED FREE ENERGY PREDICTED BY IDOCK:   -1.98 KCAL/MOL
REMARK 922        TOTAL FREE ENERGY PREDICTED BY IDOCK:   -3.19 KCAL/MOL
REMARK 923 INTER-LIGAND FREE ENERGY PREDICTED BY IDOCK:   -2.26 KCAL/MOL
REMARK 924 INTRA-LIGAND FREE ENERGY PREDICTED BY IDOCK:   -0.93 KCAL/MOL
REMARK 927      BINDING AFFINITY PREDICTED BY RF-SCORE:    0.00 PKD
ROOT
HETATM    1  C   UNL     1      -7.033   4.152  73.114  1.00  0.00    -0.058 C  
HETATM    2  C   UNL     1      -7.332   4.832  71.812  1.00  0.00    -0.071 A  
HETATM    3  N   UNL     1      -6.282   5.179  71.034  1.00  0.00    -0.022 NA 
HETATM    4  C   UNL     1      -6.536   5.961  69.952  1.00  0.00    -0.038 A  
HETATM    5  C   UNL     1      -7.782   6.489  69.632  1.00  0.00    -0.103 A  
HETATM    6  C   UNL     1      -8.640   5.126  71.459  1.00  0.00    -0.132 A  
HETATM    7  C   UNL     1      -8.857   5.964  70.369  1.00  0.00    -0.146 A  
ENDROOT
BRANCH   5   8
HETATM    8  C   UNL     1      -8.001   7.577  68.651  1.00  0.00    -0.123 A  
HETATM    9  C   UNL     1      -8.252   7.419  67.260  1.00  0.00    -0.115 A  
HETATM   10  C   UNL     1      -8.346   8.618  66.509  1.00  0.00    -0.108 A  
HETATM   11  N   UNL     1      -7.821   8.812  69.218  1.00  0.00    -0.098 NA 
HETATM   12  C   UNL     1      -8.173   9.865  67.094  1.00  0.00    -0.121 A  
HETATM   13  C   UNL     1      -7.899   9.913  68.439  1.00  0.00    -0.085 A  
HETATM   14 CL   UNL     1      -8.264  11.296  66.151  1.00  0.00    -0.133 Cl 
BRANCH   9  15
HETATM   15  C   UNL     1      -8.367   6.133  66.506  1.00  0.00    -0.113 A  
HETATM   16  C   UNL     1      -9.503   5.306  66.663  1.00  0.00    -0.148 A  
HETATM   17  C   UNL     1      -9.676   4.132  65.920  1.00  0.00    -0.208 A  
HETATM   18  C   UNL     1      -8.686   3.735  65.026  1.00  0.00    -0.115 A  
HETATM   19  C   UNL     1      -7.533   4.499  64.872  1.00  0.00    -0.073 A  
HETATM   20  C   UNL     1      -7.406   5.708  65.568  1.00  0.00    -0.073 A  
BRANCH  18  21
HETATM   21  S   UNL     1      -8.888   2.245  64.088  1.00  0.00    -0.103 S  
HETATM   22  C   UNL     1      -9.053   2.843  62.419  1.00  0.00    -0.080 C  
HETATM   23  O   UNL     1      -7.650   1.496  64.179  1.00  0.00    -0.056 OA 
HETATM   24  O   UNL     1     -10.153   1.652  64.475  1.00  0.00     0.061 OA 
ENDBRANCH  18  21
ENDBRANCH   9  15
ENDBRANCH   5   8
TORSDOF 3
ENDMDL
MODEL      136
REMARK 921   NORMALIZED FREE ENERGY PREDICTED BY IDOCK:   -1.35 KCAL/MOL
REMARK 922        TOTAL FREE ENERGY PREDICTED BY IDOCK:   -2.45 KCAL/MOL
REMARK 923 INTER-LIGAND FREE ENERGY PREDICTED BY IDOCK:   -2.63 KCAL/MOL
REMARK 924 INTRA-LIGAND FREE ENERGY PREDICTED BY IDOCK:    0.18 KCAL/MOL
REMARK 927      BINDING AFFINITY PREDICTED BY RF-SCORE:    0.00 PKD
ROOT
HETATM    1  C   UNL     1     -14.021   8.974  70.004  1.00  0.00     2.215 C  
HETATM    2  C   UNL     1     -13.399  10.174  70.652  1.00  0.00    -0.035 A  
HETATM    3  N   UNL     1     -13.851  10.525  71.876  1.00  0.00     0.037 NA 
HETATM    4  C   UNL     1     -13.429  11.714  72.382  1.00  0.00     0.246 A  
HETATM    5  C   UNL     1     -12.629  12.625  71.700  1.00  0.00    -0.186 A  
HETATM    6  C   UNL     1     -12.430  10.907  69.985  1.00  0.00    -0.332 A  
HETATM    7  C   UNL     1     -12.055  12.140  70.513  1.00  0.00    -0.383 A  
ENDROOT
BRANCH   5   8
HETATM    8  C   UNL     1     -12.428  14.033  72.114  1.00  0.00    -0.123 A  
HETATM    9  C   UNL     1     -11.974  15.097  71.287  1.00  0.00    -0.399 A  
HETATM   10  C   UNL     1     -11.781  16.344  71.935  1.00  0.00    -0.419 A  
HETATM   11  N   UNL     1     -12.625  14.196  73.461  1.00  0.00    -0.154 NA 
HETATM   12  C   UNL     1     -11.994  16.503  73.298  1.00  0.00    -0.355 A  
HETATM   13  C   UNL     1     -12.399  15.406  74.018  1.00  0.00    -0.659 A  
HETATM   14 CL   UNL     1     -11.724  18.018  74.056  1.00  0.00     0.552 Cl 
BRANCH   9  15
HETATM   15  C   UNL     1     -11.627  15.025  69.835  1.00  0.00    -0.328 A  
HETATM   16  C   UNL     1     -10.362  15.462  69.375  1.00  0.00    -0.258 A  
HETATM   17  C   UNL     1      -9.977  15.342  68.034  1.00  0.00    -0.221 A  
HETATM   18  C   UNL     1     -10.874  14.819  67.109  1.00  0.00    -0.311 A  
HETATM   19  C   UNL     1     -12.144  14.417  67.511  1.00  0.00    -0.327 A  
HETATM   20  C   UNL     1     -12.489  14.474  68.868  1.00  0.00     0.067 A  
BRANCH  18  21
HETATM   21  S   UNL     1     -10.402  14.674  65.406  1.00  0.00    -0.404 S  
HETATM   22  C   UNL     1     -11.900  15.092  64.540  1.00  0.00    -0.371 C  
HETATM   23  O   UNL     1      -9.419  15.703  65.132  1.00  0.00    -0.193 OA 
HETATM   24  O   UNL     1     -10.115  13.276  65.149  1.00  0.00    -0.288 OA 
ENDBRANCH  18  21
ENDBRANCH   9  15
ENDBRANCH   5   8
TORSDOF 3
ENDMDL
MODEL      137
REMARK 921   NORMALIZED FREE ENERGY PREDICTED BY IDOCK:   -1.30 KCAL/MOL
REMARK 922        TOTAL FREE ENERGY PREDICTED BY IDOCK:   -2.39 KCAL/MOL
REMARK 923 INTER-LIGAND FREE ENERGY PREDICTED BY IDOCK:   -1.46 KCAL/MOL
REMARK 924 INTRA-LIGAND FREE ENERGY PREDICTED BY IDOCK:   -0.93 KCAL/MOL
REMARK 927      BINDING AFFINITY PREDICTED BY RF-SCORE:    0.00 PKD
ROOT
HETATM    1  C   UNL     1      -6.981   4.174  73.140  1.00  0.00    -0.058 C  
HETATM    2  C   UNL     1      -6.865   5.337  72.202  1.00  0.00    -0.069 A  
HETATM    3  N   UNL     1      -5.623   5.700  71.809  1.00  0.00    -0.020 NA 
HETATM    4  C   UNL     1      -5.500   6.863  71.116  1.00  0.00    -0.027 A  
HETATM    5  C   UNL     1      -6.546   7.740  70.850  1.00  0.00    -0.038 A  
HETATM    6  C   UNL     1      -7.997   6.029  71.800  1.00  0.00    -0.107 A  
HETATM    7  C   UNL     1      -7.828   7.238  71.129  1.00  0.00    -0.093 A  
ENDROOT
BRANCH   5   8
HETATM    8  C   UNL     1      -6.368   9.133  70.379  1.00  0.00    -0.048 A  
HETATM    9  C   UNL     1      -6.287   9.560  69.025  1.00  0.00    -0.042 A  
HETATM   10  C   UNL     1      -6.031  10.941  68.827  1.00  0.00    -0.039 A  
HETATM   11  N   UNL     1      -6.170   9.998  71.424  1.00  0.00    -0.314 NA 
HETATM   12  C   UNL     1      -5.842  11.812  69.893  1.00  0.00    -0.135 A  
HETATM   13  C   UNL     1      -5.906  11.297  71.164  1.00  0.00     0.212 A  
HETATM   14 CL   UNL     1      -5.506  13.472  69.618  1.00  0.00    -0.088 Cl 
BRANCH   9  15
HETATM   15  C   UNL     1      -6.383   8.705  67.803  1.00  0.00    -0.057 A  
HETATM   16  C   UNL     1      -7.620   8.139  67.416  1.00  0.00    -0.101 A  
HETATM   17  C   UNL     1      -7.760   7.392  66.239  1.00  0.00    -0.093 A  
HETATM   18  C   UNL     1      -6.646   7.158  65.441  1.00  0.00    -0.047 A  
HETATM   19  C   UNL     1      -5.401   7.661  65.807  1.00  0.00    -0.029 A  
HETATM   20  C   UNL     1      -5.289   8.467  66.948  1.00  0.00    -0.036 A  
BRANCH  18  21
HETATM   21  S   UNL     1      -6.808   6.205  63.955  1.00  0.00    -0.039 S  
HETATM   22  C   UNL     1      -6.443   7.390  62.678  1.00  0.00    -0.058 C  
HETATM   23  O   UNL     1      -5.759   5.205  63.956  1.00  0.00    -0.016 OA 
HETATM   24  O   UNL     1      -8.203   5.828  63.827  1.00  0.00    -0.122 OA 
ENDBRANCH  18  21
ENDBRANCH   9  15
ENDBRANCH   5   8
TORSDOF 3
ENDMDL
MODEL      138
REMARK 921   NORMALIZED FREE ENERGY PREDICTED BY IDOCK:   -1.27 KCAL/MOL
REMARK 922        TOTAL FREE ENERGY PREDICTED BY IDOCK:   -2.36 KCAL/MOL
REMARK 923 INTER-LIGAND FREE ENERGY PREDICTED BY IDOCK:   -1.61 KCAL/MOL
REMARK 924 INTRA-LIGAND FREE ENERGY PREDICTED BY IDOCK:   -0.75 KCAL/MOL
REMARK 927      BINDING AFFINITY PREDICTED BY RF-SCORE:    0.00 PKD
ROOT
HETATM    1  C   UNL     1     -14.100   6.724  71.815  1.00  0.00    -0.214 C  
HETATM    2  C   UNL     1     -12.903   7.597  71.589  1.00  0.00    -0.349 A  
HETATM    3  N   UNL     1     -12.929   8.428  70.523  1.00  0.00     0.591 NA 
HETATM    4  C   UNL     1     -11.778   9.077  70.207  1.00  0.00     0.014 A  
HETATM    5  C   UNL     1     -10.560   8.889  70.852  1.00  0.00    -0.295 A  
HETATM    6  C   UNL     1     -11.802   7.506  72.427  1.00  0.00    -0.305 A  
HETATM    7  C   UNL     1     -10.628   8.151  72.046  1.00  0.00    -0.334 A  
ENDROOT
BRANCH   5   8
HETATM    8  C   UNL     1      -9.255   9.348  70.322  1.00  0.00    -0.245 A  
HETATM    9  C   UNL     1      -8.030   8.627  70.361  1.00  0.00    -0.101 A  
HETATM   10  C   UNL     1      -6.894   9.312  69.862  1.00  0.00    -0.055 A  
HETATM   11  N   UNL     1      -9.321  10.639  69.867  1.00  0.00     0.248 NA 
HETATM   12  C   UNL     1      -6.972  10.617  69.393  1.00  0.00    -0.106 A  
HETATM   13  C   UNL     1      -8.194  11.242  69.428  1.00  0.00     0.281 A  
HETATM   14 CL   UNL     1      -5.572  11.428  68.822  1.00  0.00    -0.043 Cl 
BRANCH   9  15
HETATM   15  C   UNL     1      -7.807   7.259  70.922  1.00  0.00    -0.094 A  
HETATM   16  C   UNL     1      -7.083   7.084  72.124  1.00  0.00    -0.072 A  
HETATM   17  C   UNL     1      -6.916   5.825  72.715  1.00  0.00    -0.080 A  
HETATM   18  C   UNL     1      -7.438   4.700  72.086  1.00  0.00    -0.082 A  
HETATM   19  C   UNL     1      -8.120   4.822  70.879  1.00  0.00    -0.083 A  
HETATM   20  C   UNL     1      -8.342   6.095  70.337  1.00  0.00    -0.125 A  
BRANCH  18  21
HETATM   21  S   UNL     1      -7.223   3.099  72.818  1.00  0.00    -0.045 S  
HETATM   22  C   UNL     1      -8.481   3.064  74.077  1.00  0.00    -0.073 C  
HETATM   23  O   UNL     1      -7.559   2.108  71.815  1.00  0.00    -0.039 OA 
HETATM   24  O   UNL     1      -5.932   3.090  73.479  1.00  0.00    -0.003 OA 
ENDBRANCH  18  21
ENDBRANCH   9  15
ENDBRANCH   5   8
TORSDOF 3
ENDMDL
MODEL      139
REMARK 921   NORMALIZED FREE ENERGY PREDICTED BY IDOCK:   -1.13 KCAL/MOL
REMARK 922        TOTAL FREE ENERGY PREDICTED BY IDOCK:   -2.19 KCAL/MOL
REMARK 923 INTER-LIGAND FREE ENERGY PREDICTED BY IDOCK:   -1.92 KCAL/MOL
REMARK 924 INTRA-LIGAND FREE ENERGY PREDICTED BY IDOCK:   -0.27 KCAL/MOL
REMARK 927      BINDING AFFINITY PREDICTED BY RF-SCORE:    0.00 PKD
ROOT
HETATM    1  C   UNL     1      -7.710  11.183  69.546  1.00  0.00     0.105 C  
HETATM    2  C   UNL     1      -7.917   9.804  70.096  1.00  0.00    -0.186 A  
HETATM    3  N   UNL     1      -7.292   9.496  71.255  1.00  0.00    -0.321 NA 
HETATM    4  C   UNL     1      -7.322   8.197  71.656  1.00  0.00    -0.083 A  
HETATM    5  C   UNL     1      -7.882   7.156  70.924  1.00  0.00    -0.095 A  
HETATM    6  C   UNL     1      -8.687   8.882  69.405  1.00  0.00    -0.142 A  
HETATM    7  C   UNL     1      -8.658   7.554  69.822  1.00  0.00    -0.140 A  
ENDROOT
BRANCH   5   8
HETATM    8  C   UNL     1      -7.645   5.720  71.200  1.00  0.00    -0.099 A  
HETATM    9  C   UNL     1      -7.352   4.714  70.238  1.00  0.00    -0.050 A  
HETATM   10  C   UNL     1      -7.248   3.392  70.739  1.00  0.00    -0.033 A  
HETATM   11  N   UNL     1      -7.853   5.419  72.521  1.00  0.00    -0.101 NA 
HETATM   12  C   UNL     1      -7.449   3.098  72.081  1.00  0.00    -0.052 A  
HETATM   13  C   UNL     1      -7.762   4.134  72.927  1.00  0.00    -0.080 A  
HETATM   14 CL   UNL     1      -7.344   1.483  72.650  1.00  0.00    -0.027 Cl 
BRANCH   9  15
HETATM   15  C   UNL     1      -7.204   4.895  68.761  1.00  0.00    -0.057 A  
HETATM   16  C   UNL     1      -8.319   5.241  67.964  1.00  0.00    -0.098 A  
HETATM   17  C   UNL     1      -8.203   5.487  66.590  1.00  0.00    -0.105 A  
HETATM   18  C   UNL     1      -6.964   5.350  65.973  1.00  0.00    -0.066 A  
HETATM   19  C   UNL     1      -5.849   4.970  66.713  1.00  0.00    -0.022 A  
HETATM   20  C   UNL     1      -5.965   4.797  68.099  1.00  0.00    -0.026 A  
BRANCH  18  21
HETATM   21  S   UNL     1      -6.806   5.648  64.232  1.00  0.00    -0.051 S  
HETATM   22  C   UNL     1      -8.374   5.105  63.590  1.00  0.00    -0.129 C  
HETATM   23  O   UNL     1      -6.710   7.082  64.038  1.00  0.00    -0.044 OA 
HETATM   24  O   UNL     1      -5.783   4.753  63.726  1.00  0.00    -0.016 OA 
ENDBRANCH  18  21
ENDBRANCH   9  15
ENDBRANCH   5   8
TORSDOF 3
ENDMDL
MODEL      140
REMARK 921   NORMALIZED FREE ENERGY PREDICTED BY IDOCK:   -1.07 KCAL/MOL
REMARK 922        TOTAL FREE ENERGY PREDICTED BY IDOCK:   -2.12 KCAL/MOL
REMARK 923 INTER-LIGAND FREE ENERGY PREDICTED BY IDOCK:   -3.00 KCAL/MOL
REMARK 924 INTRA-LIGAND FREE ENERGY PREDICTED BY IDOCK:    0.88 KCAL/MOL
REMARK 927      BINDING AFFINITY PREDICTED BY RF-SCORE:    0.00 PKD
ROOT
HETATM    1  C   UNL     1     -10.557  17.457  70.114  1.00  0.00     0.697 C  
HETATM    2  C   UNL     1     -11.318  16.216  70.468  1.00  0.00    -0.373 A  
HETATM    3  N   UNL     1     -11.030  15.623  71.648  1.00  0.00    -0.121 NA 
HETATM    4  C   UNL     1     -11.576  14.401  71.886  1.00  0.00     0.416 A  
HETATM    5  C   UNL     1     -12.346  13.688  70.973  1.00  0.00    -0.436 A  
HETATM    6  C   UNL     1     -12.247  15.687  69.585  1.00  0.00    -0.264 A  
HETATM    7  C   UNL     1     -12.752  14.415  69.841  1.00  0.00    -0.107 A  
ENDROOT
BRANCH   5   8
HETATM    8  C   UNL     1     -12.676  12.250  71.103  1.00  0.00    -0.243 A  
HETATM    9  C   UNL     1     -12.483  11.248  70.112  1.00  0.00    -0.297 A  
HETATM   10  C   UNL     1     -12.956   9.953  70.442  1.00  0.00     0.032 A  
HETATM   11  N   UNL     1     -13.315  11.984  72.286  1.00  0.00    -0.364 NA 
HETATM   12  C   UNL     1     -13.593   9.690  71.648  1.00  0.00    -0.324 A  
HETATM   13  C   UNL     1     -13.763  10.732  72.527  1.00  0.00     0.670 A  
HETATM   14 CL   UNL     1     -14.179   8.118  72.005  1.00  0.00    -0.481 Cl 
BRANCH   9  15
HETATM   15  C   UNL     1     -11.896  11.430  68.749  1.00  0.00    -0.388 A  
HETATM   16  C   UNL     1     -12.025  12.663  68.069  1.00  0.00    -0.300 A  
HETATM   17  C   UNL     1     -11.427  12.891  66.823  1.00  0.00    -0.391 A  
HETATM   18  C   UNL     1     -10.717  11.866  66.208  1.00  0.00    -0.271 A  
HETATM   19  C   UNL     1     -10.601  10.623  66.824  1.00  0.00    -0.297 A  
HETATM   20  C   UNL     1     -11.143  10.433  68.101  1.00  0.00    -0.344 A  
BRANCH  18  21
HETATM   21  S   UNL     1      -9.964  12.139  64.626  1.00  0.00    -0.154 S  
HETATM   22  C   UNL     1      -9.920  13.914  64.505  1.00  0.00     0.257 C  
HETATM   23  O   UNL     1      -8.599  11.656  64.698  1.00  0.00     0.456 OA 
HETATM   24  O   UNL     1     -10.881  11.647  63.615  1.00  0.00    -0.372 OA 
ENDBRANCH  18  21
ENDBRANCH   9  15
ENDBRANCH   5   8
TORSDOF 3
ENDMDL
MODEL      141
REMARK 921   NORMALIZED FREE ENERGY PREDICTED BY IDOCK:   -0.89 KCAL/MOL
REMARK 922        TOTAL FREE ENERGY PREDICTED BY IDOCK:   -1.90 KCAL/MOL
REMARK 923 INTER-LIGAND FREE ENERGY PREDICTED BY IDOCK:   -2.25 KCAL/MOL
REMARK 924 INTRA-LIGAND FREE ENERGY PREDICTED BY IDOCK:    0.35 KCAL/MOL
REMARK 927      BINDING AFFINITY PREDICTED BY RF-SCORE:    0.00 PKD
ROOT
HETATM    1  C   UNL     1      -7.947  16.504  65.245  1.00  0.00     2.917 C  
HETATM    2  C   UNL     1      -8.844  15.739  66.170  1.00  0.00    -0.311 A  
HETATM    3  N   UNL     1     -10.169  16.005  66.116  1.00  0.00    -0.306 NA 
HETATM    4  C   UNL     1     -10.958  15.457  67.077  1.00  0.00    -0.306 A  
HETATM    5  C   UNL     1     -10.491  14.708  68.151  1.00  0.00    -0.237 A  
HETATM    6  C   UNL     1      -8.312  14.829  67.070  1.00  0.00    -0.228 A  
HETATM    7  C   UNL     1      -9.142  14.323  68.066  1.00  0.00    -0.191 A  
ENDROOT
BRANCH   5   8
HETATM    8  C   UNL     1     -11.295  14.379  69.351  1.00  0.00    -0.281 A  
HETATM    9  C   UNL     1     -11.573  13.075  69.848  1.00  0.00    -0.249 A  
HETATM   10  C   UNL     1     -12.438  13.013  70.969  1.00  0.00    -0.385 A  
HETATM   11  N   UNL     1     -11.862  15.499  69.902  1.00  0.00    -0.339 NA 
HETATM   12  C   UNL     1     -12.999  14.154  71.527  1.00  0.00    -0.344 A  
HETATM   13  C   UNL     1     -12.697  15.365  70.956  1.00  0.00    -0.448 A  
HETATM   14 CL   UNL     1     -14.064  14.041  72.867  1.00  0.00    -0.031 Cl 
BRANCH   9  15
HETATM   15  C   UNL     1     -11.102  11.775  69.279  1.00  0.00    -0.278 A  
HETATM   16  C   UNL     1      -9.875  11.698  68.581  1.00  0.00    -0.173 A  
HETATM   17  C   UNL     1      -9.370  10.484  68.097  1.00  0.00    -0.150 A  
HETATM   18  C   UNL     1     -10.110   9.319  68.267  1.00  0.00    -0.185 A  
HETATM   19  C   UNL     1     -11.344   9.358  68.911  1.00  0.00     0.216 A  
HETATM   20  C   UNL     1     -11.802  10.566  69.453  1.00  0.00    -0.271 A  
BRANCH  18  21
HETATM   21  S   UNL     1      -9.487   7.778  67.649  1.00  0.00    -0.147 S  
HETATM   22  C   UNL     1      -8.475   8.280  66.274  1.00  0.00    -0.129 C  
HETATM   23  O   UNL     1      -8.621   7.215  68.666  1.00  0.00    -0.125 OA 
HETATM   24  O   UNL     1     -10.613   7.030  67.124  1.00  0.00    -0.269 OA 
ENDBRANCH  18  21
ENDBRANCH   9  15
ENDBRANCH   5   8
TORSDOF 3
ENDMDL
MODEL      142
REMARK 921   NORMALIZED FREE ENERGY PREDICTED BY IDOCK:   -0.30 KCAL/MOL
REMARK 922        TOTAL FREE ENERGY PREDICTED BY IDOCK:   -1.22 KCAL/MOL
REMARK 923 INTER-LIGAND FREE ENERGY PREDICTED BY IDOCK:   -0.76 KCAL/MOL
REMARK 924 INTRA-LIGAND FREE ENERGY PREDICTED BY IDOCK:   -0.45 KCAL/MOL
REMARK 927      BINDING AFFINITY PREDICTED BY RF-SCORE:    0.00 PKD
ROOT
HETATM    1  C   UNL     1      -9.669   3.693  71.044  1.00  0.00    -0.243 C  
HETATM    2  C   UNL     1      -9.135   4.664  70.035  1.00  0.00    -0.106 A  
HETATM    3  N   UNL     1      -9.875   5.766  69.778  1.00  0.00    -0.167 NA 
HETATM    4  C   UNL     1      -9.493   6.547  68.734  1.00  0.00    -0.128 A  
HETATM    5  C   UNL     1      -8.444   6.254  67.868  1.00  0.00    -0.117 A  
HETATM    6  C   UNL     1      -7.947   4.401  69.370  1.00  0.00    -0.061 A  
HETATM    7  C   UNL     1      -7.612   5.199  68.279  1.00  0.00    -0.079 A  
ENDROOT
BRANCH   5   8
HETATM    8  C   UNL     1      -8.224   6.924  66.566  1.00  0.00    -0.117 A  
HETATM    9  C   UNL     1      -8.584   8.260  66.235  1.00  0.00    -0.152 A  
HETATM   10  C   UNL     1      -8.345   8.650  64.893  1.00  0.00    -0.174 A  
HETATM   11  N   UNL     1      -7.715   6.060  65.632  1.00  0.00    -0.091 NA 
HETATM   12  C   UNL     1      -7.819   7.770  63.956  1.00  0.00    -0.127 A  
HETATM   13  C   UNL     1      -7.535   6.490  64.364  1.00  0.00    -0.091 A  
HETATM   14 CL   UNL     1      -7.568   8.265  62.333  1.00  0.00    -0.108 Cl 
BRANCH   9  15
HETATM   15  C   UNL     1      -9.238   9.265  67.128  1.00  0.00    -0.157 A  
HETATM   16  C   UNL     1     -10.647   9.385  67.167  1.00  0.00    -0.294 A  
HETATM   17  C   UNL     1     -11.294  10.266  68.043  1.00  0.00    -0.219 A  
HETATM   18  C   UNL     1     -10.536  11.083  68.875  1.00  0.00    -0.207 A  
HETATM   19  C   UNL     1      -9.146  11.027  68.838  1.00  0.00    -0.132 A  
HETATM   20  C   UNL     1      -8.514  10.090  68.010  1.00  0.00    -0.117 A  
BRANCH  18  21
HETATM   21  S   UNL     1     -11.344  12.209  69.981  1.00  0.00     0.208 S  
HETATM   22  C   UNL     1     -12.772  12.724  69.052  1.00  0.00     0.998 C  
HETATM   23  O   UNL     1     -11.799  11.450  71.128  1.00  0.00    -0.086 OA 
HETATM   24  O   UNL     1     -10.478  13.362  70.140  1.00  0.00     1.006 OA 
ENDBRANCH  18  21
ENDBRANCH   9  15
ENDBRANCH   5   8
TORSDOF 3
ENDMDL
MODEL      143
REMARK 921   NORMALIZED FREE ENERGY PREDICTED BY IDOCK:   -0.00 KCAL/MOL
REMARK 922        TOTAL FREE ENERGY PREDICTED BY IDOCK:   -0.87 KCAL/MOL
REMARK 923 INTER-LIGAND FREE ENERGY PREDICTED BY IDOCK:   -2.88 KCAL/MOL
REMARK 924 INTRA-LIGAND FREE ENERGY PREDICTED BY IDOCK:    2.02 KCAL/MOL
REMARK 927      BINDING AFFINITY PREDICTED BY RF-SCORE:    0.00 PKD
ROOT
HETATM    1  C   UNL     1      -6.133  19.085  71.110  1.00  0.00     0.365 C  
HETATM    2  C   UNL     1      -6.780  18.609  69.846  1.00  0.00     0.135 A  
HETATM    3  N   UNL     1      -7.646  19.448  69.235  1.00  0.00    -0.281 NA 
HETATM    4  C   UNL     1      -8.375  18.952  68.200  1.00  0.00    -0.309 A  
HETATM    5  C   UNL     1      -8.349  17.627  67.777  1.00  0.00    -0.226 A  
HETATM    6  C   UNL     1      -6.522  17.335  69.362  1.00  0.00    -0.235 A  
HETATM    7  C   UNL     1      -7.319  16.847  68.330  1.00  0.00    -0.193 A  
ENDROOT
BRANCH   5   8
HETATM    8  C   UNL     1      -9.353  17.020  66.874  1.00  0.00    -0.251 A  
HETATM    9  C   UNL     1      -9.595  15.629  66.698  1.00  0.00    -0.267 A  
HETATM   10  C   UNL     1     -10.555  15.290  65.711  1.00  0.00    -0.359 A  
HETATM   11  N   UNL     1      -9.982  17.967  66.108  1.00  0.00    -0.496 NA 
HETATM   12  C   UNL     1     -11.195  16.257  64.947  1.00  0.00    -0.236 A  
HETATM   13  C   UNL     1     -10.868  17.572  65.168  1.00  0.00     0.233 A  
HETATM   14 CL   UNL     1     -12.331  15.810  63.741  1.00  0.00     0.324 Cl 
BRANCH   9  15
HETATM   15  C   UNL     1      -8.907  14.499  67.394  1.00  0.00    -0.207 A  
HETATM   16  C   UNL     1      -8.913  13.200  66.835  1.00  0.00    -0.213 A  
HETATM   17  C   UNL     1      -8.220  12.135  67.423  1.00  0.00    -0.175 A  
HETATM   18  C   UNL     1      -7.535  12.340  68.617  1.00  0.00    -0.100 A  
HETATM   19  C   UNL     1      -7.540  13.593  69.223  1.00  0.00     0.242 A  
HETATM   20  C   UNL     1      -8.176  14.666  68.586  1.00  0.00    -0.159 A  
BRANCH  18  21
HETATM   21  S   UNL     1      -6.663  10.996  69.377  1.00  0.00    -0.125 S  
HETATM   22  C   UNL     1      -5.485  10.527  68.128  1.00  0.00    -0.036 C  
HETATM   23  O   UNL     1      -5.932  11.531  70.509  1.00  0.00    -0.217 OA 
HETATM   24  O   UNL     1      -7.600   9.902  69.539  1.00  0.00    -0.096 OA 
ENDBRANCH  18  21
ENDBRANCH   9  15
ENDBRANCH   5   8
TORSDOF 3
ENDMDL
MODEL      144
REMARK 921   NORMALIZED FREE ENERGY PREDICTED BY IDOCK:    1.38 KCAL/MOL
REMARK 922        TOTAL FREE ENERGY PREDICTED BY IDOCK:    0.76 KCAL/MOL
REMARK 923 INTER-LIGAND FREE ENERGY PREDICTED BY IDOCK:    0.72 KCAL/MOL
REMARK 924 INTRA-LIGAND FREE ENERGY PREDICTED BY IDOCK:    0.04 KCAL/MOL
REMARK 927      BINDING AFFINITY PREDICTED BY RF-SCORE:    0.00 PKD
ROOT
HETATM    1  C   UNL     1     -12.411   9.414  68.205  1.00  0.00     4.927 C  
HETATM    2  C   UNL     1     -12.105  10.553  69.130  1.00  0.00     0.013 A  
HETATM    3  N   UNL     1     -12.450  10.410  70.430  1.00  0.00    -0.290 NA 
HETATM    4  C   UNL     1     -12.349  11.506  71.228  1.00  0.00    -0.209 A  
HETATM    5  C   UNL     1     -11.990  12.775  70.788  1.00  0.00    -0.085 A  
HETATM    6  C   UNL     1     -11.529  11.716  68.643  1.00  0.00    -0.349 A  
HETATM    7  C   UNL     1     -11.483  12.829  69.478  1.00  0.00    -0.293 A  
ENDROOT
BRANCH   5   8
HETATM    8  C   UNL     1     -12.179  14.016  71.575  1.00  0.00    -0.199 A  
HETATM    9  C   UNL     1     -11.704  15.312  71.231  1.00  0.00    -0.425 A  
HETATM   10  C   UNL     1     -11.940  16.330  72.189  1.00  0.00    -0.575 A  
HETATM   11  N   UNL     1     -12.789  13.764  72.776  1.00  0.00    -0.250 NA 
HETATM   12  C   UNL     1     -12.568  16.068  73.399  1.00  0.00    -0.561 A  
HETATM   13  C   UNL     1     -12.960  14.777  73.654  1.00  0.00    -0.153 A  
HETATM   14 CL   UNL     1     -12.813  17.317  74.549  1.00  0.00     0.766 Cl 
BRANCH   9  15
HETATM   15  C   UNL     1     -10.939  15.696  70.005  1.00  0.00    -0.336 A  
HETATM   16  C   UNL     1      -9.572  16.047  70.092  1.00  0.00     0.518 A  
HETATM   17  C   UNL     1      -8.807  16.342  68.956  1.00  0.00    -0.240 A  
HETATM   18  C   UNL     1      -9.411  16.334  67.703  1.00  0.00    -0.218 A  
HETATM   19  C   UNL     1     -10.764  16.036  67.578  1.00  0.00    -0.314 A  
HETATM   20  C   UNL     1     -11.500  15.672  68.714  1.00  0.00    -0.382 A  
BRANCH  18  21
HETATM   21  S   UNL     1      -8.456  16.718  66.260  1.00  0.00    -0.278 S  
HETATM   22  C   UNL     1      -8.506  18.496  66.209  1.00  0.00    -0.207 C  
HETATM   23  O   UNL     1      -7.088  16.311  66.516  1.00  0.00    -0.168 OA 
HETATM   24  O   UNL     1      -9.183  16.219  65.109  1.00  0.00     0.026 OA 
ENDBRANCH  18  21
ENDBRANCH   9  15
ENDBRANCH   5   8
TORSDOF 3
ENDMDL
MODEL      145
REMARK 921   NORMALIZED FREE ENERGY PREDICTED BY IDOCK:    1.40 KCAL/MOL
REMARK 922        TOTAL FREE ENERGY PREDICTED BY IDOCK:    0.78 KCAL/MOL
REMARK 923 INTER-LIGAND FREE ENERGY PREDICTED BY IDOCK:    1.38 KCAL/MOL
REMARK 924 INTRA-LIGAND FREE ENERGY PREDICTED BY IDOCK:   -0.60 KCAL/MOL
REMARK 927      BINDING AFFINITY PREDICTED BY RF-SCORE:    0.00 PKD
ROOT
HETATM    1  C   UNL     1      -6.514  13.734  69.110  1.00  0.00    -0.109 C  
HETATM    2  C   UNL     1      -7.449  12.716  68.533  1.00  0.00    -0.121 A  
HETATM    3  N   UNL     1      -8.454  12.274  69.323  1.00  0.00     0.620 NA 
HETATM    4  C   UNL     1      -9.185  11.219  68.875  1.00  0.00    -0.064 A  
HETATM    5  C   UNL     1      -8.924  10.516  67.703  1.00  0.00    -0.138 A  
HETATM    6  C   UNL     1      -7.248  12.225  67.252  1.00  0.00    -0.138 A  
HETATM    7  C   UNL     1      -7.986  11.117  66.846  1.00  0.00    -0.151 A  
ENDROOT
BRANCH   5   8
HETATM    8  C   UNL     1      -9.510   9.196  67.374  1.00  0.00    -0.143 A  
HETATM    9  C   UNL     1      -9.453   8.025  68.179  1.00  0.00    -0.152 A  
HETATM   10  C   UNL     1     -10.017   6.856  67.610  1.00  0.00    -0.180 A  
HETATM   11  N   UNL     1     -10.043   9.181  66.111  1.00  0.00    -0.270 NA 
HETATM   12  C   UNL     1     -10.565   6.853  66.333  1.00  0.00     0.247 A  
HETATM   13  C   UNL     1     -10.543   8.026  65.620  1.00  0.00     2.848 A  
HETATM   14 CL   UNL     1     -11.216   5.414  65.663  1.00  0.00     0.484 Cl 
BRANCH   9  15
HETATM   15  C   UNL     1      -8.812   7.886  69.523  1.00  0.00    -0.142 A  
HETATM   16  C   UNL     1      -9.435   8.418  70.675  1.00  0.00    -0.191 A  
HETATM   17  C   UNL     1      -8.900   8.244  71.958  1.00  0.00    -0.256 A  
HETATM   18  C   UNL     1      -7.696   7.564  72.109  1.00  0.00    -0.089 A  
HETATM   19  C   UNL     1      -7.028   7.061  70.997  1.00  0.00    -0.065 A  
HETATM   20  C   UNL     1      -7.612   7.180  69.729  1.00  0.00    -0.103 A  
BRANCH  18  21
HETATM   21  S   UNL     1      -7.002   7.347  73.726  1.00  0.00    -0.086 S  
HETATM   22  C   UNL     1      -5.282   7.041  73.385  1.00  0.00    -0.042 C  
HETATM   23  O   UNL     1      -7.105   8.614  74.424  1.00  0.00    -0.282 OA 
HETATM   24  O   UNL     1      -7.567   6.135  74.286  1.00  0.00    -0.093 OA 
ENDBRANCH  18  21
ENDBRANCH   9  15
ENDBRANCH   5   8
TORSDOF 3
ENDMDL
MODEL      146
REMARK 921   NORMALIZED FREE ENERGY PREDICTED BY IDOCK:    1.86 KCAL/MOL
REMARK 922        TOTAL FREE ENERGY PREDICTED BY IDOCK:    1.33 KCAL/MOL
REMARK 923 INTER-LIGAND FREE ENERGY PREDICTED BY IDOCK:    1.55 KCAL/MOL
REMARK 924 INTRA-LIGAND FREE ENERGY PREDICTED BY IDOCK:   -0.22 KCAL/MOL
REMARK 927      BINDING AFFINITY PREDICTED BY RF-SCORE:    0.00 PKD
ROOT
HETATM    1  C   UNL     1      -9.863   4.589  71.081  1.00  0.00    -0.263 C  
HETATM    2  C   UNL     1      -9.295   5.600  70.130  1.00  0.00    -0.154 A  
HETATM    3  N   UNL     1     -10.012   6.726  69.917  1.00  0.00    -0.171 NA 
HETATM    4  C   UNL     1      -9.599   7.552  68.920  1.00  0.00    -0.149 A  
HETATM    5  C   UNL     1      -8.541   7.283  68.057  1.00  0.00    -0.125 A  
HETATM    6  C   UNL     1      -8.101   5.349  69.471  1.00  0.00    -0.096 A  
HETATM    7  C   UNL     1      -7.734   6.194  68.427  1.00  0.00    -0.103 A  
ENDROOT
BRANCH   5   8
HETATM    8  C   UNL     1      -8.288   8.014  66.794  1.00  0.00    -0.116 A  
HETATM    9  C   UNL     1      -7.766   9.331  66.673  1.00  0.00    -0.093 A  
HETATM   10  C   UNL     1      -7.691   9.848  65.355  1.00  0.00    -0.130 A  
HETATM   11  N   UNL     1      -8.727   7.307  65.705  1.00  0.00    -0.141 NA 
HETATM   12  C   UNL     1      -8.128   9.120  64.256  1.00  0.00    -0.148 A  
HETATM   13  C   UNL     1      -8.648   7.869  64.479  1.00  0.00     0.190 A  
HETATM   14 CL   UNL     1      -8.050   9.785  62.677  1.00  0.00    -0.124 Cl 
BRANCH   9  15
HETATM   15  C   UNL     1      -7.350  10.241  67.785  1.00  0.00    -0.087 A  
HETATM   16  C   UNL     1      -7.132  11.618  67.543  1.00  0.00    -0.111 A  
HETATM   17  C   UNL     1      -6.811  12.511  68.573  1.00  0.00    -0.083 A  
HETATM   18  C   UNL     1      -6.657  12.033  69.870  1.00  0.00     0.048 A  
HETATM   19  C   UNL     1      -6.820  10.678  70.143  1.00  0.00    -0.119 A  
HETATM   20  C   UNL     1      -7.212   9.809  69.117  1.00  0.00    -0.073 A  
BRANCH  18  21
HETATM   21  S   UNL     1      -6.240  13.152  71.181  1.00  0.00     1.097 S  
HETATM   22  C   UNL     1      -5.170  14.326  70.377  1.00  0.00    -0.101 C  
HETATM   23  O   UNL     1      -7.453  13.841  71.574  1.00  0.00     2.942 OA 
HETATM   24  O   UNL     1      -5.447  12.417  72.148  1.00  0.00    -0.340 OA 
ENDBRANCH  18  21
ENDBRANCH   9  15
ENDBRANCH   5   8
TORSDOF 3
ENDMDL
MODEL      147
REMARK 921   NORMALIZED FREE ENERGY PREDICTED BY IDOCK:    3.21 KCAL/MOL
REMARK 922        TOTAL FREE ENERGY PREDICTED BY IDOCK:    2.91 KCAL/MOL
REMARK 923 INTER-LIGAND FREE ENERGY PREDICTED BY IDOCK:    2.96 KCAL/MOL
REMARK 924 INTRA-LIGAND FREE ENERGY PREDICTED BY IDOCK:   -0.05 KCAL/MOL
REMARK 927      BINDING AFFINITY PREDICTED BY RF-SCORE:    0.00 PKD
ROOT
HETATM    1  C   UNL     1     -13.226  15.081  63.669  1.00  0.00     2.313 C  
HETATM    2  C   UNL     1     -12.515  13.951  64.350  1.00  0.00    -0.279 A  
HETATM    3  N   UNL     1     -12.423  13.996  65.698  1.00  0.00    -0.489 NA 
HETATM    4  C   UNL     1     -11.620  13.080  66.301  1.00  0.00    -0.360 A  
HETATM    5  C   UNL     1     -10.832  12.153  65.627  1.00  0.00    -0.323 A  
HETATM    6  C   UNL     1     -11.943  12.932  63.605  1.00  0.00    -0.613 A  
HETATM    7  C   UNL     1     -11.093  12.039  64.251  1.00  0.00    -0.411 A  
ENDROOT
BRANCH   5   8
HETATM    8  C   UNL     1      -9.737  11.376  66.253  1.00  0.00    -0.212 A  
HETATM    9  C   UNL     1      -9.297  11.477  67.602  1.00  0.00    -0.171 A  
HETATM   10  C   UNL     1      -8.172  10.686  67.946  1.00  0.00    -0.112 A  
HETATM   11  N   UNL     1      -9.086  10.592  65.337  1.00  0.00    -0.177 NA 
HETATM   12  C   UNL     1      -7.525   9.886  67.013  1.00  0.00    -0.091 A  
HETATM   13  C   UNL     1      -8.005   9.881  65.726  1.00  0.00    -0.120 A  
HETATM   14 CL   UNL     1      -6.149   8.962  67.455  1.00  0.00    -0.051 Cl 
BRANCH   9  15
HETATM   15  C   UNL     1      -9.854  12.366  68.668  1.00  0.00    -0.086 A  
HETATM   16  C   UNL     1      -9.153  13.525  69.076  1.00  0.00     0.356 A  
HETATM   17  C   UNL     1      -9.678  14.417  70.019  1.00  0.00     0.893 A  
HETATM   18  C   UNL     1     -10.907  14.143  70.610  1.00  0.00     0.853 A  
HETATM   19  C   UNL     1     -11.609  12.991  70.269  1.00  0.00    -0.060 A  
HETATM   20  C   UNL     1     -11.107  12.146  69.271  1.00  0.00    -0.229 A  
BRANCH  18  21
HETATM   21  S   UNL     1     -11.577  15.259  71.814  1.00  0.00    -0.427 S  
HETATM   22  C   UNL     1     -10.578  14.942  73.252  1.00  0.00     3.263 C  
HETATM   23  O   UNL     1     -11.304  16.609  71.362  1.00  0.00    -0.200 OA 
HETATM   24  O   UNL     1     -12.929  14.825  72.108  1.00  0.00    -0.307 OA 
ENDBRANCH  18  21
ENDBRANCH   9  15
ENDBRANCH   5   8
TORSDOF 3
ENDMDL
MODEL      148
REMARK 921   NORMALIZED FREE ENERGY PREDICTED BY IDOCK:    4.46 KCAL/MOL
REMARK 922        TOTAL FREE ENERGY PREDICTED BY IDOCK:    4.38 KCAL/MOL
REMARK 923 INTER-LIGAND FREE ENERGY PREDICTED BY IDOCK:    3.05 KCAL/MOL
REMARK 924 INTRA-LIGAND FREE ENERGY PREDICTED BY IDOCK:    1.34 KCAL/MOL
REMARK 927      BINDING AFFINITY PREDICTED BY RF-SCORE:    0.00 PKD
ROOT
HETATM    1  C   UNL     1      -5.223  10.217  73.392  1.00  0.00     0.235 C  
HETATM    2  C   UNL     1      -5.519  11.084  72.206  1.00  0.00     0.619 A  
HETATM    3  N   UNL     1      -6.101  12.282  72.439  1.00  0.00     1.827 NA 
HETATM    4  C   UNL     1      -6.542  12.984  71.361  1.00  0.00     2.561 A  
HETATM    5  C   UNL     1      -6.505  12.525  70.049  1.00  0.00     0.096 A  
HETATM    6  C   UNL     1      -5.239  10.637  70.924  1.00  0.00    -0.094 A  
HETATM    7  C   UNL     1      -5.744  11.361  69.847  1.00  0.00    -0.100 A  
ENDROOT
BRANCH   5   8
HETATM    8  C   UNL     1      -7.256  13.139  68.929  1.00  0.00    -0.048 A  
HETATM    9  C   UNL     1      -7.996  12.446  67.932  1.00  0.00    -0.155 A  
HETATM   10  C   UNL     1      -8.561  13.252  66.911  1.00  0.00    -0.116 A  
HETATM   11  N   UNL     1      -7.069  14.496  68.880  1.00  0.00    -0.111 NA 
HETATM   12  C   UNL     1      -8.377  14.627  66.875  1.00  0.00    -0.126 A  
HETATM   13  C   UNL     1      -7.617  15.200  67.865  1.00  0.00    -0.139 A  
HETATM   14 CL   UNL     1      -9.051  15.570  65.611  1.00  0.00    -0.123 Cl 
BRANCH   9  15
HETATM   15  C   UNL     1      -8.187  10.968  67.815  1.00  0.00    -0.117 A  
HETATM   16  C   UNL     1      -7.667  10.095  68.799  1.00  0.00    -0.088 A  
HETATM   17  C   UNL     1      -7.889   8.713  68.759  1.00  0.00    -0.106 A  
HETATM   18  C   UNL     1      -8.605   8.165  67.700  1.00  0.00    -0.130 A  
HETATM   19  C   UNL     1      -9.097   8.984  66.687  1.00  0.00    -0.196 A  
HETATM   20  C   UNL     1      -8.931  10.372  66.778  1.00  0.00    -0.153 A  
BRANCH  18  21
HETATM   21  S   UNL     1      -8.882   6.416  67.631  1.00  0.00    -0.110 S  
HETATM   22  C   UNL     1      -9.365   6.023  69.299  1.00  0.00    -0.133 C  
HETATM   23  O   UNL     1     -10.021   6.184  66.764  1.00  0.00    -0.155 OA 
HETATM   24  O   UNL     1      -7.604   5.780  67.377  1.00  0.00    -0.093 OA 
ENDBRANCH  18  21
ENDBRANCH   9  15
ENDBRANCH   5   8
TORSDOF 3
ENDMDL
MODEL      149
REMARK 921   NORMALIZED FREE ENERGY PREDICTED BY IDOCK:    4.51 KCAL/MOL
REMARK 922        TOTAL FREE ENERGY PREDICTED BY IDOCK:    4.43 KCAL/MOL
REMARK 923 INTER-LIGAND FREE ENERGY PREDICTED BY IDOCK:    1.97 KCAL/MOL
REMARK 924 INTRA-LIGAND FREE ENERGY PREDICTED BY IDOCK:    2.47 KCAL/MOL
REMARK 927      BINDING AFFINITY PREDICTED BY RF-SCORE:    0.00 PKD
ROOT
HETATM    1  C   UNL     1     -11.212   6.772  67.859  1.00  0.00    -0.169 C  
HETATM    2  C   UNL     1     -10.247   7.889  68.114  1.00  0.00    -0.205 A  
HETATM    3  N   UNL     1     -10.685   8.934  68.852  1.00  0.00    -0.160 NA 
HETATM    4  C   UNL     1      -9.882  10.029  68.925  1.00  0.00    -0.184 A  
HETATM    5  C   UNL     1      -8.683  10.178  68.236  1.00  0.00    -0.120 A  
HETATM    6  C   UNL     1      -8.973   7.854  67.569  1.00  0.00    -0.131 A  
HETATM    7  C   UNL     1      -8.198   9.009  67.627  1.00  0.00    -0.109 A  
ENDROOT
BRANCH   5   8
HETATM    8  C   UNL     1      -7.973  11.467  68.067  1.00  0.00    -0.127 A  
HETATM    9  C   UNL     1      -8.391  12.731  68.566  1.00  0.00    -0.054 A  
HETATM   10  C   UNL     1      -7.583  13.838  68.201  1.00  0.00    -0.128 A  
HETATM   11  N   UNL     1      -6.878  11.337  67.253  1.00  0.00    -0.099 NA 
HETATM   12  C   UNL     1      -6.469  13.695  67.385  1.00  0.00     0.061 A  
HETATM   13  C   UNL     1      -6.165  12.437  66.925  1.00  0.00     0.185 A  
HETATM   14 CL   UNL     1      -5.528  15.058  66.940  1.00  0.00     1.074 Cl 
BRANCH   9  15
HETATM   15  C   UNL     1      -9.615  13.021  69.374  1.00  0.00     1.025 A  
HETATM   16  C   UNL     1     -10.696  12.109  69.395  1.00  0.00     0.054 A  
HETATM   17  C   UNL     1     -11.826  12.314  70.196  1.00  0.00    -0.352 A  
HETATM   18  C   UNL     1     -11.918  13.468  70.967  1.00  0.00     0.008 A  
HETATM   19  C   UNL     1     -10.896  14.412  70.943  1.00  0.00     0.710 A  
HETATM   20  C   UNL     1      -9.740  14.159  70.194  1.00  0.00     1.561 A  
BRANCH  18  21
HETATM   21  S   UNL     1     -13.349  13.745  71.977  1.00  0.00    -0.485 S  
HETATM   22  C   UNL     1     -14.187  15.066  71.128  1.00  0.00    -0.308 C  
HETATM   23  O   UNL     1     -14.179  12.558  71.898  1.00  0.00     0.373 OA 
HETATM   24  O   UNL     1     -12.891  14.256  73.254  1.00  0.00    -0.451 OA 
ENDBRANCH  18  21
ENDBRANCH   9  15
ENDBRANCH   5   8
TORSDOF 3
ENDMDL
MODEL      150
REMARK 921   NORMALIZED FREE ENERGY PREDICTED BY IDOCK:    7.37 KCAL/MOL
REMARK 922        TOTAL FREE ENERGY PREDICTED BY IDOCK:    7.80 KCAL/MOL
REMARK 923 INTER-LIGAND FREE ENERGY PREDICTED BY IDOCK:    8.07 KCAL/MOL
REMARK 924 INTRA-LIGAND FREE ENERGY PREDICTED BY IDOCK:   -0.26 KCAL/MOL
REMARK 927      BINDING AFFINITY PREDICTED BY RF-SCORE:    0.00 PKD
ROOT
HETATM    1  C   UNL     1      -5.233  10.216  73.396  1.00  0.00     0.174 C  
HETATM    2  C   UNL     1      -5.553  11.077  72.212  1.00  0.00     0.813 A  
HETATM    3  N   UNL     1      -6.159  12.262  72.449  1.00  0.00     1.827 NA 
HETATM    4  C   UNL     1      -6.621  12.955  71.375  1.00  0.00     2.732 A  
HETATM    5  C   UNL     1      -6.582  12.497  70.062  1.00  0.00     0.212 A  
HETATM    6  C   UNL     1      -5.272  10.636  70.928  1.00  0.00    -0.094 A  
HETATM    7  C   UNL     1      -5.799  11.349  69.855  1.00  0.00    -0.109 A  
ENDROOT
BRANCH   5   8
HETATM    8  C   UNL     1      -7.352  13.096  68.946  1.00  0.00    -0.019 A  
HETATM    9  C   UNL     1      -8.648  12.704  68.512  1.00  0.00    -0.051 A  
HETATM   10  C   UNL     1      -9.144  13.374  67.365  1.00  0.00    -0.216 A  
HETATM   11  N   UNL     1      -6.615  14.035  68.272  1.00  0.00    -0.097 NA 
HETATM   12  C   UNL     1      -8.395  14.332  66.695  1.00  0.00     0.206 A  
HETATM   13  C   UNL     1      -7.140  14.618  67.172  1.00  0.00     0.196 A  
HETATM   14 CL   UNL     1      -9.014  15.105  65.294  1.00  0.00     0.971 Cl 
BRANCH   9  15
HETATM   15  C   UNL     1      -9.507  11.628  69.096  1.00  0.00     0.249 A  
HETATM   16  C   UNL     1      -9.091  10.920  70.247  1.00  0.00     1.727 A  
HETATM   17  C   UNL     1      -9.902   9.957  70.861  1.00  0.00     0.177 A  
HETATM   18  C   UNL     1     -11.139   9.650  70.305  1.00  0.00    -0.276 A  
HETATM   19  C   UNL     1     -11.568  10.292  69.148  1.00  0.00    -0.166 A  
HETATM   20  C   UNL     1     -10.779  11.305  68.586  1.00  0.00    -0.241 A  
BRANCH  18  21
HETATM   21  S   UNL     1     -12.169   8.424  71.067  1.00  0.00    -0.090 S  
HETATM   22  C   UNL     1     -12.075   8.841  72.794  1.00  0.00     0.048 C  
HETATM   23  O   UNL     1     -13.529   8.653  70.619  1.00  0.00     0.367 OA 
HETATM   24  O   UNL     1     -11.526   7.137  70.884  1.00  0.00    -0.273 OA 
ENDBRANCH  18  21
ENDBRANCH   9  15
ENDBRANCH   5   8
TORSDOF 3
ENDMDL
MODEL      151
REMARK 921   NORMALIZED FREE ENERGY PREDICTED BY IDOCK:    9.16 KCAL/MOL
REMARK 922        TOTAL FREE ENERGY PREDICTED BY IDOCK:    9.90 KCAL/MOL
REMARK 923 INTER-LIGAND FREE ENERGY PREDICTED BY IDOCK:    9.57 KCAL/MOL
REMARK 924 INTRA-LIGAND FREE ENERGY PREDICTED BY IDOCK:    0.34 KCAL/MOL
REMARK 927      BINDING AFFINITY PREDICTED BY RF-SCORE:    0.00 PKD
ROOT
HETATM    1  C   UNL     1     -13.557  15.526  63.604  1.00  0.00     3.735 C  
HETATM    2  C   UNL     1     -12.332  15.716  64.448  1.00  0.00     0.078 A  
HETATM    3  N   UNL     1     -12.512  15.894  65.776  1.00  0.00     1.628 NA 
HETATM    4  C   UNL     1     -11.428  16.255  66.511  1.00  0.00     0.609 A  
HETATM    5  C   UNL     1     -10.169  16.525  65.985  1.00  0.00    -0.372 A  
HETATM    6  C   UNL     1     -11.076  15.748  63.862  1.00  0.00     0.943 A  
HETATM    7  C   UNL     1      -9.997  16.163  64.638  1.00  0.00     1.383 A  
ENDROOT
BRANCH   5   8
HETATM    8  C   UNL     1      -9.084  17.210  66.726  1.00  0.00    -0.247 A  
HETATM    9  C   UNL     1      -9.028  17.422  68.131  1.00  0.00    -0.260 A  
HETATM   10  C   UNL     1      -7.923  18.179  68.598  1.00  0.00    -0.301 A  
HETATM   11  N   UNL     1      -8.148  17.739  65.876  1.00  0.00    -0.544 NA 
HETATM   12  C   UNL     1      -6.974  18.703  67.730  1.00  0.00    -0.215 A  
HETATM   13  C   UNL     1      -7.134  18.472  66.385  1.00  0.00    -0.235 A  
HETATM   14 CL   UNL     1      -5.665  19.638  68.324  1.00  0.00    -0.226 Cl 
BRANCH   9  15
HETATM   15  C   UNL     1     -10.032  16.987  69.149  1.00  0.00    -0.229 A  
HETATM   16  C   UNL     1     -10.595  17.922  70.050  1.00  0.00     1.114 A  
HETATM   17  C   UNL     1     -11.589  17.564  70.968  1.00  0.00     2.778 A  
HETATM   18  C   UNL     1     -12.015  16.241  71.035  1.00  0.00    -0.116 A  
HETATM   19  C   UNL     1     -11.457  15.281  70.196  1.00  0.00    -0.319 A  
HETATM   20  C   UNL     1     -10.516  15.667  69.233  1.00  0.00    -0.247 A  
BRANCH  18  21
HETATM   21  S   UNL     1     -13.265  15.773  72.201  1.00  0.00    -0.359 S  
HETATM   22  C   UNL     1     -12.320  15.317  73.638  1.00  0.00    -0.571 C  
HETATM   23  O   UNL     1     -14.034  16.959  72.522  1.00  0.00     1.919 OA 
HETATM   24  O   UNL     1     -13.910  14.577  71.695  1.00  0.00    -0.381 OA 
ENDBRANCH  18  21
ENDBRANCH   9  15
ENDBRANCH   5   8
TORSDOF 3
ENDMDL
MODEL      152
REMARK 921   NORMALIZED FREE ENERGY PREDICTED BY IDOCK:    9.34 KCAL/MOL
REMARK 922        TOTAL FREE ENERGY PREDICTED BY IDOCK:   10.12 KCAL/MOL
REMARK 923 INTER-LIGAND FREE ENERGY PREDICTED BY IDOCK:   10.56 KCAL/MOL
REMARK 924 INTRA-LIGAND FREE ENERGY PREDICTED BY IDOCK:   -0.44 KCAL/MOL
REMARK 927      BINDING AFFINITY PREDICTED BY RF-SCORE:    0.00 PKD
ROOT
HETATM    1  C   UNL     1      -5.145  13.005  68.587  1.00  0.00    -0.064 C  
HETATM    2  C   UNL     1      -6.616  12.982  68.300  1.00  0.00    -0.094 A  
HETATM    3  N   UNL     1      -7.385  12.166  69.055  1.00  0.00    -0.052 NA 
HETATM    4  C   UNL     1      -8.680  11.999  68.677  1.00  0.00    -0.012 A  
HETATM    5  C   UNL     1      -9.246  12.545  67.530  1.00  0.00    -0.188 A  
HETATM    6  C   UNL     1      -7.141  13.742  67.266  1.00  0.00     0.054 A  
HETATM    7  C   UNL     1      -8.459  13.511  66.881  1.00  0.00    -0.066 A  
ENDROOT
BRANCH   5   8
HETATM    8  C   UNL     1     -10.543  12.120  66.955  1.00  0.00    -0.228 A  
HETATM    9  C   UNL     1     -11.126  10.827  67.056  1.00  0.00    -0.245 A  
HETATM   10  C   UNL     1     -12.340  10.639  66.349  1.00  0.00     4.356 A  
HETATM   11  N   UNL     1     -11.104  13.108  66.188  1.00  0.00    -0.280 NA 
HETATM   12  C   UNL     1     -12.907  11.649  65.583  1.00  0.00     3.170 A  
HETATM   13  C   UNL     1     -12.251  12.854  65.520  1.00  0.00    -0.474 A  
HETATM   14 CL   UNL     1     -14.363  11.380  64.717  1.00  0.00     6.344 Cl 
BRANCH   9  15
HETATM   15  C   UNL     1     -10.566   9.640  67.773  1.00  0.00    -0.320 A  
HETATM   16  C   UNL     1      -9.709   8.735  67.105  1.00  0.00    -0.248 A  
HETATM   17  C   UNL     1      -9.111   7.653  67.765  1.00  0.00    -0.131 A  
HETATM   18  C   UNL     1      -9.395   7.428  69.107  1.00  0.00    -0.146 A  
HETATM   19  C   UNL     1     -10.268   8.270  69.791  1.00  0.00    -0.204 A  
HETATM   20  C   UNL     1     -10.801   9.389  69.139  1.00  0.00    -0.176 A  
BRANCH  18  21
HETATM   21  S   UNL     1      -8.653   6.056  69.950  1.00  0.00    -0.132 S  
HETATM   22  C   UNL     1      -7.008   6.642  70.295  1.00  0.00    -0.066 C  
HETATM   23  O   UNL     1      -9.347   5.887  71.212  1.00  0.00    -0.155 OA 
HETATM   24  O   UNL     1      -8.547   4.965  69.001  1.00  0.00    -0.085 OA 
ENDBRANCH  18  21
ENDBRANCH   9  15
ENDBRANCH   5   8
TORSDOF 3
ENDMDL
MODEL      153
REMARK 921   NORMALIZED FREE ENERGY PREDICTED BY IDOCK:   10.91 KCAL/MOL
REMARK 922        TOTAL FREE ENERGY PREDICTED BY IDOCK:   11.96 KCAL/MOL
REMARK 923 INTER-LIGAND FREE ENERGY PREDICTED BY IDOCK:   11.71 KCAL/MOL
REMARK 924 INTRA-LIGAND FREE ENERGY PREDICTED BY IDOCK:    0.25 KCAL/MOL
REMARK 927      BINDING AFFINITY PREDICTED BY RF-SCORE:    0.00 PKD
ROOT
HETATM    1  C   UNL     1     -10.069  18.780  70.774  1.00  0.00     2.281 C  
HETATM    2  C   UNL     1     -10.717  17.457  71.049  1.00  0.00     1.764 A  
HETATM    3  N   UNL     1     -10.051  16.590  71.845  1.00  0.00     4.062 NA 
HETATM    4  C   UNL     1     -10.541  15.326  71.942  1.00  0.00     0.910 A  
HETATM    5  C   UNL     1     -11.629  14.842  71.223  1.00  0.00    -0.359 A  
HETATM    6  C   UNL     1     -11.932  17.136  70.463  1.00  0.00     2.781 A  
HETATM    7  C   UNL     1     -12.378  15.821  70.548  1.00  0.00    -0.388 A  
ENDROOT
BRANCH   5   8
HETATM    8  C   UNL     1     -11.969  13.407  71.089  1.00  0.00     0.188 A  
HETATM    9  C   UNL     1     -11.977  12.652  69.883  1.00  0.00    -0.365 A  
HETATM   10  C   UNL     1     -12.419  11.310  69.997  1.00  0.00    -0.251 A  
HETATM   11  N   UNL     1     -12.401  12.876  72.277  1.00  0.00     0.571 NA 
HETATM   12  C   UNL     1     -12.844  10.778  71.207  1.00  0.00    -0.438 A  
HETATM   13  C   UNL     1     -12.832  11.596  72.310  1.00  0.00     0.318 A  
HETATM   14 CL   UNL     1     -13.400   9.158  71.305  1.00  0.00    -0.323 Cl 
BRANCH   9  15
HETATM   15  C   UNL     1     -11.629  13.140  68.513  1.00  0.00    -0.361 A  
HETATM   16  C   UNL     1     -11.302  12.224  67.486  1.00  0.00    -0.388 A  
HETATM   17  C   UNL     1     -11.041  12.641  66.174  1.00  0.00    -0.327 A  
HETATM   18  C   UNL     1     -11.060  13.998  65.871  1.00  0.00    -0.301 A  
HETATM   19  C   UNL     1     -11.335  14.935  66.862  1.00  0.00    -0.338 A  
HETATM   20  C   UNL     1     -11.666  14.500  68.152  1.00  0.00    -0.369 A  
BRANCH  18  21
HETATM   21  S   UNL     1     -10.720  14.539  64.217  1.00  0.00     0.560 S  
HETATM   22  C   UNL     1     -10.992  13.068  63.253  1.00  0.00     0.340 C  
HETATM   23  O   UNL     1     -11.734  15.510  63.855  1.00  0.00    -0.319 OA 
HETATM   24  O   UNL     1      -9.309  14.864  64.144  1.00  0.00     2.465 OA 
ENDBRANCH  18  21
ENDBRANCH   9  15
ENDBRANCH   5   8
TORSDOF 3
ENDMDL
MODEL      154
REMARK 921   NORMALIZED FREE ENERGY PREDICTED BY IDOCK:   12.10 KCAL/MOL
REMARK 922        TOTAL FREE ENERGY PREDICTED BY IDOCK:   13.35 KCAL/MOL
REMARK 923 INTER-LIGAND FREE ENERGY PREDICTED BY IDOCK:   12.81 KCAL/MOL
REMARK 924 INTRA-LIGAND FREE ENERGY PREDICTED BY IDOCK:    0.54 KCAL/MOL
REMARK 927      BINDING AFFINITY PREDICTED BY RF-SCORE:    0.00 PKD
ROOT
HETATM    1  C   UNL     1     -12.370  21.070  63.471  1.00  0.00     7.576 C  
HETATM    2  C   UNL     1     -11.161  20.547  64.186  1.00  0.00     3.513 A  
HETATM    3  N   UNL     1     -11.314  19.435  64.939  1.00  0.00     0.462 NA 
HETATM    4  C   UNL     1     -10.275  19.070  65.735  1.00  0.00    -0.176 A  
HETATM    5  C   UNL     1      -9.100  19.798  65.886  1.00  0.00    -0.188 A  
HETATM    6  C   UNL     1      -9.951  21.219  64.100  1.00  0.00     3.944 A  
HETATM    7  C   UNL     1      -8.925  20.842  64.962  1.00  0.00     1.828 A  
ENDROOT
BRANCH   5   8
HETATM    8  C   UNL     1      -8.113  19.575  66.968  1.00  0.00    -0.275 A  
HETATM    9  C   UNL     1      -7.827  18.337  67.605  1.00  0.00    -0.232 A  
HETATM   10  C   UNL     1      -6.898  18.392  68.676  1.00  0.00    -0.275 A  
HETATM   11  N   UNL     1      -7.555  20.753  67.392  1.00  0.00    -0.340 NA 
HETATM   12  C   UNL     1      -6.329  19.589  69.091  1.00  0.00    -0.300 A  
HETATM   13  C   UNL     1      -6.695  20.738  68.435  1.00  0.00    -0.117 A  
HETATM   14 CL   UNL     1      -5.231  19.626  70.408  1.00  0.00    -0.218 Cl 
BRANCH   9  15
HETATM   15  C   UNL     1      -8.441  17.006  67.307  1.00  0.00    -0.210 A  
HETATM   16  C   UNL     1      -8.784  16.654  65.981  1.00  0.00    -0.239 A  
HETATM   17  C   UNL     1      -9.295  15.391  65.656  1.00  0.00    -0.168 A  
HETATM   18  C   UNL     1      -9.515  14.461  66.667  1.00  0.00    -0.283 A  
HETATM   19  C   UNL     1      -9.231  14.783  67.991  1.00  0.00    -0.194 A  
HETATM   20  C   UNL     1      -8.653  16.023  68.292  1.00  0.00    -0.179 A  
BRANCH  18  21
HETATM   21  S   UNL     1     -10.171  12.863  66.270  1.00  0.00    -0.283 S  
HETATM   22  C   UNL     1     -11.875  12.996  66.768  1.00  0.00    -0.388 C  
HETATM   23  O   UNL     1     -10.132  12.717  64.828  1.00  0.00    -0.275 OA 
HETATM   24  O   UNL     1      -9.527  11.897  67.139  1.00  0.00    -0.174 OA 
ENDBRANCH  18  21
ENDBRANCH   9  15
ENDBRANCH   5   8
TORSDOF 3
ENDMDL
MODEL      155
REMARK 921   NORMALIZED FREE ENERGY PREDICTED BY IDOCK:   13.04 KCAL/MOL
REMARK 922        TOTAL FREE ENERGY PREDICTED BY IDOCK:   14.47 KCAL/MOL
REMARK 923 INTER-LIGAND FREE ENERGY PREDICTED BY IDOCK:   15.39 KCAL/MOL
REMARK 924 INTRA-LIGAND FREE ENERGY PREDICTED BY IDOCK:   -0.92 KCAL/MOL
REMARK 927      BINDING AFFINITY PREDICTED BY RF-SCORE:    0.00 PKD
ROOT
HETATM    1  C   UNL     1      -5.131  17.780  66.627  1.00  0.00    -0.184 C  
HETATM    2  C   UNL     1      -5.967  16.578  66.947  1.00  0.00    -0.059 A  
HETATM    3  N   UNL     1      -6.871  16.183  66.022  1.00  0.00     0.823 NA 
HETATM    4  C   UNL     1      -7.757  15.218  66.385  1.00  0.00     0.756 A  
HETATM    5  C   UNL     1      -7.846  14.663  67.657  1.00  0.00    -0.196 A  
HETATM    6  C   UNL     1      -5.833  15.936  68.169  1.00  0.00    -0.129 A  
HETATM    7  C   UNL     1      -6.785  14.983  68.521  1.00  0.00    -0.098 A  
ENDROOT
BRANCH   5   8
HETATM    8  C   UNL     1      -8.991  13.854  68.136  1.00  0.00    -0.185 A  
HETATM    9  C   UNL     1     -10.277  14.344  68.493  1.00  0.00    -0.243 A  
HETATM   10  C   UNL     1     -11.185  13.381  69.005  1.00  0.00    -0.323 A  
HETATM   11  N   UNL     1      -8.641  12.541  68.315  1.00  0.00    -0.184 NA 
HETATM   12  C   UNL     1     -10.825  12.051  69.172  1.00  0.00    -0.125 A  
HETATM   13  C   UNL     1      -9.547  11.681  68.830  1.00  0.00    -0.072 A  
HETATM   14 CL   UNL     1     -11.938  10.917  69.820  1.00  0.00    -0.391 Cl 
BRANCH   9  15
HETATM   15  C   UNL     1     -10.748  15.762  68.443  1.00  0.00    -0.281 A  
HETATM   16  C   UNL     1     -10.092  16.765  69.194  1.00  0.00    -0.280 A  
HETATM   17  C   UNL     1     -10.461  18.113  69.116  1.00  0.00     0.112 A  
HETATM   18  C   UNL     1     -11.532  18.484  68.309  1.00  0.00     1.464 A  
HETATM   19  C   UNL     1     -12.232  17.523  67.586  1.00  0.00     2.981 A  
HETATM   20  C   UNL     1     -11.806  16.188  67.618  1.00  0.00     0.467 A  
BRANCH  18  21
HETATM   21  S   UNL     1     -12.016  20.186  68.211  1.00  0.00     4.146 S  
HETATM   22  C   UNL     1     -11.009  20.811  66.883  1.00  0.00     1.787 C  
HETATM   23  O   UNL     1     -13.402  20.226  67.784  1.00  0.00     3.683 OA 
HETATM   24  O   UNL     1     -11.590  20.834  69.436  1.00  0.00     1.922 OA 
ENDBRANCH  18  21
ENDBRANCH   9  15
ENDBRANCH   5   8
TORSDOF 3
ENDMDL
MODEL      156
REMARK 921   NORMALIZED FREE ENERGY PREDICTED BY IDOCK:   16.17 KCAL/MOL
REMARK 922        TOTAL FREE ENERGY PREDICTED BY IDOCK:   18.14 KCAL/MOL
REMARK 923 INTER-LIGAND FREE ENERGY PREDICTED BY IDOCK:   19.13 KCAL/MOL
REMARK 924 INTRA-LIGAND FREE ENERGY PREDICTED BY IDOCK:   -0.99 KCAL/MOL
REMARK 927      BINDING AFFINITY PREDICTED BY RF-SCORE:    0.00 PKD
ROOT
HETATM    1  C   UNL     1      -5.141  11.774  72.896  1.00  0.00     0.465 C  
HETATM    2  C   UNL     1      -5.964  12.767  72.132  1.00  0.00     1.684 A  
HETATM    3  N   UNL     1      -7.021  13.321  72.767  1.00  0.00     4.622 NA 
HETATM    4  C   UNL     1      -7.876  14.071  72.022  1.00  0.00     6.909 A  
HETATM    5  C   UNL     1      -7.783  14.244  70.646  1.00  0.00     1.898 A  
HETATM    6  C   UNL     1      -5.662  13.057  70.810  1.00  0.00    -0.160 A  
HETATM    7  C   UNL     1      -6.584  13.792  70.069  1.00  0.00     0.045 A  
ENDROOT
BRANCH   5   8
HETATM    8  C   UNL     1      -8.868  14.790  69.798  1.00  0.00     0.347 A  
HETATM    9  C   UNL     1      -9.977  14.066  69.280  1.00  0.00     0.173 A  
HETATM   10  C   UNL     1     -10.842  14.791  68.422  1.00  0.00    -0.248 A  
HETATM   11  N   UNL     1      -8.633  16.096  69.455  1.00  0.00    -0.079 NA 
HETATM   12  C   UNL     1     -10.602  16.117  68.088  1.00  0.00    -0.290 A  
HETATM   13  C   UNL     1      -9.485  16.721  68.613  1.00  0.00    -0.255 A  
HETATM   14 CL   UNL     1     -11.653  16.958  67.025  1.00  0.00     0.789 Cl 
BRANCH   9  15
HETATM   15  C   UNL     1     -10.288  12.619  69.494  1.00  0.00     0.648 A  
HETATM   16  C   UNL     1     -10.945  12.191  70.671  1.00  0.00     2.028 A  
HETATM   17  C   UNL     1     -11.315  10.856  70.872  1.00  0.00     0.205 A  
HETATM   18  C   UNL     1     -10.994   9.904  69.910  1.00  0.00    -0.281 A  
HETATM   19  C   UNL     1     -10.311  10.276  68.756  1.00  0.00    -0.211 A  
HETATM   20  C   UNL     1     -10.011  11.626  68.534  1.00  0.00    -0.198 A  
BRANCH  18  21
HETATM   21  S   UNL     1     -11.448   8.208  70.158  1.00  0.00     0.108 S  
HETATM   22  C   UNL     1     -13.184   8.311  70.537  1.00  0.00     0.946 C  
HETATM   23  O   UNL     1     -11.301   7.523  68.889  1.00  0.00     0.208 OA 
HETATM   24  O   UNL     1     -10.759   7.741  71.346  1.00  0.00    -0.221 OA 
ENDBRANCH  18  21
ENDBRANCH   9  15
ENDBRANCH   5   8
TORSDOF 3
ENDMDL
MODEL      157
REMARK 921   NORMALIZED FREE ENERGY PREDICTED BY IDOCK:   20.37 KCAL/MOL
REMARK 922        TOTAL FREE ENERGY PREDICTED BY IDOCK:   23.07 KCAL/MOL
REMARK 923 INTER-LIGAND FREE ENERGY PREDICTED BY IDOCK:   24.05 KCAL/MOL
REMARK 924 INTRA-LIGAND FREE ENERGY PREDICTED BY IDOCK:   -0.98 KCAL/MOL
REMARK 927      BINDING AFFINITY PREDICTED BY RF-SCORE:    0.00 PKD
ROOT
HETATM    1  C   UNL     1      -7.315  16.013  72.980  1.00  0.00    10.454 C  
HETATM    2  C   UNL     1      -7.005  14.807  72.145  1.00  0.00     2.546 A  
HETATM    3  N   UNL     1      -5.720  14.626  71.766  1.00  0.00    -0.010 NA 
HETATM    4  C   UNL     1      -5.468  13.647  70.858  1.00  0.00    -0.178 A  
HETATM    5  C   UNL     1      -6.443  12.873  70.237  1.00  0.00     0.264 A  
HETATM    6  C   UNL     1      -8.019  13.948  71.751  1.00  0.00     7.276 A  
HETATM    7  C   UNL     1      -7.731  12.986  70.787  1.00  0.00     5.045 A  
ENDROOT
BRANCH   5   8
HETATM    8  C   UNL     1      -6.206  12.037  69.037  1.00  0.00    -0.079 A  
HETATM    9  C   UNL     1      -6.822  12.195  67.765  1.00  0.00    -0.106 A  
HETATM   10  C   UNL     1      -6.494  11.215  66.794  1.00  0.00    -0.127 A  
HETATM   11  N   UNL     1      -5.379  10.979  69.315  1.00  0.00    -0.041 NA 
HETATM   12  C   UNL     1      -5.647  10.153  67.081  1.00  0.00    -0.045 A  
HETATM   13  C   UNL     1      -5.127  10.068  68.349  1.00  0.00    -0.036 A  
HETATM   14 CL   UNL     1      -5.292   8.969  65.891  1.00  0.00    -0.040 Cl 
BRANCH   9  15
HETATM   15  C   UNL     1      -7.815  13.240  67.369  1.00  0.00    -0.159 A  
HETATM   16  C   UNL     1      -9.158  12.890  67.099  1.00  0.00    -0.220 A  
HETATM   17  C   UNL     1     -10.130  13.851  66.794  1.00  0.00    -0.265 A  
HETATM   18  C   UNL     1      -9.765  15.191  66.710  1.00  0.00    -0.242 A  
HETATM   19  C   UNL     1      -8.444  15.573  66.926  1.00  0.00    -0.289 A  
HETATM   20  C   UNL     1      -7.499  14.610  67.301  1.00  0.00    -0.148 A  
BRANCH  18  21
HETATM   21  S   UNL     1     -10.984  16.416  66.314  1.00  0.00     0.162 S  
HETATM   22  C   UNL     1     -12.439  15.442  65.993  1.00  0.00     1.072 C  
HETATM   23  O   UNL     1     -11.221  17.203  67.508  1.00  0.00    -0.081 OA 
HETATM   24  O   UNL     1     -10.585  17.044  65.069  1.00  0.00    -0.703 OA 
ENDBRANCH  18  21
ENDBRANCH   9  15
ENDBRANCH   5   8
TORSDOF 3
ENDMDL
MODEL      158
REMARK 921   NORMALIZED FREE ENERGY PREDICTED BY IDOCK:   32.50 KCAL/MOL
REMARK 922        TOTAL FREE ENERGY PREDICTED BY IDOCK:   37.34 KCAL/MOL
REMARK 923 INTER-LIGAND FREE ENERGY PREDICTED BY IDOCK:   37.78 KCAL/MOL
REMARK 924 INTRA-LIGAND FREE ENERGY PREDICTED BY IDOCK:   -0.45 KCAL/MOL
REMARK 927      BINDING AFFINITY PREDICTED BY RF-SCORE:    0.00 PKD
ROOT
HETATM    1  C   UNL     1      -5.294  12.878  68.477  1.00  0.00    -0.061 C  
HETATM    2  C   UNL     1      -6.648  12.380  68.070  1.00  0.00    -0.081 A  
HETATM    3  N   UNL     1      -7.219  11.427  68.841  1.00  0.00    -0.107 NA 
HETATM    4  C   UNL     1      -8.352  10.840  68.373  1.00  0.00    -0.132 A  
HETATM    5  C   UNL     1      -8.921  11.096  67.130  1.00  0.00    -0.145 A  
HETATM    6  C   UNL     1      -7.255  12.860  66.920  1.00  0.00     0.349 A  
HETATM    7  C   UNL     1      -8.390  12.205  66.450  1.00  0.00     0.102 A  
ENDROOT
BRANCH   5   8
HETATM    8  C   UNL     1      -9.957  10.248  66.496  1.00  0.00    -0.224 A  
HETATM    9  C   UNL     1     -10.119   8.845  66.667  1.00  0.00    -0.357 A  
HETATM   10  C   UNL     1     -11.136   8.240  65.887  1.00  0.00     3.523 A  
HETATM   11  N   UNL     1     -10.714  10.960  65.602  1.00  0.00    -0.163 NA 
HETATM   12  C   UNL     1     -11.906   8.972  64.991  1.00  0.00    11.152 A  
HETATM   13  C   UNL     1     -11.652  10.316  64.872  1.00  0.00     3.112 A  
HETATM   14 CL   UNL     1     -13.110   8.204  64.041  1.00  0.00    21.739 Cl 
BRANCH   9  15
HETATM   15  C   UNL     1      -9.296   7.942  67.529  1.00  0.00    -0.166 A  
HETATM   16  C   UNL     1      -8.142   7.309  67.012  1.00  0.00    -0.117 A  
HETATM   17  C   UNL     1      -7.310   6.514  67.810  1.00  0.00    -0.096 A  
HETATM   18  C   UNL     1      -7.642   6.299  69.143  1.00  0.00    -0.099 A  
HETATM   19  C   UNL     1      -8.792   6.869  69.681  1.00  0.00    -0.141 A  
HETATM   20  C   UNL     1      -9.575   7.720  68.891  1.00  0.00    -0.154 A  
BRANCH  18  21
HETATM   21  S   UNL     1      -6.602   5.285  70.161  1.00  0.00    -0.041 S  
HETATM   22  C   UNL     1      -5.257   6.377  70.569  1.00  0.00    -0.014 C  
HETATM   23  O   UNL     1      -7.331   4.991  71.379  1.00  0.00    -0.071 OA 
HETATM   24  O   UNL     1      -6.076   4.223  69.326  1.00  0.00    -0.025 OA 
ENDBRANCH  18  21
ENDBRANCH   9  15
ENDBRANCH   5   8
TORSDOF 3
ENDMDL
MODEL      159
REMARK 921   NORMALIZED FREE ENERGY PREDICTED BY IDOCK:   36.20 KCAL/MOL
REMARK 922        TOTAL FREE ENERGY PREDICTED BY IDOCK:   41.69 KCAL/MOL
REMARK 923 INTER-LIGAND FREE ENERGY PREDICTED BY IDOCK:   42.20 KCAL/MOL
REMARK 924 INTRA-LIGAND FREE ENERGY PREDICTED BY IDOCK:   -0.51 KCAL/MOL
REMARK 927      BINDING AFFINITY PREDICTED BY RF-SCORE:    0.00 PKD
ROOT
HETATM    1  C   UNL     1     -10.078  20.344  71.725  1.00  0.00     3.219 C  
HETATM    2  C   UNL     1      -9.952  18.929  71.246  1.00  0.00     3.449 A  
HETATM    3  N   UNL     1      -9.801  17.966  72.182  1.00  0.00     7.321 NA 
HETATM    4  C   UNL     1      -9.497  16.714  71.748  1.00  0.00     7.544 A  
HETATM    5  C   UNL     1      -9.257  16.373  70.421  1.00  0.00     1.960 A  
HETATM    6  C   UNL     1      -9.947  18.647  69.888  1.00  0.00     0.764 A  
HETATM    7  C   UNL     1      -9.590  17.364  69.483  1.00  0.00     0.317 A  
ENDROOT
BRANCH   5   8
HETATM    8  C   UNL     1      -8.629  15.103  69.987  1.00  0.00     0.394 A  
HETATM    9  C   UNL     1      -9.006  14.319  68.862  1.00  0.00    -0.025 A  
HETATM   10  C   UNL     1      -8.306  13.097  68.698  1.00  0.00     0.019 A  
HETATM   11  N   UNL     1      -7.676  14.681  70.877  1.00  0.00     1.600 NA 
HETATM   12  C   UNL     1      -7.334  12.682  69.599  1.00  0.00     0.658 A  
HETATM   13  C   UNL     1      -7.064  13.493  70.674  1.00  0.00     1.717 A  
HETATM   14 CL   UNL     1      -6.526  11.184  69.387  1.00  0.00    -0.087 Cl 
BRANCH   9  15
HETATM   15  C   UNL     1     -10.092  14.617  67.879  1.00  0.00    -0.225 A  
HETATM   16  C   UNL     1      -9.881  15.544  66.832  1.00  0.00    -0.245 A  
HETATM   17  C   UNL     1     -10.851  15.794  65.853  1.00  0.00    -0.272 A  
HETATM   18  C   UNL     1     -12.080  15.147  65.927  1.00  0.00     0.283 A  
HETATM   19  C   UNL     1     -12.345  14.260  66.966  1.00  0.00    -0.203 A  
HETATM   20  C   UNL     1     -11.340  13.965  67.896  1.00  0.00    -0.320 A  
BRANCH  18  21
HETATM   21  S   UNL     1     -13.320  15.463  64.700  1.00  0.00     2.297 S  
HETATM   22  C   UNL     1     -14.275  16.778  65.427  1.00  0.00     9.483 C  
HETATM   23  O   UNL     1     -12.653  15.987  63.524  1.00  0.00    -0.261 OA 
HETATM   24  O   UNL     1     -14.167  14.289  64.621  1.00  0.00     2.815 OA 
ENDBRANCH  18  21
ENDBRANCH   9  15
ENDBRANCH   5   8
TORSDOF 3
ENDMDL
MODEL      160
REMARK 921   NORMALIZED FREE ENERGY PREDICTED BY IDOCK:   37.88 KCAL/MOL
REMARK 922        TOTAL FREE ENERGY PREDICTED BY IDOCK:   43.66 KCAL/MOL
REMARK 923 INTER-LIGAND FREE ENERGY PREDICTED BY IDOCK:   43.97 KCAL/MOL
REMARK 924 INTRA-LIGAND FREE ENERGY PREDICTED BY IDOCK:   -0.31 KCAL/MOL
REMARK 927      BINDING AFFINITY PREDICTED BY RF-SCORE:    0.00 PKD
ROOT
HETATM    1  C   UNL     1      -7.165  15.894  63.529  1.00  0.00    22.637 C  
HETATM    2  C   UNL     1      -7.853  15.919  64.861  1.00  0.00     7.257 A  
HETATM    3  N   UNL     1      -8.995  16.635  64.960  1.00  0.00     1.449 NA 
HETATM    4  C   UNL     1      -9.516  16.815  66.202  1.00  0.00    -0.264 A  
HETATM    5  C   UNL     1      -8.918  16.382  67.381  1.00  0.00    -0.200 A  
HETATM    6  C   UNL     1      -7.297  15.262  65.948  1.00  0.00     3.732 A  
HETATM    7  C   UNL     1      -7.833  15.506  67.210  1.00  0.00    -0.236 A  
ENDROOT
BRANCH   5   8
HETATM    8  C   UNL     1      -9.312  16.841  68.733  1.00  0.00    -0.254 A  
HETATM    9  C   UNL     1      -9.896  16.043  69.756  1.00  0.00    -0.126 A  
HETATM   10  C   UNL     1     -10.262  16.730  70.941  1.00  0.00     1.945 A  
HETATM   11  N   UNL     1      -9.152  18.195  68.874  1.00  0.00    -0.199 NA 
HETATM   12  C   UNL     1     -10.087  18.100  71.079  1.00  0.00     3.431 A  
HETATM   13  C   UNL     1      -9.546  18.789  70.022  1.00  0.00     1.102 A  
HETATM   14 CL   UNL     1     -10.567  18.905  72.516  1.00  0.00     2.747 Cl 
BRANCH   9  15
HETATM   15  C   UNL     1     -10.215  14.584  69.689  1.00  0.00     0.099 A  
HETATM   16  C   UNL     1      -9.256  13.658  69.217  1.00  0.00     0.645 A  
HETATM   17  C   UNL     1      -9.495  12.279  69.208  1.00  0.00     0.757 A  
HETATM   18  C   UNL     1     -10.728  11.796  69.635  1.00  0.00     0.215 A  
HETATM   19  C   UNL     1     -11.716  12.676  70.067  1.00  0.00    -0.289 A  
HETATM   20  C   UNL     1     -11.436  14.046  70.139  1.00  0.00    -0.199 A  
BRANCH  18  21
HETATM   21  S   UNL     1     -11.048  10.052  69.617  1.00  0.00    -0.252 S  
HETATM   22  C   UNL     1     -12.788   9.962  69.978  1.00  0.00     0.439 C  
HETATM   23  O   UNL     1     -10.842   9.580  68.262  1.00  0.00    -0.213 OA 
HETATM   24  O   UNL     1     -10.331   9.464  70.732  1.00  0.00    -0.254 OA 
ENDBRANCH  18  21
ENDBRANCH   9  15
ENDBRANCH   5   8
TORSDOF 3
ENDMDL
MODEL      161
REMARK 921   NORMALIZED FREE ENERGY PREDICTED BY IDOCK:   38.52 KCAL/MOL
REMARK 922        TOTAL FREE ENERGY PREDICTED BY IDOCK:   44.41 KCAL/MOL
REMARK 923 INTER-LIGAND FREE ENERGY PREDICTED BY IDOCK:   45.02 KCAL/MOL
REMARK 924 INTRA-LIGAND FREE ENERGY PREDICTED BY IDOCK:   -0.61 KCAL/MOL
REMARK 927      BINDING AFFINITY PREDICTED BY RF-SCORE:    0.00 PKD
ROOT
HETATM    1  C   UNL     1      -5.222  11.725  72.959  1.00  0.00     0.676 C  
HETATM    2  C   UNL     1      -6.337  12.675  72.641  1.00  0.00     4.021 A  
HETATM    3  N   UNL     1      -7.240  12.924  73.615  1.00  0.00     6.538 NA 
HETATM    4  C   UNL     1      -8.350  13.630  73.274  1.00  0.00    12.105 A  
HETATM    5  C   UNL     1      -8.657  14.047  71.983  1.00  0.00     9.221 A  
HETATM    6  C   UNL     1      -6.444  13.231  71.376  1.00  0.00     1.696 A  
HETATM    7  C   UNL     1      -7.615  13.911  71.051  1.00  0.00     3.425 A  
ENDROOT
BRANCH   5   8
HETATM    8  C   UNL     1      -9.990  14.533  71.558  1.00  0.00     3.549 A  
HETATM    9  C   UNL     1     -10.647  14.227  70.334  1.00  0.00     0.698 A  
HETATM   10  C   UNL     1     -11.886  14.881  70.117  1.00  0.00    -0.357 A  
HETATM   11  N   UNL     1     -10.507  15.435  72.451  1.00  0.00     1.419 NA 
HETATM   12  C   UNL     1     -12.408  15.786  71.033  1.00  0.00    -0.415 A  
HETATM   13  C   UNL     1     -11.682  16.041  72.170  1.00  0.00    -0.488 A  
HETATM   14 CL   UNL     1     -13.896  16.581  70.728  1.00  0.00     3.789 Cl 
BRANCH   9  15
HETATM   15  C   UNL     1     -10.144  13.343  69.237  1.00  0.00     0.373 A  
HETATM   16  C   UNL     1      -9.282  13.855  68.240  1.00  0.00    -0.207 A  
HETATM   17  C   UNL     1      -8.736  13.041  67.240  1.00  0.00    -0.209 A  
HETATM   18  C   UNL     1      -9.079  11.694  67.192  1.00  0.00    -0.171 A  
HETATM   19  C   UNL     1      -9.958  11.159  68.129  1.00  0.00    -0.189 A  
HETATM   20  C   UNL     1     -10.439  11.968  69.166  1.00  0.00    -0.005 A  
BRANCH  18  21
HETATM   21  S   UNL     1      -8.403  10.655  65.924  1.00  0.00    -0.161 S  
HETATM   22  C   UNL     1      -9.455  10.992  64.529  1.00  0.00    -0.233 C  
HETATM   23  O   UNL     1      -7.073  11.144  65.616  1.00  0.00     0.074 OA 
HETATM   24  O   UNL     1      -8.622   9.278  66.324  1.00  0.00    -0.123 OA 
ENDBRANCH  18  21
ENDBRANCH   9  15
ENDBRANCH   5   8
TORSDOF 3
ENDMDL
MODEL      162
REMARK 921   NORMALIZED FREE ENERGY PREDICTED BY IDOCK:   38.64 KCAL/MOL
REMARK 922        TOTAL FREE ENERGY PREDICTED BY IDOCK:   44.56 KCAL/MOL
REMARK 923 INTER-LIGAND FREE ENERGY PREDICTED BY IDOCK:   45.61 KCAL/MOL
REMARK 924 INTRA-LIGAND FREE ENERGY PREDICTED BY IDOCK:   -1.05 KCAL/MOL
REMARK 927      BINDING AFFINITY PREDICTED BY RF-SCORE:    0.00 PKD
ROOT
HETATM    1  C   UNL     1      -5.216  11.736  72.937  1.00  0.00     0.646 C  
HETATM    2  C   UNL     1      -6.304  12.659  72.479  1.00  0.00     3.913 A  
HETATM    3  N   UNL     1      -7.301  12.929  73.352  1.00  0.00     8.027 NA 
HETATM    4  C   UNL     1      -8.380  13.607  72.880  1.00  0.00    12.417 A  
HETATM    5  C   UNL     1      -8.564  13.975  71.551  1.00  0.00     7.513 A  
HETATM    6  C   UNL     1      -6.293  13.171  71.191  1.00  0.00     1.070 A  
HETATM    7  C   UNL     1      -7.434  13.823  70.730  1.00  0.00     2.574 A  
ENDROOT
BRANCH   5   8
HETATM    8  C   UNL     1      -9.854  14.428  70.981  1.00  0.00     2.993 A  
HETATM    9  C   UNL     1     -10.897  13.594  70.491  1.00  0.00     1.328 A  
HETATM   10  C   UNL     1     -12.006  14.265  69.915  1.00  0.00    -0.397 A  
HETATM   11  N   UNL     1      -9.904  15.793  70.866  1.00  0.00     1.054 NA 
HETATM   12  C   UNL     1     -12.053  15.649  69.813  1.00  0.00    -0.326 A  
HETATM   13  C   UNL     1     -10.981  16.366  70.285  1.00  0.00    -0.253 A  
HETATM   14 CL   UNL     1     -13.397  16.429  69.085  1.00  0.00     3.074 Cl 
BRANCH   9  15
HETATM   15  C   UNL     1     -10.919  12.099  70.465  1.00  0.00     1.656 A  
HETATM   16  C   UNL     1     -10.316  11.390  69.399  1.00  0.00     0.022 A  
HETATM   17  C   UNL     1     -10.256   9.991  69.378  1.00  0.00    -0.239 A  
HETATM   18  C   UNL     1     -10.841   9.265  70.411  1.00  0.00    -0.254 A  
HETATM   19  C   UNL     1     -11.481   9.923  71.457  1.00  0.00    -0.322 A  
HETATM   20  C   UNL     1     -11.470  11.323  71.502  1.00  0.00     1.770 A  
BRANCH  18  21
HETATM   21  S   UNL     1     -10.781   7.493  70.390  1.00  0.00    -0.242 S  
HETATM   22  C   UNL     1      -9.047   7.155  70.170  1.00  0.00    -0.152 C  
HETATM   23  O   UNL     1     -11.170   7.024  71.705  1.00  0.00    -0.236 OA 
HETATM   24  O   UNL     1     -11.476   7.046  69.199  1.00  0.00    -0.025 OA 
ENDBRANCH  18  21
ENDBRANCH   9  15
ENDBRANCH   5   8
TORSDOF 3
ENDMDL
MODEL      163
REMARK 921   NORMALIZED FREE ENERGY PREDICTED BY IDOCK:   45.95 KCAL/MOL
REMARK 922        TOTAL FREE ENERGY PREDICTED BY IDOCK:   53.15 KCAL/MOL
REMARK 923 INTER-LIGAND FREE ENERGY PREDICTED BY IDOCK:   52.35 KCAL/MOL
REMARK 924 INTRA-LIGAND FREE ENERGY PREDICTED BY IDOCK:    0.79 KCAL/MOL
REMARK 927      BINDING AFFINITY PREDICTED BY RF-SCORE:    0.00 PKD
ROOT
HETATM    1  C   UNL     1      -6.231  12.594  68.835  1.00  0.00    -0.081 C  
HETATM    2  C   UNL     1      -7.567  12.074  68.397  1.00  0.00    -0.128 A  
HETATM    3  N   UNL     1      -8.137  11.107  69.150  1.00  0.00    -0.081 NA 
HETATM    4  C   UNL     1      -9.249  10.502  68.656  1.00  0.00    -0.172 A  
HETATM    5  C   UNL     1      -9.796  10.754  67.402  1.00  0.00    -0.204 A  
HETATM    6  C   UNL     1      -8.157  12.549  67.236  1.00  0.00    -0.179 A  
HETATM    7  C   UNL     1      -9.271  11.876  66.739  1.00  0.00    -0.194 A  
ENDROOT
BRANCH   5   8
HETATM    8  C   UNL     1     -10.803   9.891  66.743  1.00  0.00    -0.015 A  
HETATM    9  C   UNL     1     -11.366   8.698  67.272  1.00  0.00     1.189 A  
HETATM   10  C   UNL     1     -12.253   7.999  66.414  1.00  0.00     8.489 A  
HETATM   11  N   UNL     1     -11.072  10.315  65.467  1.00  0.00     0.570 NA 
HETATM   12  C   UNL     1     -12.528   8.441  65.127  1.00  0.00    17.707 A  
HETATM   13  C   UNL     1     -11.908   9.588  64.694  1.00  0.00     9.441 A  
HETATM   14 CL   UNL     1     -13.584   7.557  64.104  1.00  0.00    17.612 Cl 
BRANCH   9  15
HETATM   15  C   UNL     1     -11.077   8.077  68.602  1.00  0.00     0.300 A  
HETATM   16  C   UNL     1     -11.100   8.859  69.780  1.00  0.00    -0.099 A  
HETATM   17  C   UNL     1     -10.904   8.298  71.048  1.00  0.00    -0.269 A  
HETATM   18  C   UNL     1     -10.637   6.937  71.160  1.00  0.00    -0.222 A  
HETATM   19  C   UNL     1     -10.564   6.140  70.022  1.00  0.00    -0.323 A  
HETATM   20  C   UNL     1     -10.834   6.701  68.767  1.00  0.00    -0.321 A  
BRANCH  18  21
HETATM   21  S   UNL     1     -10.377   6.217  72.759  1.00  0.00    -0.206 S  
HETATM   22  C   UNL     1     -10.147   7.639  73.805  1.00  0.00    -0.088 C  
HETATM   23  O   UNL     1     -11.609   5.561  73.153  1.00  0.00    -0.239 OA 
HETATM   24  O   UNL     1      -9.123   5.491  72.713  1.00  0.00    -0.134 OA 
ENDBRANCH  18  21
ENDBRANCH   9  15
ENDBRANCH   5   8
TORSDOF 3
ENDMDL
MODEL      164
REMARK 921   NORMALIZED FREE ENERGY PREDICTED BY IDOCK:   55.62 KCAL/MOL
REMARK 922        TOTAL FREE ENERGY PREDICTED BY IDOCK:   64.51 KCAL/MOL
REMARK 923 INTER-LIGAND FREE ENERGY PREDICTED BY IDOCK:   64.94 KCAL/MOL
REMARK 924 INTRA-LIGAND FREE ENERGY PREDICTED BY IDOCK:   -0.43 KCAL/MOL
REMARK 927      BINDING AFFINITY PREDICTED BY RF-SCORE:    0.00 PKD
ROOT
HETATM    1  C   UNL     1     -10.033  20.389  71.841  1.00  0.00     3.088 C  
HETATM    2  C   UNL     1      -9.742  18.923  71.738  1.00  0.00     5.183 A  
HETATM    3  N   UNL     1      -9.511  18.250  72.888  1.00  0.00     9.222 NA 
HETATM    4  C   UNL     1      -9.063  16.972  72.786  1.00  0.00    15.073 A  
HETATM    5  C   UNL     1      -8.753  16.334  71.589  1.00  0.00     7.805 A  
HETATM    6  C   UNL     1      -9.673  18.308  70.497  1.00  0.00     2.611 A  
HETATM    7  C   UNL     1      -9.168  17.012  70.430  1.00  0.00     2.823 A  
ENDROOT
BRANCH   5   8
HETATM    8  C   UNL     1      -7.981  15.074  71.490  1.00  0.00     3.853 A  
HETATM    9  C   UNL     1      -8.194  14.027  70.551  1.00  0.00     2.859 A  
HETATM   10  C   UNL     1      -7.376  12.880  70.709  1.00  0.00     3.798 A  
HETATM   11  N   UNL     1      -7.067  14.961  72.506  1.00  0.00     2.704 NA 
HETATM   12  C   UNL     1      -6.446  12.778  71.735  1.00  0.00     3.178 A  
HETATM   13  C   UNL     1      -6.337  13.829  72.612  1.00  0.00     1.776 A  
HETATM   14 CL   UNL     1      -5.491  11.364  71.914  1.00  0.00     0.323 Cl 
BRANCH   9  15
HETATM   15  C   UNL     1      -9.222  13.986  69.466  1.00  0.00     0.757 A  
HETATM   16  C   UNL     1      -9.018  14.688  68.255  1.00  0.00    -0.184 A  
HETATM   17  C   UNL     1      -9.925  14.613  67.191  1.00  0.00    -0.240 A  
HETATM   18  C   UNL     1     -11.087  13.862  67.333  1.00  0.00    -0.298 A  
HETATM   19  C   UNL     1     -11.347  13.190  68.524  1.00  0.00    -0.321 A  
HETATM   20  C   UNL     1     -10.396  13.214  69.553  1.00  0.00     0.594 A  
BRANCH  18  21
HETATM   21  S   UNL     1     -12.248  13.769  65.997  1.00  0.00    -0.461 S  
HETATM   22  C   UNL     1     -11.870  12.200  65.248  1.00  0.00    -0.295 C  
HETATM   23  O   UNL     1     -13.576  13.686  66.573  1.00  0.00     1.465 OA 
HETATM   24  O   UNL     1     -11.907  14.810  65.047  1.00  0.00    -0.369 OA 
ENDBRANCH  18  21
ENDBRANCH   9  15
ENDBRANCH   5   8
TORSDOF 3
ENDMDL
MODEL      165
REMARK 921   NORMALIZED FREE ENERGY PREDICTED BY IDOCK:   60.91 KCAL/MOL
REMARK 922        TOTAL FREE ENERGY PREDICTED BY IDOCK:   70.73 KCAL/MOL
REMARK 923 INTER-LIGAND FREE ENERGY PREDICTED BY IDOCK:   69.64 KCAL/MOL
REMARK 924 INTRA-LIGAND FREE ENERGY PREDICTED BY IDOCK:    1.09 KCAL/MOL
REMARK 927      BINDING AFFINITY PREDICTED BY RF-SCORE:    0.00 PKD
ROOT
HETATM    1  C   UNL     1     -10.566  18.274  71.985  1.00  0.00     3.594 C  
HETATM    2  C   UNL     1      -9.930  18.034  70.649  1.00  0.00     2.685 A  
HETATM    3  N   UNL     1     -10.586  18.483  69.556  1.00  0.00     0.613 NA 
HETATM    4  C   UNL     1     -10.112  18.103  68.340  1.00  0.00    -0.388 A  
HETATM    5  C   UNL     1      -9.050  17.227  68.144  1.00  0.00    -0.257 A  
HETATM    6  C   UNL     1      -8.735  17.336  70.557  1.00  0.00     4.119 A  
HETATM    7  C   UNL     1      -8.305  16.928  69.297  1.00  0.00     0.070 A  
ENDROOT
BRANCH   5   8
HETATM    8  C   UNL     1      -8.734  16.575  66.852  1.00  0.00    -0.205 A  
HETATM    9  C   UNL     1      -8.403  15.205  66.659  1.00  0.00    -0.162 A  
HETATM   10  C   UNL     1      -8.058  14.834  65.335  1.00  0.00     4.696 A  
HETATM   11  N   UNL     1      -8.683  17.483  65.827  1.00  0.00    -0.455 NA 
HETATM   12  C   UNL     1      -8.020  15.759  64.300  1.00  0.00    12.818 A  
HETATM   13  C   UNL     1      -8.324  17.066  64.593  1.00  0.00     6.311 A  
HETATM   14 CL   UNL     1      -7.571  15.282  62.715  1.00  0.00    24.921 Cl 
BRANCH   9  15
HETATM   15  C   UNL     1      -8.322  14.141  67.707  1.00  0.00    -0.175 A  
HETATM   16  C   UNL     1      -8.484  12.779  67.362  1.00  0.00    -0.191 A  
HETATM   17  C   UNL     1      -8.344  11.753  68.304  1.00  0.00    -0.159 A  
HETATM   18  C   UNL     1      -8.079  12.073  69.632  1.00  0.00     1.287 A  
HETATM   19  C   UNL     1      -7.955  13.404  70.021  1.00  0.00     2.085 A  
HETATM   20  C   UNL     1      -8.025  14.416  69.055  1.00  0.00    -0.057 A  
BRANCH  18  21
HETATM   21  S   UNL     1      -7.911  10.783  70.836  1.00  0.00     3.701 S  
HETATM   22  C   UNL     1      -7.739   9.322  69.834  1.00  0.00    -0.101 C  
HETATM   23  O   UNL     1      -6.662  10.998  71.540  1.00  0.00     1.162 OA 
HETATM   24  O   UNL     1      -9.169  10.686  71.552  1.00  0.00     3.730 OA 
ENDBRANCH  18  21
ENDBRANCH   9  15
ENDBRANCH   5   8
TORSDOF 3
ENDMDL
