MODEL        1
REMARK 921   NORMALIZED FREE ENERGY PREDICTED BY IDOCK:   -8.11 KCAL/MOL
REMARK 922        TOTAL FREE ENERGY PREDICTED BY IDOCK:  -10.66 KCAL/MOL
REMARK 923 INTER-LIGAND FREE ENERGY PREDICTED BY IDOCK:  -10.00 KCAL/MOL
REMARK 924 INTRA-LIGAND FREE ENERGY PREDICTED BY IDOCK:   -0.65 KCAL/MOL
REMARK 927      BINDING AFFINITY PREDICTED BY RF-SCORE:    0.00 PKD
ROOT
HETATM    1  C   UNL     1     -10.030  10.718  64.447  1.00  0.00    -0.400 C  
HETATM    2  C   UNL     1     -10.375  10.385  65.866  1.00  0.00    -0.261 A  
HETATM    3  C   UNL     1      -9.851   9.139  66.284  1.00  0.00    -0.359 A  
HETATM    4  C   UNL     1      -9.973   8.682  67.589  1.00  0.00    -0.248 A  
HETATM    5  C   UNL     1     -10.606   9.490  68.518  1.00  0.00    -0.247 A  
HETATM    6  C   UNL     1      -9.418   7.406  67.953  1.00  0.00    -0.140 C  
HETATM    7  N   UNL     1      -8.962   6.377  68.206  1.00  0.00    -0.117 NA 
HETATM    8  C   UNL     1     -11.161  10.733  68.135  1.00  0.00    -0.365 A  
HETATM    9  C   UNL     1     -11.101  11.183  66.779  1.00  0.00    -0.214 A  
HETATM   10  C   UNL     1     -11.793  11.557  69.233  1.00  0.00    -0.414 C  
ENDROOT
BRANCH   9  11
HETATM   11  O   UNL     1     -11.914  12.282  66.531  1.00  0.00    -0.596 OA 
BRANCH  11  12
HETATM   12  C   UNL     1     -11.508  13.606  66.357  1.00  0.00    -0.338 A  
HETATM   13  C   UNL     1     -11.654  14.171  65.104  1.00  0.00    -0.344 A  
HETATM   14  C   UNL     1     -11.261  15.496  64.993  1.00  0.00    -0.358 A  
HETATM   15 BR   UNL     1     -12.328  13.214  63.617  1.00  0.00    -0.412 Br 
HETATM   16  N   UNL     1     -11.422  16.252  63.831  1.00  0.00    -1.539 NA 
HETATM   17  N   UNL     1     -10.762  16.195  66.024  1.00  0.00    -0.282 NA 
HETATM   18  H1  UNL     1     -11.133  17.226  63.750  1.00  0.00     0.000 HD 
HETATM   19  H2  UNL     1     -12.408  16.206  63.574  1.00  0.00     0.000 HD 
HETATM   20  C   UNL     1     -10.597  15.570  67.190  1.00  0.00    -0.300 A  
HETATM   21  N   UNL     1     -10.912  14.275  67.355  1.00  0.00    -0.289 NA 
BRANCH  20  22
HETATM   22  N   UNL     1     -10.141  16.242  68.331  1.00  0.00    -0.230 NA 
HETATM   23  H   UNL     1     -10.579  15.950  69.205  1.00  0.00     0.000 HD 
BRANCH  22  24
HETATM   24  C   UNL     1      -9.177  17.256  68.466  1.00  0.00    -0.273 A  
HETATM   25  C   UNL     1      -9.479  18.617  68.351  1.00  0.00    -0.377 A  
HETATM   26  C   UNL     1      -8.496  19.599  68.519  1.00  0.00    -0.334 A  
HETATM   27  C   UNL     1      -7.178  19.241  68.797  1.00  0.00    -0.380 A  
HETATM   28  C   UNL     1      -6.182  20.254  69.005  1.00  0.00    -0.331 C  
HETATM   29  C   UNL     1      -6.849  17.887  68.882  1.00  0.00    -0.250 A  
HETATM   30  C   UNL     1      -7.837  16.906  68.705  1.00  0.00    -0.250 A  
HETATM   31  N   UNL     1      -5.383  21.078  69.180  1.00  0.00    -0.356 NA 
ENDBRANCH  22  24
ENDBRANCH  20  22
ENDBRANCH  11  12
ENDBRANCH   9  11
TORSDOF 4
ENDMDL
MODEL        2
REMARK 921   NORMALIZED FREE ENERGY PREDICTED BY IDOCK:   -7.88 KCAL/MOL
REMARK 922        TOTAL FREE ENERGY PREDICTED BY IDOCK:  -10.38 KCAL/MOL
REMARK 923 INTER-LIGAND FREE ENERGY PREDICTED BY IDOCK:  -10.12 KCAL/MOL
REMARK 924 INTRA-LIGAND FREE ENERGY PREDICTED BY IDOCK:   -0.26 KCAL/MOL
REMARK 927      BINDING AFFINITY PREDICTED BY RF-SCORE:    0.00 PKD
ROOT
HETATM    1  C   UNL     1     -12.257  14.688  69.255  1.00  0.00    -0.247 C  
HETATM    2  C   UNL     1     -11.723  13.289  69.250  1.00  0.00    -0.380 A  
HETATM    3  C   UNL     1     -12.284  12.480  70.267  1.00  0.00    -0.345 A  
HETATM    4  C   UNL     1     -11.998  11.127  70.383  1.00  0.00    -0.469 A  
HETATM    5  C   UNL     1     -11.155  10.545  69.450  1.00  0.00    -0.310 A  
HETATM    6  C   UNL     1     -12.599  10.358  71.439  1.00  0.00    -0.434 C  
HETATM    7  N   UNL     1     -13.100   9.775  72.300  1.00  0.00    -0.402 NA 
HETATM    8  C   UNL     1     -10.559  11.323  68.432  1.00  0.00    -0.226 A  
HETATM    9  C   UNL     1     -10.793  12.731  68.344  1.00  0.00    -0.249 A  
HETATM   10  C   UNL     1      -9.690  10.585  67.440  1.00  0.00    -0.190 C  
ENDROOT
BRANCH   9  11
HETATM   11  O   UNL     1      -9.934  13.374  67.461  1.00  0.00    -0.224 OA 
BRANCH  11  12
HETATM   12  C   UNL     1     -10.275  14.330  66.503  1.00  0.00    -0.276 A  
HETATM   13  C   UNL     1     -11.159  13.964  65.505  1.00  0.00    -0.304 A  
HETATM   14  C   UNL     1     -11.485  14.959  64.596  1.00  0.00    -0.379 A  
HETATM   15 BR   UNL     1     -11.878  12.220  65.358  1.00  0.00    -0.362 Br 
HETATM   16  N   UNL     1     -12.429  14.796  63.581  1.00  0.00    -1.051 NA 
HETATM   17  N   UNL     1     -10.977  16.199  64.662  1.00  0.00    -0.661 NA 
HETATM   18  H1  UNL     1     -12.669  15.527  62.913  1.00  0.00     0.000 HD 
HETATM   19  H2  UNL     1     -13.298  14.492  64.022  1.00  0.00     0.000 HD 
HETATM   20  C   UNL     1     -10.086  16.466  65.619  1.00  0.00    -0.286 A  
HETATM   21  N   UNL     1      -9.690  15.537  66.503  1.00  0.00    -0.254 NA 
BRANCH  20  22
HETATM   22  N   UNL     1      -9.556  17.750  65.796  1.00  0.00    -0.499 NA 
HETATM   23  H   UNL     1      -9.778  18.412  65.053  1.00  0.00     0.000 HD 
BRANCH  22  24
HETATM   24  C   UNL     1      -8.766  18.273  66.834  1.00  0.00    -0.267 A  
HETATM   25  C   UNL     1      -7.367  18.257  66.811  1.00  0.00    -0.237 A  
HETATM   26  C   UNL     1      -6.614  18.812  67.851  1.00  0.00    -0.223 A  
HETATM   27  C   UNL     1      -7.245  19.391  68.952  1.00  0.00    -0.397 A  
HETATM   28  C   UNL     1      -6.467  19.992  69.999  1.00  0.00    -0.312 C  
HETATM   29  C   UNL     1      -8.640  19.387  69.010  1.00  0.00    -0.248 A  
HETATM   30  C   UNL     1      -9.390  18.822  67.967  1.00  0.00    -0.340 A  
HETATM   31  N   UNL     1      -5.832  20.483  70.837  1.00  0.00    -0.552 NA 
ENDBRANCH  22  24
ENDBRANCH  20  22
ENDBRANCH  11  12
ENDBRANCH   9  11
TORSDOF 4
ENDMDL
MODEL        3
REMARK 921   NORMALIZED FREE ENERGY PREDICTED BY IDOCK:   -7.81 KCAL/MOL
REMARK 922        TOTAL FREE ENERGY PREDICTED BY IDOCK:  -10.29 KCAL/MOL
REMARK 923 INTER-LIGAND FREE ENERGY PREDICTED BY IDOCK:   -9.62 KCAL/MOL
REMARK 924 INTRA-LIGAND FREE ENERGY PREDICTED BY IDOCK:   -0.68 KCAL/MOL
REMARK 927      BINDING AFFINITY PREDICTED BY RF-SCORE:    0.00 PKD
ROOT
HETATM    1  C   UNL     1      -8.712  13.300  67.486  1.00  0.00    -0.202 C  
HETATM    2  C   UNL     1      -9.709  13.870  66.525  1.00  0.00    -0.303 A  
HETATM    3  C   UNL     1      -9.743  15.285  66.541  1.00  0.00    -0.287 A  
HETATM    4  C   UNL     1     -10.528  16.020  65.663  1.00  0.00    -0.416 A  
HETATM    5  C   UNL     1     -11.282  15.340  64.720  1.00  0.00    -0.405 A  
HETATM    6  C   UNL     1     -10.520  17.456  65.728  1.00  0.00    -0.215 C  
HETATM    7  N   UNL     1     -10.488  18.606  65.813  1.00  0.00    -0.615 NA 
HETATM    8  C   UNL     1     -11.290  13.926  64.685  1.00  0.00    -0.380 A  
HETATM    9  C   UNL     1     -10.538  13.159  65.629  1.00  0.00    -0.277 A  
HETATM   10  C   UNL     1     -12.111  13.283  63.592  1.00  0.00    -0.551 C  
ENDROOT
BRANCH   9  11
HETATM   11  O   UNL     1     -10.865  11.808  65.619  1.00  0.00    -0.278 OA 
BRANCH  11  12
HETATM   12  C   UNL     1     -10.800  10.920  66.694  1.00  0.00    -0.197 A  
HETATM   13  C   UNL     1      -9.893   9.879  66.624  1.00  0.00    -0.207 A  
HETATM   14  C   UNL     1      -9.850   9.044  67.730  1.00  0.00    -0.168 A  
HETATM   15 BR   UNL     1      -8.782   9.584  65.121  1.00  0.00    -0.219 Br 
HETATM   16  N   UNL     1      -8.935   8.001  67.871  1.00  0.00    -0.130 NA 
HETATM   17  N   UNL     1     -10.639   9.216  68.802  1.00  0.00    -0.208 NA 
HETATM   18  H1  UNL     1      -8.904   7.386  68.685  1.00  0.00     0.000 HD 
HETATM   19  H2  UNL     1      -8.002   8.399  67.757  1.00  0.00     0.000 HD 
HETATM   20  C   UNL     1     -11.530  10.208  68.778  1.00  0.00    -0.047 A  
HETATM   21  N   UNL     1     -11.658  11.026  67.720  1.00  0.00    -0.564 NA 
BRANCH  20  22
HETATM   22  N   UNL     1     -12.346  10.495  69.879  1.00  0.00    -0.513 NA 
HETATM   23  H   UNL     1     -12.917   9.715  70.205  1.00  0.00     0.000 HD 
BRANCH  22  24
HETATM   24  C   UNL     1     -12.506  11.686  70.608  1.00  0.00    -0.295 A  
HETATM   25  C   UNL     1     -11.934  12.902  70.218  1.00  0.00    -0.359 A  
HETATM   26  C   UNL     1     -12.138  14.074  70.955  1.00  0.00    -0.383 A  
HETATM   27  C   UNL     1     -12.915  14.056  72.113  1.00  0.00    -0.458 A  
HETATM   28  C   UNL     1     -13.152  15.269  72.844  1.00  0.00    -0.490 C  
HETATM   29  C   UNL     1     -13.468  12.846  72.537  1.00  0.00    -0.456 A  
HETATM   30  C   UNL     1     -13.253  11.672  71.798  1.00  0.00    -0.438 A  
HETATM   31  N   UNL     1     -13.346  16.254  73.426  1.00  0.00    -0.556 NA 
ENDBRANCH  22  24
ENDBRANCH  20  22
ENDBRANCH  11  12
ENDBRANCH   9  11
TORSDOF 4
ENDMDL
MODEL        4
REMARK 921   NORMALIZED FREE ENERGY PREDICTED BY IDOCK:   -7.80 KCAL/MOL
REMARK 922        TOTAL FREE ENERGY PREDICTED BY IDOCK:  -10.27 KCAL/MOL
REMARK 923 INTER-LIGAND FREE ENERGY PREDICTED BY IDOCK:   -9.55 KCAL/MOL
REMARK 924 INTRA-LIGAND FREE ENERGY PREDICTED BY IDOCK:   -0.72 KCAL/MOL
REMARK 927      BINDING AFFINITY PREDICTED BY RF-SCORE:    0.00 PKD
ROOT
HETATM    1  C   UNL     1      -8.084  10.634  69.262  1.00  0.00    -0.133 C  
HETATM    2  C   UNL     1      -8.856   9.673  68.412  1.00  0.00    -0.123 A  
HETATM    3  C   UNL     1      -8.618   9.846  67.027  1.00  0.00    -0.130 A  
HETATM    4  C   UNL     1      -9.158   9.001  66.068  1.00  0.00    -0.257 A  
HETATM    5  C   UNL     1      -9.934   7.932  66.488  1.00  0.00    -0.267 A  
HETATM    6  C   UNL     1      -8.880   9.230  64.676  1.00  0.00    -0.178 C  
HETATM    7  N   UNL     1      -8.636   9.447  63.570  1.00  0.00    -0.203 NA 
HETATM    8  C   UNL     1     -10.211   7.737  67.860  1.00  0.00    -0.259 A  
HETATM    9  C   UNL     1      -9.716   8.641  68.851  1.00  0.00    -0.170 A  
HETATM   10  C   UNL     1     -11.031   6.518  68.216  1.00  0.00    -0.362 C  
ENDROOT
BRANCH   9  11
HETATM   11  O   UNL     1     -10.294   8.453  70.101  1.00  0.00    -0.202 OA 
BRANCH  11  12
HETATM   12  C   UNL     1     -11.282   9.238  70.696  1.00  0.00    -0.276 A  
HETATM   13  C   UNL     1     -12.175   8.621  71.553  1.00  0.00    -0.318 A  
HETATM   14  C   UNL     1     -13.117   9.451  72.139  1.00  0.00    -0.442 A  
HETATM   15 BR   UNL     1     -12.141   6.762  71.907  1.00  0.00    -0.364 Br 
HETATM   16  N   UNL     1     -14.035   9.018  73.097  1.00  0.00    -1.215 NA 
HETATM   17  N   UNL     1     -13.179  10.769  71.893  1.00  0.00    -0.466 NA 
HETATM   18  H1  UNL     1     -14.729   9.629  73.527  1.00  0.00     0.000 HD 
HETATM   19  H2  UNL     1     -13.503   8.585  73.852  1.00  0.00     0.000 HD 
HETATM   20  C   UNL     1     -12.322  11.287  71.012  1.00  0.00    -0.366 A  
HETATM   21  N   UNL     1     -11.414  10.533  70.373  1.00  0.00    -0.323 NA 
BRANCH  20  22
HETATM   22  N   UNL     1     -12.278  12.662  70.745  1.00  0.00    -0.454 NA 
HETATM   23  H   UNL     1     -12.514  13.260  71.537  1.00  0.00     0.000 HD 
BRANCH  22  24
HETATM   24  C   UNL     1     -11.961  13.349  69.561  1.00  0.00    -0.319 A  
HETATM   25  C   UNL     1     -11.799  14.737  69.504  1.00  0.00    -0.366 A  
HETATM   26  C   UNL     1     -11.456  15.383  68.312  1.00  0.00    -0.362 A  
HETATM   27  C   UNL     1     -11.275  14.654  67.137  1.00  0.00    -0.349 A  
HETATM   28  C   UNL     1     -10.887  15.318  65.925  1.00  0.00    -0.342 C  
HETATM   29  C   UNL     1     -11.465  13.271  67.165  1.00  0.00    -0.380 A  
HETATM   30  C   UNL     1     -11.817  12.629  68.363  1.00  0.00    -0.347 A  
HETATM   31  N   UNL     1     -10.565  15.860  64.951  1.00  0.00    -0.580 NA 
ENDBRANCH  22  24
ENDBRANCH  20  22
ENDBRANCH  11  12
ENDBRANCH   9  11
TORSDOF 4
ENDMDL
MODEL        5
REMARK 921   NORMALIZED FREE ENERGY PREDICTED BY IDOCK:   -7.73 KCAL/MOL
REMARK 922        TOTAL FREE ENERGY PREDICTED BY IDOCK:  -10.20 KCAL/MOL
REMARK 923 INTER-LIGAND FREE ENERGY PREDICTED BY IDOCK:   -9.42 KCAL/MOL
REMARK 924 INTRA-LIGAND FREE ENERGY PREDICTED BY IDOCK:   -0.77 KCAL/MOL
REMARK 927      BINDING AFFINITY PREDICTED BY RF-SCORE:    0.00 PKD
ROOT
HETATM    1  C   UNL     1     -12.597  13.190  64.887  1.00  0.00    -0.468 C  
HETATM    2  C   UNL     1     -11.605  12.174  65.362  1.00  0.00    -0.383 A  
HETATM    3  C   UNL     1     -10.936  11.517  64.301  1.00  0.00    -0.406 A  
HETATM    4  C   UNL     1      -9.911  10.607  64.519  1.00  0.00    -0.410 A  
HETATM    5  C   UNL     1      -9.512  10.356  65.822  1.00  0.00    -0.247 A  
HETATM    6  C   UNL     1      -9.271   9.971  63.399  1.00  0.00    -0.281 C  
HETATM    7  N   UNL     1      -8.783   9.481  62.475  1.00  0.00    -0.210 NA 
HETATM    8  C   UNL     1     -10.168  10.977  66.909  1.00  0.00    -0.263 A  
HETATM    9  C   UNL     1     -11.270  11.864  66.700  1.00  0.00    -0.328 A  
HETATM   10  C   UNL     1      -9.629  10.670  68.287  1.00  0.00    -0.167 C  
ENDROOT
BRANCH   9  11
HETATM   11  O   UNL     1     -11.954  12.172  67.869  1.00  0.00    -0.489 OA 
BRANCH  11  12
HETATM   12  C   UNL     1     -11.896  13.367  68.587  1.00  0.00    -0.362 A  
HETATM   13  C   UNL     1     -12.100  13.316  69.954  1.00  0.00    -0.308 A  
HETATM   14  C   UNL     1     -12.004  14.527  70.622  1.00  0.00    -0.319 A  
HETATM   15 BR   UNL     1     -12.502  11.710  70.872  1.00  0.00    -0.373 Br 
HETATM   16  N   UNL     1     -12.090  14.649  72.009  1.00  0.00    -0.310 NA 
HETATM   17  N   UNL     1     -11.741  15.684  69.996  1.00  0.00    -0.332 NA 
HETATM   18  H1  UNL     1     -12.020  15.539  72.501  1.00  0.00     0.000 HD 
HETATM   19  H2  UNL     1     -11.390  14.025  72.412  1.00  0.00     0.000 HD 
HETATM   20  C   UNL     1     -11.611  15.668  68.668  1.00  0.00    -0.382 A  
HETATM   21  N   UNL     1     -11.738  14.539  67.954  1.00  0.00    -0.345 NA 
BRANCH  20  22
HETATM   22  N   UNL     1     -11.274  16.819  67.946  1.00  0.00    -0.176 NA 
HETATM   23  H   UNL     1     -11.940  17.080  67.219  1.00  0.00     0.000 HD 
BRANCH  22  24
HETATM   24  C   UNL     1     -10.164  17.673  68.061  1.00  0.00    -0.362 A  
HETATM   25  C   UNL     1      -8.909  17.240  68.503  1.00  0.00    -0.269 A  
HETATM   26  C   UNL     1      -7.820  18.114  68.578  1.00  0.00    -0.308 A  
HETATM   27  C   UNL     1      -7.961  19.455  68.221  1.00  0.00    -0.366 A  
HETATM   28  C   UNL     1      -6.830  20.338  68.265  1.00  0.00    -0.285 C  
HETATM   29  C   UNL     1      -9.213  19.915  67.809  1.00  0.00    -0.436 A  
HETATM   30  C   UNL     1     -10.305  19.035  67.743  1.00  0.00    -0.498 A  
HETATM   31  N   UNL     1      -5.911  21.046  68.295  1.00  0.00    -0.338 NA 
ENDBRANCH  22  24
ENDBRANCH  20  22
ENDBRANCH  11  12
ENDBRANCH   9  11
TORSDOF 4
ENDMDL
MODEL        6
REMARK 921   NORMALIZED FREE ENERGY PREDICTED BY IDOCK:   -7.71 KCAL/MOL
REMARK 922        TOTAL FREE ENERGY PREDICTED BY IDOCK:  -10.16 KCAL/MOL
REMARK 923 INTER-LIGAND FREE ENERGY PREDICTED BY IDOCK:   -9.42 KCAL/MOL
REMARK 924 INTRA-LIGAND FREE ENERGY PREDICTED BY IDOCK:   -0.74 KCAL/MOL
REMARK 927      BINDING AFFINITY PREDICTED BY RF-SCORE:    0.00 PKD
ROOT
HETATM    1  C   UNL     1     -12.838  13.798  65.983  1.00  0.00    -0.294 C  
HETATM    2  C   UNL     1     -11.563  13.048  66.213  1.00  0.00    -0.408 A  
HETATM    3  C   UNL     1     -11.192  12.240  65.112  1.00  0.00    -0.369 A  
HETATM    4  C   UNL     1      -9.997  11.533  65.078  1.00  0.00    -0.305 A  
HETATM    5  C   UNL     1      -9.128  11.649  66.150  1.00  0.00    -0.209 A  
HETATM    6  C   UNL     1      -9.676  10.729  63.930  1.00  0.00    -0.313 C  
HETATM    7  N   UNL     1      -9.455  10.093  62.993  1.00  0.00    -0.295 NA 
HETATM    8  C   UNL     1      -9.472  12.430  67.277  1.00  0.00    -0.191 A  
HETATM    9  C   UNL     1     -10.729  13.107  67.352  1.00  0.00    -0.253 A  
HETATM   10  C   UNL     1      -8.436  12.525  68.374  1.00  0.00    -0.125 C  
ENDROOT
BRANCH   9  11
HETATM   11  O   UNL     1     -11.009  13.602  68.620  1.00  0.00    -0.250 OA 
BRANCH  11  12
HETATM   12  C   UNL     1     -11.715  12.958  69.637  1.00  0.00    -0.299 A  
HETATM   13  C   UNL     1     -12.299  13.738  70.618  1.00  0.00    -0.375 A  
HETATM   14  C   UNL     1     -13.011  13.049  71.588  1.00  0.00    -0.321 A  
HETATM   15 BR   UNL     1     -12.136  15.623  70.664  1.00  0.00    -0.459 Br 
HETATM   16  N   UNL     1     -13.740  13.677  72.598  1.00  0.00    -0.730 NA 
HETATM   17  N   UNL     1     -13.128  11.712  71.593  1.00  0.00    -0.424 NA 
HETATM   18  H1  UNL     1     -14.264  13.171  73.312  1.00  0.00     0.000 HD 
HETATM   19  H2  UNL     1     -14.389  14.323  72.148  1.00  0.00     0.000 HD 
HETATM   20  C   UNL     1     -12.491  11.020  70.647  1.00  0.00    -0.373 A  
HETATM   21  N   UNL     1     -11.746  11.619  69.705  1.00  0.00    -0.331 NA 
BRANCH  20  22
HETATM   22  N   UNL     1     -12.612   9.628  70.544  1.00  0.00    -0.503 NA 
HETATM   23  H   UNL     1     -13.201   9.305  69.777  1.00  0.00     0.000 HD 
BRANCH  22  24
HETATM   24  C   UNL     1     -12.051   8.606  71.328  1.00  0.00    -0.290 A  
HETATM   25  C   UNL     1     -10.976   8.813  72.198  1.00  0.00    -0.404 A  
HETATM   26  C   UNL     1     -10.462   7.775  72.984  1.00  0.00    -0.432 A  
HETATM   27  C   UNL     1     -11.008   6.494  72.910  1.00  0.00    -0.282 A  
HETATM   28  C   UNL     1     -10.500   5.442  73.746  1.00  0.00    -0.271 C  
HETATM   29  C   UNL     1     -12.060   6.258  72.023  1.00  0.00    -0.321 A  
HETATM   30  C   UNL     1     -12.566   7.301  71.232  1.00  0.00    -0.402 A  
HETATM   31  N   UNL     1     -10.091   4.599  74.430  1.00  0.00    -0.194 NA 
ENDBRANCH  22  24
ENDBRANCH  20  22
ENDBRANCH  11  12
ENDBRANCH   9  11
TORSDOF 4
ENDMDL
MODEL        7
REMARK 921   NORMALIZED FREE ENERGY PREDICTED BY IDOCK:   -7.69 KCAL/MOL
REMARK 922        TOTAL FREE ENERGY PREDICTED BY IDOCK:  -10.14 KCAL/MOL
REMARK 923 INTER-LIGAND FREE ENERGY PREDICTED BY IDOCK:   -9.07 KCAL/MOL
REMARK 924 INTRA-LIGAND FREE ENERGY PREDICTED BY IDOCK:   -1.07 KCAL/MOL
REMARK 927      BINDING AFFINITY PREDICTED BY RF-SCORE:    0.00 PKD
ROOT
HETATM    1  C   UNL     1     -12.327  11.335  69.588  1.00  0.00    -0.262 C  
HETATM    2  C   UNL     1     -12.108  12.770  69.222  1.00  0.00    -0.224 A  
HETATM    3  C   UNL     1     -12.117  13.634  70.343  1.00  0.00    -0.421 A  
HETATM    4  C   UNL     1     -11.840  14.990  70.240  1.00  0.00    -0.355 A  
HETATM    5  C   UNL     1     -11.514  15.507  68.996  1.00  0.00    -0.361 A  
HETATM    6  C   UNL     1     -11.866  15.816  71.417  1.00  0.00    -0.442 C  
HETATM    7  N   UNL     1     -11.899  16.446  72.383  1.00  0.00    -0.532 NA 
HETATM    8  C   UNL     1     -11.513  14.681  67.849  1.00  0.00    -0.350 A  
HETATM    9  C   UNL     1     -11.863  13.298  67.934  1.00  0.00    -0.349 A  
HETATM   10  C   UNL     1     -11.102  15.333  66.549  1.00  0.00    -0.271 C  
ENDROOT
BRANCH   9  11
HETATM   11  O   UNL     1     -12.065  12.708  66.692  1.00  0.00    -0.519 OA 
BRANCH  11  12
HETATM   12  C   UNL     1     -11.259  11.748  66.076  1.00  0.00    -0.296 A  
HETATM   13  C   UNL     1     -11.143  11.783  64.699  1.00  0.00    -0.303 A  
HETATM   14  C   UNL     1     -10.309  10.826  64.142  1.00  0.00    -0.311 A  
HETATM   15 BR   UNL     1     -12.065  13.036  63.622  1.00  0.00    -0.588 Br 
HETATM   16  N   UNL     1     -10.003  10.770  62.782  1.00  0.00    -0.701 NA 
HETATM   17  N   UNL     1      -9.658   9.912  64.877  1.00  0.00    -0.297 NA 
HETATM   18  H1  UNL     1      -9.390  10.066  62.372  1.00  0.00     0.000 HD 
HETATM   19  H2  UNL     1      -9.634  11.683  62.517  1.00  0.00     0.000 HD 
HETATM   20  C   UNL     1      -9.861   9.902  66.196  1.00  0.00    -0.260 A  
HETATM   21  N   UNL     1     -10.691  10.769  66.796  1.00  0.00    -0.251 NA 
BRANCH  20  22
HETATM   22  N   UNL     1      -9.172   9.023  67.042  1.00  0.00    -0.132 NA 
HETATM   23  H   UNL     1      -8.386   8.539  66.609  1.00  0.00     0.000 HD 
BRANCH  22  24
HETATM   24  C   UNL     1      -9.392   8.701  68.392  1.00  0.00    -0.138 A  
HETATM   25  C   UNL     1      -8.820   9.414  69.450  1.00  0.00    -0.159 A  
HETATM   26  C   UNL     1      -9.085   9.081  70.783  1.00  0.00    -0.297 A  
HETATM   27  C   UNL     1      -9.925   8.012  71.092  1.00  0.00    -0.206 A  
HETATM   28  C   UNL     1     -10.222   7.697  72.461  1.00  0.00    -0.243 C  
HETATM   29  C   UNL     1     -10.479   7.265  70.051  1.00  0.00    -0.234 A  
HETATM   30  C   UNL     1     -10.204   7.600  68.715  1.00  0.00    -0.210 A  
HETATM   31  N   UNL     1     -10.464   7.453  73.570  1.00  0.00    -0.364 NA 
ENDBRANCH  22  24
ENDBRANCH  20  22
ENDBRANCH  11  12
ENDBRANCH   9  11
TORSDOF 4
ENDMDL
MODEL        8
REMARK 921   NORMALIZED FREE ENERGY PREDICTED BY IDOCK:   -7.68 KCAL/MOL
REMARK 922        TOTAL FREE ENERGY PREDICTED BY IDOCK:  -10.13 KCAL/MOL
REMARK 923 INTER-LIGAND FREE ENERGY PREDICTED BY IDOCK:   -9.48 KCAL/MOL
REMARK 924 INTRA-LIGAND FREE ENERGY PREDICTED BY IDOCK:   -0.65 KCAL/MOL
REMARK 927      BINDING AFFINITY PREDICTED BY RF-SCORE:    0.00 PKD
ROOT
HETATM    1  C   UNL     1      -8.852  12.268  68.312  1.00  0.00    -0.178 C  
HETATM    2  C   UNL     1      -9.717  12.406  67.098  1.00  0.00    -0.207 A  
HETATM    3  C   UNL     1      -9.343  11.529  66.051  1.00  0.00    -0.239 A  
HETATM    4  C   UNL     1     -10.068  11.426  64.873  1.00  0.00    -0.323 A  
HETATM    5  C   UNL     1     -11.216  12.189  64.731  1.00  0.00    -0.373 A  
HETATM    6  C   UNL     1      -9.637  10.516  63.845  1.00  0.00    -0.309 C  
HETATM    7  N   UNL     1      -9.258   9.777  63.045  1.00  0.00    -0.256 NA 
HETATM    8  C   UNL     1     -11.612  13.091  65.745  1.00  0.00    -0.396 A  
HETATM    9  C   UNL     1     -10.835  13.255  66.934  1.00  0.00    -0.276 A  
HETATM   10  C   UNL     1     -12.901  13.845  65.512  1.00  0.00    -0.471 C  
ENDROOT
BRANCH   9  11
HETATM   11  O   UNL     1     -11.218  14.356  67.691  1.00  0.00    -0.289 OA 
BRANCH  11  12
HETATM   12  C   UNL     1     -11.605  14.360  69.032  1.00  0.00    -0.296 A  
HETATM   13  C   UNL     1     -11.402  15.515  69.764  1.00  0.00    -0.319 A  
HETATM   14  C   UNL     1     -11.830  15.475  71.082  1.00  0.00    -0.387 A  
HETATM   15 BR   UNL     1     -10.581  17.059  69.039  1.00  0.00    -0.271 Br 
HETATM   16  N   UNL     1     -11.788  16.575  71.938  1.00  0.00    -0.652 NA 
HETATM   17  N   UNL     1     -12.397  14.389  71.629  1.00  0.00    -0.352 NA 
HETATM   18  H1  UNL     1     -12.103  16.545  72.908  1.00  0.00     0.000 HD 
HETATM   19  H2  UNL     1     -12.293  17.335  71.480  1.00  0.00     0.000 HD 
HETATM   20  C   UNL     1     -12.510  13.291  70.881  1.00  0.00    -0.342 A  
HETATM   21  N   UNL     1     -12.075  13.245  69.612  1.00  0.00    -0.297 NA 
BRANCH  20  22
HETATM   22  N   UNL     1     -13.146  12.136  71.355  1.00  0.00    -0.282 NA 
HETATM   23  H   UNL     1     -14.085  12.285  71.725  1.00  0.00     0.000 HD 
BRANCH  22  24
HETATM   24  C   UNL     1     -12.698  10.805  71.402  1.00  0.00    -0.439 A  
HETATM   25  C   UNL     1     -13.371   9.797  72.101  1.00  0.00    -0.527 A  
HETATM   26  C   UNL     1     -12.909   8.476  72.101  1.00  0.00    -0.413 A  
HETATM   27  C   UNL     1     -11.750   8.131  71.408  1.00  0.00    -0.321 A  
HETATM   28  C   UNL     1     -11.302   6.767  71.381  1.00  0.00    -0.279 C  
HETATM   29  C   UNL     1     -11.045   9.129  70.731  1.00  0.00    -0.336 A  
HETATM   30  C   UNL     1     -11.509  10.453  70.740  1.00  0.00    -0.422 A  
HETATM   31  N   UNL     1     -10.949   5.662  71.357  1.00  0.00    -0.228 NA 
ENDBRANCH  22  24
ENDBRANCH  20  22
ENDBRANCH  11  12
ENDBRANCH   9  11
TORSDOF 4
ENDMDL
MODEL        9
REMARK 921   NORMALIZED FREE ENERGY PREDICTED BY IDOCK:   -7.64 KCAL/MOL
REMARK 922        TOTAL FREE ENERGY PREDICTED BY IDOCK:  -10.08 KCAL/MOL
REMARK 923 INTER-LIGAND FREE ENERGY PREDICTED BY IDOCK:   -9.18 KCAL/MOL
REMARK 924 INTRA-LIGAND FREE ENERGY PREDICTED BY IDOCK:   -0.91 KCAL/MOL
REMARK 927      BINDING AFFINITY PREDICTED BY RF-SCORE:    0.00 PKD
ROOT
HETATM    1  C   UNL     1      -7.909   9.780  68.392  1.00  0.00    -0.081 C  
HETATM    2  C   UNL     1      -9.026   9.607  69.374  1.00  0.00    -0.186 A  
HETATM    3  C   UNL     1      -8.607   9.014  70.589  1.00  0.00    -0.245 A  
HETATM    4  C   UNL     1      -9.463   8.850  71.669  1.00  0.00    -0.351 A  
HETATM    5  C   UNL     1     -10.765   9.309  71.560  1.00  0.00    -0.425 A  
HETATM    6  C   UNL     1      -8.977   8.239  72.878  1.00  0.00    -0.254 C  
HETATM    7  N   UNL     1      -8.551   7.743  73.828  1.00  0.00    -0.226 NA 
HETATM    8  C   UNL     1     -11.227   9.889  70.357  1.00  0.00    -0.379 A  
HETATM    9  C   UNL     1     -10.374  10.002  69.215  1.00  0.00    -0.219 A  
HETATM   10  C   UNL     1     -12.650  10.397  70.356  1.00  0.00    -0.329 C  
ENDROOT
BRANCH   9  11
HETATM   11  O   UNL     1     -11.056  10.347  68.054  1.00  0.00    -0.280 OA 
BRANCH  11  12
HETATM   12  C   UNL     1     -11.001  11.566  67.378  1.00  0.00    -0.265 A  
HETATM   13  C   UNL     1     -10.467  11.579  66.102  1.00  0.00    -0.251 A  
HETATM   14  C   UNL     1     -10.462  12.810  65.465  1.00  0.00    -0.287 A  
HETATM   15 BR   UNL     1      -9.767  10.032  65.267  1.00  0.00    -0.383 Br 
HETATM   16  N   UNL     1     -10.047  12.991  64.145  1.00  0.00    -0.628 NA 
HETATM   17  N   UNL     1     -10.933  13.928  66.039  1.00  0.00    -0.284 NA 
HETATM   18  H1  UNL     1     -10.043  13.897  63.677  1.00  0.00     0.000 HD 
HETATM   19  H2  UNL     1     -10.592  12.353  63.566  1.00  0.00     0.000 HD 
HETATM   20  C   UNL     1     -11.382  13.853  67.292  1.00  0.00    -0.323 A  
HETATM   21  N   UNL     1     -11.373  12.703  67.985  1.00  0.00    -0.269 NA 
BRANCH  20  22
HETATM   22  N   UNL     1     -11.948  14.957  67.941  1.00  0.00    -0.532 NA 
HETATM   23  H   UNL     1     -12.413  15.624  67.326  1.00  0.00     0.000 HD 
BRANCH  22  24
HETATM   24  C   UNL     1     -11.976  15.295  69.305  1.00  0.00    -0.299 A  
HETATM   25  C   UNL     1     -11.134  16.257  69.872  1.00  0.00    -0.347 A  
HETATM   26  C   UNL     1     -11.211  16.586  71.230  1.00  0.00     0.084 A  
HETATM   27  C   UNL     1     -12.131  15.949  72.062  1.00  0.00    -0.591 A  
HETATM   28  C   UNL     1     -12.230  16.317  73.446  1.00  0.00    -0.516 C  
HETATM   29  C   UNL     1     -12.958  14.961  71.523  1.00  0.00    -0.419 A  
HETATM   30  C   UNL     1     -12.871  14.630  70.162  1.00  0.00    -0.180 A  
HETATM   31  N   UNL     1     -12.312  16.625  74.562  1.00  0.00    -0.711 NA 
ENDBRANCH  22  24
ENDBRANCH  20  22
ENDBRANCH  11  12
ENDBRANCH   9  11
TORSDOF 4
ENDMDL
MODEL       10
REMARK 921   NORMALIZED FREE ENERGY PREDICTED BY IDOCK:   -7.63 KCAL/MOL
REMARK 922        TOTAL FREE ENERGY PREDICTED BY IDOCK:  -10.07 KCAL/MOL
REMARK 923 INTER-LIGAND FREE ENERGY PREDICTED BY IDOCK:   -9.56 KCAL/MOL
REMARK 924 INTRA-LIGAND FREE ENERGY PREDICTED BY IDOCK:   -0.51 KCAL/MOL
REMARK 927      BINDING AFFINITY PREDICTED BY RF-SCORE:    0.00 PKD
ROOT
HETATM    1  C   UNL     1     -10.980  11.269  63.884  1.00  0.00    -0.382 C  
HETATM    2  C   UNL     1     -10.382  12.298  64.792  1.00  0.00    -0.320 A  
HETATM    3  C   UNL     1     -10.795  13.616  64.480  1.00  0.00    -0.416 A  
HETATM    4  C   UNL     1     -10.434  14.711  65.253  1.00  0.00    -0.420 A  
HETATM    5  C   UNL     1      -9.665  14.498  66.386  1.00  0.00    -0.314 A  
HETATM    6  C   UNL     1     -10.886  16.025  64.884  1.00  0.00    -0.372 C  
HETATM    7  N   UNL     1     -11.266  17.064  64.555  1.00  0.00    -1.059 NA 
HETATM    8  C   UNL     1      -9.215  13.200  66.719  1.00  0.00    -0.232 A  
HETATM    9  C   UNL     1      -9.525  12.075  65.893  1.00  0.00    -0.197 A  
HETATM   10  C   UNL     1      -8.419  13.069  67.997  1.00  0.00    -0.181 C  
ENDROOT
BRANCH   9  11
HETATM   11  O   UNL     1      -8.794  10.939  66.219  1.00  0.00    -0.166 OA 
BRANCH  11  12
HETATM   12  C   UNL     1      -9.285   9.750  66.760  1.00  0.00    -0.148 A  
HETATM   13  C   UNL     1      -9.111   8.585  66.035  1.00  0.00    -0.194 A  
HETATM   14  C   UNL     1      -9.592   7.429  66.630  1.00  0.00    -0.190 A  
HETATM   15 BR   UNL     1      -8.285   8.549  64.333  1.00  0.00    -0.128 Br 
HETATM   16  N   UNL     1      -9.422   6.155  66.087  1.00  0.00    -0.307 NA 
HETATM   17  N   UNL     1     -10.200   7.426  67.827  1.00  0.00    -0.183 NA 
HETATM   18  H1  UNL     1      -9.776   5.305  66.524  1.00  0.00     0.000 HD 
HETATM   19  H2  UNL     1      -8.422   6.023  65.934  1.00  0.00     0.000 HD 
HETATM   20  C   UNL     1     -10.384   8.594  68.444  1.00  0.00    -0.201 A  
HETATM   21  N   UNL     1      -9.985   9.756  67.904  1.00  0.00    -0.156 NA 
BRANCH  20  22
HETATM   22  N   UNL     1     -10.952   8.672  69.722  1.00  0.00    -0.377 NA 
HETATM   23  H   UNL     1     -10.863   7.825  70.283  1.00  0.00     0.000 HD 
BRANCH  22  24
HETATM   24  C   UNL     1     -11.624   9.731  70.356  1.00  0.00    -0.258 A  
HETATM   25  C   UNL     1     -12.497   9.545  71.432  1.00  0.00    -0.450 A  
HETATM   26  C   UNL     1     -13.127  10.628  72.056  1.00  0.00    -0.501 A  
HETATM   27  C   UNL     1     -12.906  11.930  71.609  1.00  0.00    -0.417 A  
HETATM   28  C   UNL     1     -13.527  13.040  72.276  1.00  0.00    -0.547 C  
HETATM   29  C   UNL     1     -12.064  12.134  70.514  1.00  0.00    -0.383 A  
HETATM   30  C   UNL     1     -11.440  11.043  69.888  1.00  0.00    -0.400 A  
HETATM   31  N   UNL     1     -14.024  13.933  72.825  1.00  0.00    -0.658 NA 
ENDBRANCH  22  24
ENDBRANCH  20  22
ENDBRANCH  11  12
ENDBRANCH   9  11
TORSDOF 4
ENDMDL
MODEL       11
REMARK 921   NORMALIZED FREE ENERGY PREDICTED BY IDOCK:   -7.59 KCAL/MOL
REMARK 922        TOTAL FREE ENERGY PREDICTED BY IDOCK:  -10.02 KCAL/MOL
REMARK 923 INTER-LIGAND FREE ENERGY PREDICTED BY IDOCK:   -9.23 KCAL/MOL
REMARK 924 INTRA-LIGAND FREE ENERGY PREDICTED BY IDOCK:   -0.79 KCAL/MOL
REMARK 927      BINDING AFFINITY PREDICTED BY RF-SCORE:    0.00 PKD
ROOT
HETATM    1  C   UNL     1      -9.468   9.793  68.228  1.00  0.00    -0.148 C  
HETATM    2  C   UNL     1     -10.045  10.767  67.247  1.00  0.00    -0.233 A  
HETATM    3  C   UNL     1      -9.753  10.435  65.903  1.00  0.00    -0.272 A  
HETATM    4  C   UNL     1     -10.270  11.150  64.831  1.00  0.00    -0.361 A  
HETATM    5  C   UNL     1     -11.125  12.208  65.091  1.00  0.00    -0.369 A  
HETATM    6  C   UNL     1      -9.936  10.763  63.487  1.00  0.00    -0.344 C  
HETATM    7  N   UNL     1      -9.643  10.424  62.424  1.00  0.00    -0.218 NA 
HETATM    8  C   UNL     1     -11.425  12.584  66.420  1.00  0.00    -0.418 A  
HETATM    9  C   UNL     1     -10.845  11.897  67.532  1.00  0.00    -0.238 A  
HETATM   10  C   UNL     1     -12.401  13.724  66.595  1.00  0.00    -0.403 C  
ENDROOT
BRANCH   9  11
HETATM   11  O   UNL     1     -11.036  12.554  68.741  1.00  0.00    -0.245 OA 
BRANCH  11  12
HETATM   12  C   UNL     1     -11.829  12.134  69.810  1.00  0.00    -0.327 A  
HETATM   13  C   UNL     1     -12.373  13.100  70.636  1.00  0.00    -0.326 A  
HETATM   14  C   UNL     1     -13.175  12.630  71.664  1.00  0.00    -0.298 A  
HETATM   15 BR   UNL     1     -12.045  14.950  70.407  1.00  0.00    -0.419 Br 
HETATM   16  N   UNL     1     -13.877  13.464  72.535  1.00  0.00    -0.738 NA 
HETATM   17  N   UNL     1     -13.411  11.324  71.864  1.00  0.00    -0.394 NA 
HETATM   18  H1  UNL     1     -14.467  13.118  73.292  1.00  0.00     0.000 HD 
HETATM   19  H2  UNL     1     -14.451  14.084  71.964  1.00  0.00     0.000 HD 
HETATM   20  C   UNL     1     -12.808  10.444  71.063  1.00  0.00    -0.401 A  
HETATM   21  N   UNL     1     -11.982  10.828  70.077  1.00  0.00    -0.319 NA 
BRANCH  20  22
HETATM   22  N   UNL     1     -13.049   9.068  71.163  1.00  0.00    -0.522 NA 
HETATM   23  H   UNL     1     -14.016   8.789  70.996  1.00  0.00     0.000 HD 
BRANCH  22  24
HETATM   24  C   UNL     1     -12.172   8.010  71.457  1.00  0.00    -0.299 A  
HETATM   25  C   UNL     1     -11.546   7.860  72.699  1.00  0.00    -0.435 A  
HETATM   26  C   UNL     1     -10.700   6.777  72.964  1.00  0.00    -0.315 A  
HETATM   27  C   UNL     1     -10.450   5.818  71.984  1.00  0.00    -0.267 A  
HETATM   28  C   UNL     1      -9.611   4.689  72.274  1.00  0.00    -0.152 C  
HETATM   29  C   UNL     1     -11.038   5.967  70.727  1.00  0.00    -0.324 A  
HETATM   30  C   UNL     1     -11.880   7.059  70.464  1.00  0.00    -0.337 A  
HETATM   31  N   UNL     1      -8.938   3.775  72.517  1.00  0.00    -0.103 NA 
ENDBRANCH  22  24
ENDBRANCH  20  22
ENDBRANCH  11  12
ENDBRANCH   9  11
TORSDOF 4
ENDMDL
MODEL       12
REMARK 921   NORMALIZED FREE ENERGY PREDICTED BY IDOCK:   -7.59 KCAL/MOL
REMARK 922        TOTAL FREE ENERGY PREDICTED BY IDOCK:  -10.02 KCAL/MOL
REMARK 923 INTER-LIGAND FREE ENERGY PREDICTED BY IDOCK:   -9.17 KCAL/MOL
REMARK 924 INTRA-LIGAND FREE ENERGY PREDICTED BY IDOCK:   -0.85 KCAL/MOL
REMARK 927      BINDING AFFINITY PREDICTED BY RF-SCORE:    0.00 PKD
ROOT
HETATM    1  C   UNL     1     -10.591  18.932  67.672  1.00  0.00    -0.501 C  
HETATM    2  C   UNL     1      -9.215  18.414  67.959  1.00  0.00    -0.307 A  
HETATM    3  C   UNL     1      -8.386  19.370  68.591  1.00  0.00    -0.397 A  
HETATM    4  C   UNL     1      -7.104  19.069  69.030  1.00  0.00    -0.361 A  
HETATM    5  C   UNL     1      -6.634  17.776  68.867  1.00  0.00    -0.229 A  
HETATM    6  C   UNL     1      -6.309  20.086  69.666  1.00  0.00    -0.352 C  
HETATM    7  N   UNL     1      -5.702  20.928  70.169  1.00  0.00    -0.506 NA 
HETATM    8  C   UNL     1      -7.425  16.797  68.222  1.00  0.00    -0.186 A  
HETATM    9  C   UNL     1      -8.720  17.115  67.706  1.00  0.00    -0.220 A  
HETATM   10  C   UNL     1      -6.838  15.407  68.133  1.00  0.00    -0.135 C  
ENDROOT
BRANCH   9  11
HETATM   11  O   UNL     1      -9.239  16.122  66.883  1.00  0.00    -0.209 OA 
BRANCH  11  12
HETATM   12  C   UNL     1     -10.314  15.277  67.161  1.00  0.00    -0.265 A  
HETATM   13  C   UNL     1     -11.254  15.072  66.168  1.00  0.00    -0.307 A  
HETATM   14  C   UNL     1     -12.285  14.202  66.487  1.00  0.00    -0.433 A  
HETATM   15 BR   UNL     1     -11.168  15.925  64.481  1.00  0.00    -0.161 Br 
HETATM   16  N   UNL     1     -13.268  13.808  65.578  1.00  0.00    -0.592 NA 
HETATM   17  N   UNL     1     -12.384  13.598  67.681  1.00  0.00    -0.163 NA 
HETATM   18  H1  UNL     1     -14.027  13.169  65.813  1.00  0.00     0.000 HD 
HETATM   19  H2  UNL     1     -12.790  13.425  64.762  1.00  0.00     0.000 HD 
HETATM   20  C   UNL     1     -11.472  13.885  68.611  1.00  0.00    -0.298 A  
HETATM   21  N   UNL     1     -10.474  14.754  68.386  1.00  0.00    -0.238 NA 
BRANCH  20  22
HETATM   22  N   UNL     1     -11.466  13.252  69.860  1.00  0.00    -0.502 NA 
HETATM   23  H   UNL     1     -11.270  13.865  70.651  1.00  0.00     0.000 HD 
BRANCH  22  24
HETATM   24  C   UNL     1     -11.688  11.906  70.198  1.00  0.00    -0.253 A  
HETATM   25  C   UNL     1     -10.914  10.855  69.695  1.00  0.00    -0.311 A  
HETATM   26  C   UNL     1     -11.147   9.529  70.077  1.00  0.00    -0.268 A  
HETATM   27  C   UNL     1     -12.173   9.219  70.969  1.00  0.00    -0.322 A  
HETATM   28  C   UNL     1     -12.384   7.861  71.386  1.00  0.00    -0.312 C  
HETATM   29  C   UNL     1     -12.978  10.250  71.457  1.00  0.00    -0.556 A  
HETATM   30  C   UNL     1     -12.744  11.577  71.065  1.00  0.00    -0.426 A  
HETATM   31  N   UNL     1     -12.543   6.763  71.725  1.00  0.00    -0.359 NA 
ENDBRANCH  22  24
ENDBRANCH  20  22
ENDBRANCH  11  12
ENDBRANCH   9  11
TORSDOF 4
ENDMDL
MODEL       13
REMARK 921   NORMALIZED FREE ENERGY PREDICTED BY IDOCK:   -7.54 KCAL/MOL
REMARK 922        TOTAL FREE ENERGY PREDICTED BY IDOCK:   -9.96 KCAL/MOL
REMARK 923 INTER-LIGAND FREE ENERGY PREDICTED BY IDOCK:   -9.71 KCAL/MOL
REMARK 924 INTRA-LIGAND FREE ENERGY PREDICTED BY IDOCK:   -0.25 KCAL/MOL
REMARK 927      BINDING AFFINITY PREDICTED BY RF-SCORE:    0.00 PKD
ROOT
HETATM    1  C   UNL     1      -8.398  15.598  69.071  1.00  0.00    -0.235 C  
HETATM    2  C   UNL     1      -8.599  16.970  68.507  1.00  0.00    -0.257 A  
HETATM    3  C   UNL     1      -7.512  17.839  68.766  1.00  0.00    -0.263 A  
HETATM    4  C   UNL     1      -7.451  19.127  68.253  1.00  0.00    -0.334 A  
HETATM    5  C   UNL     1      -8.480  19.564  67.434  1.00  0.00    -0.336 A  
HETATM    6  C   UNL     1      -6.319  19.962  68.553  1.00  0.00    -0.276 C  
HETATM    7  N   UNL     1      -5.396  20.602  68.817  1.00  0.00    -0.276 NA 
HETATM    8  C   UNL     1      -9.593  18.734  67.168  1.00  0.00    -0.328 A  
HETATM    9  C   UNL     1      -9.698  17.431  67.746  1.00  0.00    -0.268 A  
HETATM   10  C   UNL     1     -10.639  19.289  66.229  1.00  0.00    -0.545 C  
ENDROOT
BRANCH   9  11
HETATM   11  O   UNL     1     -10.959  16.866  67.595  1.00  0.00    -0.285 OA 
BRANCH  11  12
HETATM   12  C   UNL     1     -11.286  15.510  67.661  1.00  0.00    -0.291 A  
HETATM   13  C   UNL     1     -11.376  14.805  66.475  1.00  0.00    -0.344 A  
HETATM   14  C   UNL     1     -11.675  13.457  66.599  1.00  0.00    -0.385 A  
HETATM   15 BR   UNL     1     -11.126  15.609  64.780  1.00  0.00    -0.346 Br 
HETATM   16  N   UNL     1     -11.715  12.576  65.518  1.00  0.00    -0.390 NA 
HETATM   17  N   UNL     1     -11.878  12.863  67.785  1.00  0.00    -0.354 NA 
HETATM   18  H1  UNL     1     -11.936  11.584  65.609  1.00  0.00     0.000 HD 
HETATM   19  H2  UNL     1     -10.817  12.643  65.039  1.00  0.00     0.000 HD 
HETATM   20  C   UNL     1     -11.831  13.616  68.884  1.00  0.00    -0.364 A  
HETATM   21  N   UNL     1     -11.592  14.937  68.834  1.00  0.00    -0.299 NA 
BRANCH  20  22
HETATM   22  N   UNL     1     -11.968  13.064  70.164  1.00  0.00    -0.453 NA 
HETATM   23  H   UNL     1     -12.002  13.745  70.923  1.00  0.00     0.000 HD 
BRANCH  22  24
HETATM   24  C   UNL     1     -12.066  11.723  70.570  1.00  0.00    -0.347 A  
HETATM   25  C   UNL     1     -13.030  11.267  71.476  1.00  0.00    -0.520 A  
HETATM   26  C   UNL     1     -13.114   9.918  71.835  1.00  0.00    -0.559 A  
HETATM   27  C   UNL     1     -12.223   8.986  71.303  1.00  0.00    -0.373 A  
HETATM   28  C   UNL     1     -12.337   7.597  71.648  1.00  0.00    -0.326 C  
HETATM   29  C   UNL     1     -11.231   9.426  70.424  1.00  0.00    -0.309 A  
HETATM   30  C   UNL     1     -11.148  10.782  70.072  1.00  0.00    -0.327 A  
HETATM   31  N   UNL     1     -12.440   6.474  71.923  1.00  0.00    -0.320 NA 
ENDBRANCH  22  24
ENDBRANCH  20  22
ENDBRANCH  11  12
ENDBRANCH   9  11
TORSDOF 4
ENDMDL
MODEL       14
REMARK 921   NORMALIZED FREE ENERGY PREDICTED BY IDOCK:   -7.52 KCAL/MOL
REMARK 922        TOTAL FREE ENERGY PREDICTED BY IDOCK:   -9.93 KCAL/MOL
REMARK 923 INTER-LIGAND FREE ENERGY PREDICTED BY IDOCK:   -9.38 KCAL/MOL
REMARK 924 INTRA-LIGAND FREE ENERGY PREDICTED BY IDOCK:   -0.55 KCAL/MOL
REMARK 927      BINDING AFFINITY PREDICTED BY RF-SCORE:    0.00 PKD
ROOT
HETATM    1  C   UNL     1     -10.295   9.836  67.322  1.00  0.00    -0.308 C  
HETATM    2  C   UNL     1     -10.298  10.436  65.950  1.00  0.00    -0.261 A  
HETATM    3  C   UNL     1      -9.303   9.886  65.105  1.00  0.00    -0.317 A  
HETATM    4  C   UNL     1      -9.192  10.232  63.766  1.00  0.00    -0.312 A  
HETATM    5  C   UNL     1     -10.107  11.125  63.233  1.00  0.00    -0.426 A  
HETATM    6  C   UNL     1      -8.159   9.639  62.959  1.00  0.00    -0.143 C  
HETATM    7  N   UNL     1      -7.317   9.143  62.345  1.00  0.00    -0.100 NA 
HETATM    8  C   UNL     1     -11.102  11.711  64.048  1.00  0.00    -0.458 A  
HETATM    9  C   UNL     1     -11.184  11.414  65.444  1.00  0.00    -0.070 A  
HETATM   10  C   UNL     1     -12.077  12.639  63.361  1.00  0.00    -0.614 C  
ENDROOT
BRANCH   9  11
HETATM   11  O   UNL     1     -12.038  12.265  66.135  1.00  0.00    -0.625 OA 
BRANCH  11  12
HETATM   12  C   UNL     1     -11.814  12.848  67.384  1.00  0.00    -0.360 A  
HETATM   13  C   UNL     1     -11.256  14.112  67.421  1.00  0.00    -0.318 A  
HETATM   14  C   UNL     1     -11.082  14.655  68.684  1.00  0.00    -0.262 A  
HETATM   15 BR   UNL     1     -10.740  15.053  65.862  1.00  0.00    -0.356 Br 
HETATM   16  N   UNL     1     -10.619  15.953  68.907  1.00  0.00    -0.230 NA 
HETATM   17  N   UNL     1     -11.419  14.005  69.808  1.00  0.00    -0.251 NA 
HETATM   18  H1  UNL     1     -10.491  16.352  69.836  1.00  0.00     0.000 HD 
HETATM   19  H2  UNL     1     -11.229  16.585  68.388  1.00  0.00     0.000 HD 
HETATM   20  C   UNL     1     -11.901  12.766  69.700  1.00  0.00    -0.317 A  
HETATM   21  N   UNL     1     -12.051  12.161  68.511  1.00  0.00    -0.316 NA 
BRANCH  20  22
HETATM   22  N   UNL     1     -12.335  12.042  70.818  1.00  0.00    -0.362 NA 
HETATM   23  H   UNL     1     -12.851  12.588  71.508  1.00  0.00     0.000 HD 
BRANCH  22  24
HETATM   24  C   UNL     1     -12.174  10.684  71.142  1.00  0.00    -0.374 A  
HETATM   25  C   UNL     1     -11.029   9.951  70.813  1.00  0.00    -0.407 A  
HETATM   26  C   UNL     1     -10.893   8.607  71.177  1.00  0.00    -0.320 A  
HETATM   27  C   UNL     1     -11.910   7.955  71.873  1.00  0.00    -0.345 A  
HETATM   28  C   UNL     1     -11.749   6.587  72.276  1.00  0.00    -0.281 C  
HETATM   29  C   UNL     1     -13.076   8.660  72.181  1.00  0.00    -0.423 A  
HETATM   30  C   UNL     1     -13.209  10.006  71.807  1.00  0.00    -0.540 A  
HETATM   31  N   UNL     1     -11.610   5.483  72.606  1.00  0.00    -0.284 NA 
ENDBRANCH  22  24
ENDBRANCH  20  22
ENDBRANCH  11  12
ENDBRANCH   9  11
TORSDOF 4
ENDMDL
MODEL       15
REMARK 921   NORMALIZED FREE ENERGY PREDICTED BY IDOCK:   -7.50 KCAL/MOL
REMARK 922        TOTAL FREE ENERGY PREDICTED BY IDOCK:   -9.91 KCAL/MOL
REMARK 923 INTER-LIGAND FREE ENERGY PREDICTED BY IDOCK:   -9.74 KCAL/MOL
REMARK 924 INTRA-LIGAND FREE ENERGY PREDICTED BY IDOCK:   -0.17 KCAL/MOL
REMARK 927      BINDING AFFINITY PREDICTED BY RF-SCORE:    0.00 PKD
ROOT
HETATM    1  C   UNL     1     -10.560   9.515  67.416  1.00  0.00    -0.337 C  
HETATM    2  C   UNL     1     -10.390   8.111  67.907  1.00  0.00    -0.280 A  
HETATM    3  C   UNL     1     -10.533   7.146  66.882  1.00  0.00    -0.364 A  
HETATM    4  C   UNL     1     -10.321   5.792  67.101  1.00  0.00    -0.293 A  
HETATM    5  C   UNL     1      -9.928   5.378  68.364  1.00  0.00    -0.217 A  
HETATM    6  C   UNL     1     -10.482   4.859  66.018  1.00  0.00    -0.283 C  
HETATM    7  N   UNL     1     -10.623   4.142  65.125  1.00  0.00    -0.188 NA 
HETATM    8  C   UNL     1      -9.795   6.308  69.419  1.00  0.00    -0.180 A  
HETATM    9  C   UNL     1     -10.076   7.696  69.221  1.00  0.00    -0.190 A  
HETATM   10  C   UNL     1      -9.320   5.761  70.745  1.00  0.00    -0.189 C  
ENDROOT
BRANCH   9  11
HETATM   11  O   UNL     1     -10.149   8.414  70.409  1.00  0.00    -0.184 OA 
BRANCH  11  12
HETATM   12  C   UNL     1     -11.204   9.218  70.841  1.00  0.00    -0.306 A  
HETATM   13  C   UNL     1     -12.237   8.618  71.539  1.00  0.00    -0.318 A  
HETATM   14  C   UNL     1     -13.245   9.467  71.969  1.00  0.00    -0.452 A  
HETATM   15 BR   UNL     1     -12.299   6.758  71.882  1.00  0.00    -0.331 Br 
HETATM   16  N   UNL     1     -14.314   9.051  72.762  1.00  0.00    -1.030 NA 
HETATM   17  N   UNL     1     -13.238  10.786  71.724  1.00  0.00    -0.442 NA 
HETATM   18  H1  UNL     1     -15.056   9.675  73.078  1.00  0.00     0.000 HD 
HETATM   19  H2  UNL     1     -13.921   8.605  73.591  1.00  0.00     0.000 HD 
HETATM   20  C   UNL     1     -12.239  11.289  70.997  1.00  0.00    -0.311 A  
HETATM   21  N   UNL     1     -11.255  10.517  70.509  1.00  0.00    -0.310 NA 
BRANCH  20  22
HETATM   22  N   UNL     1     -12.124  12.662  70.750  1.00  0.00    -0.484 NA 
HETATM   23  H   UNL     1     -12.252  13.257  71.568  1.00  0.00     0.000 HD 
BRANCH  22  24
HETATM   24  C   UNL     1     -11.861  13.353  69.554  1.00  0.00    -0.332 A  
HETATM   25  C   UNL     1     -11.639  14.733  69.502  1.00  0.00    -0.339 A  
HETATM   26  C   UNL     1     -11.352  15.381  68.296  1.00  0.00    -0.354 A  
HETATM   27  C   UNL     1     -11.289  14.662  67.103  1.00  0.00    -0.365 A  
HETATM   28  C   UNL     1     -10.958  15.326  65.874  1.00  0.00    -0.325 C  
HETATM   29  C   UNL     1     -11.540  13.288  67.128  1.00  0.00    -0.402 A  
HETATM   30  C   UNL     1     -11.835  12.645  68.340  1.00  0.00    -0.347 A  
HETATM   31  N   UNL     1     -10.681  15.868  64.886  1.00  0.00    -0.584 NA 
ENDBRANCH  22  24
ENDBRANCH  20  22
ENDBRANCH  11  12
ENDBRANCH   9  11
TORSDOF 4
ENDMDL
MODEL       16
REMARK 921   NORMALIZED FREE ENERGY PREDICTED BY IDOCK:   -7.49 KCAL/MOL
REMARK 922        TOTAL FREE ENERGY PREDICTED BY IDOCK:   -9.90 KCAL/MOL
REMARK 923 INTER-LIGAND FREE ENERGY PREDICTED BY IDOCK:   -9.03 KCAL/MOL
REMARK 924 INTRA-LIGAND FREE ENERGY PREDICTED BY IDOCK:   -0.87 KCAL/MOL
REMARK 927      BINDING AFFINITY PREDICTED BY RF-SCORE:    0.00 PKD
ROOT
HETATM    1  C   UNL     1     -12.725  11.324  70.385  1.00  0.00    -0.209 C  
HETATM    2  C   UNL     1     -11.567  10.783  69.606  1.00  0.00    -0.388 A  
HETATM    3  C   UNL     1     -10.586  10.174  70.426  1.00  0.00    -0.287 A  
HETATM    4  C   UNL     1      -9.477   9.526  69.902  1.00  0.00    -0.247 A  
HETATM    5  C   UNL     1      -9.343   9.450  68.525  1.00  0.00    -0.139 A  
HETATM    6  C   UNL     1      -8.515   8.927  70.787  1.00  0.00    -0.182 C  
HETATM    7  N   UNL     1      -7.765   8.460  71.530  1.00  0.00    -0.094 NA 
HETATM    8  C   UNL     1     -10.290  10.062  67.673  1.00  0.00    -0.272 A  
HETATM    9  C   UNL     1     -11.400  10.791  68.203  1.00  0.00    -0.308 A  
HETATM   10  C   UNL     1     -10.075   9.884  66.187  1.00  0.00    -0.315 C  
ENDROOT
BRANCH   9  11
HETATM   11  O   UNL     1     -12.072  11.539  67.244  1.00  0.00    -0.548 OA 
BRANCH  11  12
HETATM   12  C   UNL     1     -11.824  12.866  66.888  1.00  0.00    -0.379 A  
HETATM   13  C   UNL     1     -11.999  13.228  65.565  1.00  0.00    -0.405 A  
HETATM   14  C   UNL     1     -11.767  14.563  65.272  1.00  0.00    -0.361 A  
HETATM   15 BR   UNL     1     -12.505  11.995  64.221  1.00  0.00    -0.306 Br 
HETATM   16  N   UNL     1     -11.982  15.122  64.012  1.00  0.00    -0.913 NA 
HETATM   17  N   UNL     1     -11.388  15.456  66.199  1.00  0.00    -0.165 NA 
HETATM   18  H1  UNL     1     -11.811  16.104  63.796  1.00  0.00     0.000 HD 
HETATM   19  H2  UNL     1     -12.947  14.919  63.751  1.00  0.00     0.000 HD 
HETATM   20  C   UNL     1     -11.184  15.025  67.444  1.00  0.00    -0.335 A  
HETATM   21  N   UNL     1     -11.344  13.737  67.788  1.00  0.00    -0.288 NA 
BRANCH  20  22
HETATM   22  N   UNL     1     -10.849  15.902  68.484  1.00  0.00    -0.282 NA 
HETATM   23  H   UNL     1     -11.447  15.839  69.307  1.00  0.00     0.000 HD 
BRANCH  22  24
HETATM   24  C   UNL     1      -9.820  16.855  68.574  1.00  0.00    -0.267 A  
HETATM   25  C   UNL     1      -8.466  16.512  68.650  1.00  0.00    -0.243 A  
HETATM   26  C   UNL     1      -7.468  17.491  68.710  1.00  0.00    -0.258 A  
HETATM   27  C   UNL     1      -7.802  18.845  68.707  1.00  0.00    -0.359 A  
HETATM   28  C   UNL     1      -6.772  19.844  68.732  1.00  0.00    -0.323 C  
HETATM   29  C   UNL     1      -9.150  19.208  68.666  1.00  0.00    -0.414 A  
HETATM   30  C   UNL     1     -10.147  18.221  68.613  1.00  0.00    -0.407 A  
HETATM   31  N   UNL     1      -5.934  20.647  68.744  1.00  0.00    -0.338 NA 
ENDBRANCH  22  24
ENDBRANCH  20  22
ENDBRANCH  11  12
ENDBRANCH   9  11
TORSDOF 4
ENDMDL
MODEL       17
REMARK 921   NORMALIZED FREE ENERGY PREDICTED BY IDOCK:   -7.47 KCAL/MOL
REMARK 922        TOTAL FREE ENERGY PREDICTED BY IDOCK:   -9.87 KCAL/MOL
REMARK 923 INTER-LIGAND FREE ENERGY PREDICTED BY IDOCK:   -9.04 KCAL/MOL
REMARK 924 INTRA-LIGAND FREE ENERGY PREDICTED BY IDOCK:   -0.83 KCAL/MOL
REMARK 927      BINDING AFFINITY PREDICTED BY RF-SCORE:    0.00 PKD
ROOT
HETATM    1  C   UNL     1      -9.413  10.990  68.520  1.00  0.00    -0.188 C  
HETATM    2  C   UNL     1     -10.558  11.656  69.217  1.00  0.00    -0.088 A  
HETATM    3  C   UNL     1     -11.313  10.764  70.015  1.00  0.00    -0.397 A  
HETATM    4  C   UNL     1     -12.361  11.191  70.820  1.00  0.00    -0.504 A  
HETATM    5  C   UNL     1     -12.656  12.543  70.862  1.00  0.00    -0.331 A  
HETATM    6  C   UNL     1     -13.091  10.235  71.608  1.00  0.00    -0.449 C  
HETATM    7  N   UNL     1     -13.654   9.438  72.224  1.00  0.00    -0.468 NA 
HETATM    8  C   UNL     1     -11.939  13.464  70.064  1.00  0.00    -0.407 A  
HETATM    9  C   UNL     1     -10.903  13.026  69.181  1.00  0.00    -0.086 A  
HETATM   10  C   UNL     1     -12.310  14.921  70.215  1.00  0.00    -0.393 C  
ENDROOT
BRANCH   9  11
HETATM   11  O   UNL     1     -10.490  14.011  68.291  1.00  0.00    -0.232 OA 
BRANCH  11  12
HETATM   12  C   UNL     1     -10.766  14.079  66.925  1.00  0.00    -0.285 A  
HETATM   13  C   UNL     1     -10.903  15.329  66.350  1.00  0.00    -0.317 A  
HETATM   14  C   UNL     1     -11.148  15.338  64.985  1.00  0.00    -0.426 A  
HETATM   15 BR   UNL     1     -10.786  16.935  67.343  1.00  0.00    -0.179 Br 
HETATM   16  N   UNL     1     -11.224  16.506  64.225  1.00  0.00    -1.353 NA 
HETATM   17  N   UNL     1     -11.257  14.216  64.257  1.00  0.00    -0.260 NA 
HETATM   18  H1  UNL     1     -11.404  16.514  63.222  1.00  0.00     0.000 HD 
HETATM   19  H2  UNL     1     -10.359  17.025  64.381  1.00  0.00     0.000 HD 
HETATM   20  C   UNL     1     -11.168  13.044  64.888  1.00  0.00    -0.302 A  
HETATM   21  N   UNL     1     -10.979  12.961  66.215  1.00  0.00    -0.277 NA 
BRANCH  20  22
HETATM   22  N   UNL     1     -11.207  11.828  64.195  1.00  0.00    -0.357 NA 
HETATM   23  H   UNL     1     -12.122  11.577  63.820  1.00  0.00     0.000 HD 
BRANCH  22  24
HETATM   24  C   UNL     1     -10.188  10.897  63.933  1.00  0.00    -0.354 A  
HETATM   25  C   UNL     1      -9.576  10.766  62.682  1.00  0.00    -0.296 A  
HETATM   26  C   UNL     1      -8.544   9.846  62.466  1.00  0.00    -0.197 A  
HETATM   27  C   UNL     1      -8.104   9.021  63.501  1.00  0.00    -0.164 A  
HETATM   28  C   UNL     1      -7.020   8.105  63.284  1.00  0.00    -0.085 C  
HETATM   29  C   UNL     1      -8.724   9.112  64.748  1.00  0.00    -0.208 A  
HETATM   30  C   UNL     1      -9.764  10.032  64.956  1.00  0.00    -0.386 A  
HETATM   31  N   UNL     1      -6.138   7.372  63.104  1.00  0.00    -0.053 NA 
ENDBRANCH  22  24
ENDBRANCH  20  22
ENDBRANCH  11  12
ENDBRANCH   9  11
TORSDOF 4
ENDMDL
MODEL       18
REMARK 921   NORMALIZED FREE ENERGY PREDICTED BY IDOCK:   -7.39 KCAL/MOL
REMARK 922        TOTAL FREE ENERGY PREDICTED BY IDOCK:   -9.77 KCAL/MOL
REMARK 923 INTER-LIGAND FREE ENERGY PREDICTED BY IDOCK:   -8.93 KCAL/MOL
REMARK 924 INTRA-LIGAND FREE ENERGY PREDICTED BY IDOCK:   -0.84 KCAL/MOL
REMARK 927      BINDING AFFINITY PREDICTED BY RF-SCORE:    0.00 PKD
ROOT
HETATM    1  C   UNL     1     -11.056  11.238  67.032  1.00  0.00    -0.356 C  
HETATM    2  C   UNL     1      -9.810  10.749  67.704  1.00  0.00    -0.193 A  
HETATM    3  C   UNL     1      -8.630  11.122  67.016  1.00  0.00    -0.147 A  
HETATM    4  C   UNL     1      -7.363  10.852  67.514  1.00  0.00    -0.096 A  
HETATM    5  C   UNL     1      -7.254  10.222  68.743  1.00  0.00    -0.083 A  
HETATM    6  C   UNL     1      -6.201  11.256  66.768  1.00  0.00    -0.134 C  
HETATM    7  N   UNL     1      -5.295  11.593  66.139  1.00  0.00    -0.291 NA 
HETATM    8  C   UNL     1      -8.408   9.816  69.451  1.00  0.00    -0.153 A  
HETATM    9  C   UNL     1      -9.717  10.028  68.915  1.00  0.00    -0.181 A  
HETATM   10  C   UNL     1      -8.181   9.176  70.801  1.00  0.00    -0.226 C  
ENDROOT
BRANCH   9  11
HETATM   11  O   UNL     1     -10.708   9.342  69.606  1.00  0.00    -0.226 OA 
BRANCH  11  12
HETATM   12  C   UNL     1     -11.655   9.884  70.477  1.00  0.00    -0.309 A  
HETATM   13  C   UNL     1     -12.358   9.018  71.294  1.00  0.00    -0.302 A  
HETATM   14  C   UNL     1     -13.266   9.612  72.158  1.00  0.00    -0.444 A  
HETATM   15 BR   UNL     1     -12.127   7.141  71.242  1.00  0.00    -0.406 Br 
HETATM   16  N   UNL     1     -13.994   8.903  73.114  1.00  0.00    -1.215 NA 
HETATM   17  N   UNL     1     -13.467  10.938  72.203  1.00  0.00    -0.269 NA 
HETATM   18  H1  UNL     1     -14.661   9.339  73.750  1.00  0.00     0.000 HD 
HETATM   19  H2  UNL     1     -13.323   8.390  73.686  1.00  0.00     0.000 HD 
HETATM   20  C   UNL     1     -12.794  11.708  71.347  1.00  0.00    -0.356 A  
HETATM   21  N   UNL     1     -11.934  11.196  70.452  1.00  0.00    -0.353 NA 
BRANCH  20  22
HETATM   22  N   UNL     1     -12.898  13.104  71.371  1.00  0.00    -0.354 NA 
HETATM   23  H   UNL     1     -13.501  13.477  72.104  1.00  0.00     0.000 HD 
BRANCH  22  24
HETATM   24  C   UNL     1     -12.304  14.075  70.547  1.00  0.00    -0.367 A  
HETATM   25  C   UNL     1     -12.270  13.975  69.152  1.00  0.00    -0.299 A  
HETATM   26  C   UNL     1     -11.694  14.976  68.362  1.00  0.00    -0.341 A  
HETATM   27  C   UNL     1     -11.125  16.104  68.952  1.00  0.00    -0.347 A  
HETATM   28  C   UNL     1     -10.569  17.145  68.135  1.00  0.00    -0.380 C  
HETATM   29  C   UNL     1     -11.119  16.208  70.344  1.00  0.00    -0.362 A  
HETATM   30  C   UNL     1     -11.692  15.197  71.132  1.00  0.00    -0.400 A  
HETATM   31  N   UNL     1     -10.128  17.987  67.468  1.00  0.00    -0.335 NA 
ENDBRANCH  22  24
ENDBRANCH  20  22
ENDBRANCH  11  12
ENDBRANCH   9  11
TORSDOF 4
ENDMDL
MODEL       19
REMARK 921   NORMALIZED FREE ENERGY PREDICTED BY IDOCK:   -7.37 KCAL/MOL
REMARK 922        TOTAL FREE ENERGY PREDICTED BY IDOCK:   -9.75 KCAL/MOL
REMARK 923 INTER-LIGAND FREE ENERGY PREDICTED BY IDOCK:   -9.10 KCAL/MOL
REMARK 924 INTRA-LIGAND FREE ENERGY PREDICTED BY IDOCK:   -0.65 KCAL/MOL
REMARK 927      BINDING AFFINITY PREDICTED BY RF-SCORE:    0.00 PKD
ROOT
HETATM    1  C   UNL     1     -11.729  13.163  64.681  1.00  0.00    -0.404 C  
HETATM    2  C   UNL     1     -10.698  12.618  65.620  1.00  0.00    -0.297 A  
HETATM    3  C   UNL     1     -10.842  11.230  65.854  1.00  0.00    -0.264 A  
HETATM    4  C   UNL     1      -9.937  10.506  66.617  1.00  0.00    -0.260 A  
HETATM    5  C   UNL     1      -8.838  11.164  67.144  1.00  0.00    -0.143 A  
HETATM    6  C   UNL     1     -10.139   9.096  66.819  1.00  0.00    -0.271 C  
HETATM    7  N   UNL     1     -10.337   7.968  66.959  1.00  0.00    -0.321 NA 
HETATM    8  C   UNL     1      -8.669  12.554  66.950  1.00  0.00    -0.182 A  
HETATM    9  C   UNL     1      -9.631  13.322  66.223  1.00  0.00    -0.235 A  
HETATM   10  C   UNL     1      -7.415  13.168  67.529  1.00  0.00    -0.164 C  
ENDROOT
BRANCH   9  11
HETATM   11  O   UNL     1      -9.447  14.694  66.353  1.00  0.00    -0.275 OA 
BRANCH  11  12
HETATM   12  C   UNL     1      -9.934  15.514  67.372  1.00  0.00    -0.234 A  
HETATM   13  C   UNL     1      -9.412  16.789  67.486  1.00  0.00    -0.237 A  
HETATM   14  C   UNL     1      -9.951  17.570  68.496  1.00  0.00    -0.344 A  
HETATM   15 BR   UNL     1      -8.041  17.442  66.357  1.00  0.00    -0.308 Br 
HETATM   16  N   UNL     1      -9.610  18.909  68.698  1.00  0.00    -0.373 NA 
HETATM   17  N   UNL     1     -10.909  17.129  69.325  1.00  0.00    -0.154 NA 
HETATM   18  H1  UNL     1     -10.006  19.483  69.442  1.00  0.00     0.000 HD 
HETATM   19  H2  UNL     1      -9.773  19.398  67.818  1.00  0.00     0.000 HD 
HETATM   20  C   UNL     1     -11.326  15.869  69.193  1.00  0.00    -0.366 A  
HETATM   21  N   UNL     1     -10.815  15.042  68.267  1.00  0.00    -0.252 NA 
BRANCH  20  22
HETATM   22  N   UNL     1     -12.366  15.349  69.975  1.00  0.00    -0.496 NA 
HETATM   23  H   UNL     1     -13.110  16.011  70.193  1.00  0.00     0.000 HD 
BRANCH  22  24
HETATM   24  C   UNL     1     -12.548  14.061  70.507  1.00  0.00    -0.329 A  
HETATM   25  C   UNL     1     -13.328  13.806  71.640  1.00  0.00    -0.430 A  
HETATM   26  C   UNL     1     -13.508  12.506  72.124  1.00  0.00    -0.523 A  
HETATM   27  C   UNL     1     -12.900  11.423  71.490  1.00  0.00    -0.508 A  
HETATM   28  C   UNL     1     -13.120  10.088  71.970  1.00  0.00    -0.441 C  
HETATM   29  C   UNL     1     -12.090  11.660  70.378  1.00  0.00    -0.462 A  
HETATM   30  C   UNL     1     -11.907  12.967  69.901  1.00  0.00    -0.377 A  
HETATM   31  N   UNL     1     -13.307   9.010  72.358  1.00  0.00    -0.452 NA 
ENDBRANCH  22  24
ENDBRANCH  20  22
ENDBRANCH  11  12
ENDBRANCH   9  11
TORSDOF 4
ENDMDL
MODEL       20
REMARK 921   NORMALIZED FREE ENERGY PREDICTED BY IDOCK:   -7.35 KCAL/MOL
REMARK 922        TOTAL FREE ENERGY PREDICTED BY IDOCK:   -9.72 KCAL/MOL
REMARK 923 INTER-LIGAND FREE ENERGY PREDICTED BY IDOCK:   -9.26 KCAL/MOL
REMARK 924 INTRA-LIGAND FREE ENERGY PREDICTED BY IDOCK:   -0.46 KCAL/MOL
REMARK 927      BINDING AFFINITY PREDICTED BY RF-SCORE:    0.00 PKD
ROOT
HETATM    1  C   UNL     1     -12.491  13.777  65.410  1.00  0.00    -0.532 C  
HETATM    2  C   UNL     1     -11.192  14.308  65.931  1.00  0.00    -0.319 A  
HETATM    3  C   UNL     1     -11.216  15.705  66.157  1.00  0.00    -0.036 A  
HETATM    4  C   UNL     1     -10.149  16.385  66.726  1.00  0.00    -0.287 A  
HETATM    5  C   UNL     1      -9.032  15.662  67.112  1.00  0.00    -0.232 A  
HETATM    6  C   UNL     1     -10.234  17.806  66.929  1.00  0.00    -0.346 C  
HETATM    7  N   UNL     1     -10.340  18.946  67.075  1.00  0.00    -0.380 NA 
HETATM    8  C   UNL     1      -8.961  14.268  66.886  1.00  0.00    -0.255 A  
HETATM    9  C   UNL     1     -10.027  13.569  66.238  1.00  0.00    -0.298 A  
HETATM   10  C   UNL     1      -7.718  13.567  67.383  1.00  0.00    -0.149 C  
ENDROOT
BRANCH   9  11
HETATM   11  O   UNL     1      -9.684  12.276  65.864  1.00  0.00    -0.247 OA 
BRANCH  11  12
HETATM   12  C   UNL     1     -10.053  11.090  66.501  1.00  0.00    -0.226 A  
HETATM   13  C   UNL     1      -9.783   9.895  65.860  1.00  0.00    -0.262 A  
HETATM   14  C   UNL     1     -10.144   8.748  66.549  1.00  0.00    -0.279 A  
HETATM   15 BR   UNL     1      -8.988   9.807  64.145  1.00  0.00    -0.275 Br 
HETATM   16  N   UNL     1      -9.865   7.458  66.096  1.00  0.00    -0.435 NA 
HETATM   17  N   UNL     1     -10.728   8.779  67.757  1.00  0.00    -0.181 NA 
HETATM   18  H1  UNL     1     -10.131   6.614  66.603  1.00  0.00     0.000 HD 
HETATM   19  H2  UNL     1      -8.860   7.406  65.930  1.00  0.00     0.000 HD 
HETATM   20  C   UNL     1     -11.009   9.968  68.292  1.00  0.00    -0.227 A  
HETATM   21  N   UNL     1     -10.730  11.118  67.659  1.00  0.00    -0.214 NA 
BRANCH  20  22
HETATM   22  N   UNL     1     -11.559  10.089  69.574  1.00  0.00    -0.446 NA 
HETATM   23  H   UNL     1     -11.589   9.223  70.112  1.00  0.00     0.000 HD 
BRANCH  22  24
HETATM   24  C   UNL     1     -12.077  11.214  70.239  1.00  0.00    -0.377 A  
HETATM   25  C   UNL     1     -12.809  11.128  71.428  1.00  0.00    -0.544 A  
HETATM   26  C   UNL     1     -13.285  12.273  72.077  1.00  0.00    -0.508 A  
HETATM   27  C   UNL     1     -13.049  13.539  71.543  1.00  0.00    -0.427 A  
HETATM   28  C   UNL     1     -13.508  14.712  72.232  1.00  0.00    -0.408 C  
HETATM   29  C   UNL     1     -12.349  13.645  70.339  1.00  0.00    -0.415 A  
HETATM   30  C   UNL     1     -11.880  12.492  69.689  1.00  0.00    -0.382 A  
HETATM   31  N   UNL     1     -13.874  15.657  72.798  1.00  0.00    -0.572 NA 
ENDBRANCH  22  24
ENDBRANCH  20  22
ENDBRANCH  11  12
ENDBRANCH   9  11
TORSDOF 4
ENDMDL
MODEL       21
REMARK 921   NORMALIZED FREE ENERGY PREDICTED BY IDOCK:   -7.28 KCAL/MOL
REMARK 922        TOTAL FREE ENERGY PREDICTED BY IDOCK:   -9.64 KCAL/MOL
REMARK 923 INTER-LIGAND FREE ENERGY PREDICTED BY IDOCK:   -8.78 KCAL/MOL
REMARK 924 INTRA-LIGAND FREE ENERGY PREDICTED BY IDOCK:   -0.85 KCAL/MOL
REMARK 927      BINDING AFFINITY PREDICTED BY RF-SCORE:    0.00 PKD
ROOT
HETATM    1  C   UNL     1     -10.828   6.673  67.568  1.00  0.00    -0.417 C  
HETATM    2  C   UNL     1     -10.302   7.676  68.547  1.00  0.00    -0.225 A  
HETATM    3  C   UNL     1     -10.802   7.484  69.857  1.00  0.00    -0.250 A  
HETATM    4  C   UNL     1     -10.371   8.244  70.936  1.00  0.00    -0.225 A  
HETATM    5  C   UNL     1      -9.396   9.205  70.723  1.00  0.00    -0.325 A  
HETATM    6  C   UNL     1     -10.918   8.001  72.244  1.00  0.00    -0.314 C  
HETATM    7  N   UNL     1     -11.381   7.778  73.277  1.00  0.00    -0.261 NA 
HETATM    8  C   UNL     1      -8.886   9.441  69.426  1.00  0.00    -0.159 A  
HETATM    9  C   UNL     1      -9.372   8.710  68.296  1.00  0.00    -0.137 A  
HETATM   10  C   UNL     1      -7.795  10.479  69.308  1.00  0.00    -0.144 C  
ENDROOT
BRANCH   9  11
HETATM   11  O   UNL     1      -8.960   9.245  67.082  1.00  0.00    -0.126 OA 
BRANCH  11  12
HETATM   12  C   UNL     1      -9.672  10.127  66.267  1.00  0.00    -0.218 A  
HETATM   13  C   UNL     1      -9.456  10.070  64.902  1.00  0.00    -0.293 A  
HETATM   14  C   UNL     1     -10.209  10.948  64.138  1.00  0.00    -0.359 A  
HETATM   15 BR   UNL     1      -8.207   8.890  64.108  1.00  0.00    -0.164 Br 
HETATM   16  N   UNL     1     -10.188  10.966  62.743  1.00  0.00    -0.763 NA 
HETATM   17  N   UNL     1     -11.087  11.810  64.674  1.00  0.00    -0.312 NA 
HETATM   18  H1  UNL     1     -10.742  11.612  62.181  1.00  0.00     0.000 HD 
HETATM   19  H2  UNL     1     -10.410  10.022  62.425  1.00  0.00     0.000 HD 
HETATM   20  C   UNL     1     -11.203  11.849  66.002  1.00  0.00    -0.324 A  
HETATM   21  N   UNL     1     -10.471  11.060  66.805  1.00  0.00    -0.241 NA 
BRANCH  20  22
HETATM   22  N   UNL     1     -12.140  12.673  66.637  1.00  0.00    -0.539 NA 
HETATM   23  H   UNL     1     -13.057  12.703  66.192  1.00  0.00     0.000 HD 
BRANCH  22  24
HETATM   24  C   UNL     1     -12.019  13.467  67.791  1.00  0.00    -0.324 A  
HETATM   25  C   UNL     1     -11.742  14.837  67.750  1.00  0.00    -0.368 A  
HETATM   26  C   UNL     1     -11.657  15.600  68.919  1.00  0.00    -0.392 A  
HETATM   27  C   UNL     1     -11.838  15.006  70.167  1.00  0.00    -0.357 A  
HETATM   28  C   UNL     1     -11.786  15.801  71.362  1.00  0.00    -0.445 C  
HETATM   29  C   UNL     1     -12.083  13.633  70.232  1.00  0.00    -0.427 A  
HETATM   30  C   UNL     1     -12.160  12.871  69.056  1.00  0.00    -0.198 A  
HETATM   31  N   UNL     1     -11.751  16.451  72.323  1.00  0.00    -0.478 NA 
ENDBRANCH  22  24
ENDBRANCH  20  22
ENDBRANCH  11  12
ENDBRANCH   9  11
TORSDOF 4
ENDMDL
MODEL       22
REMARK 921   NORMALIZED FREE ENERGY PREDICTED BY IDOCK:   -7.28 KCAL/MOL
REMARK 922        TOTAL FREE ENERGY PREDICTED BY IDOCK:   -9.64 KCAL/MOL
REMARK 923 INTER-LIGAND FREE ENERGY PREDICTED BY IDOCK:   -9.29 KCAL/MOL
REMARK 924 INTRA-LIGAND FREE ENERGY PREDICTED BY IDOCK:   -0.35 KCAL/MOL
REMARK 927      BINDING AFFINITY PREDICTED BY RF-SCORE:    0.00 PKD
ROOT
HETATM    1  C   UNL     1     -11.524  11.233  68.537  1.00  0.00    -0.372 C  
HETATM    2  C   UNL     1     -10.720  10.174  67.849  1.00  0.00    -0.317 A  
HETATM    3  C   UNL     1     -10.832   8.906  68.469  1.00  0.00    -0.038 A  
HETATM    4  C   UNL     1     -10.244   7.765  67.940  1.00  0.00    -0.259 A  
HETATM    5  C   UNL     1      -9.547   7.871  66.747  1.00  0.00    -0.278 A  
HETATM    6  C   UNL     1     -10.394   6.505  68.617  1.00  0.00    -0.191 C  
HETATM    7  N   UNL     1     -10.535   5.513  69.189  1.00  0.00    -0.250 NA 
HETATM    8  C   UNL     1      -9.395   9.123  66.108  1.00  0.00    -0.288 A  
HETATM    9  C   UNL     1      -9.939  10.315  66.680  1.00  0.00    -0.216 A  
HETATM   10  C   UNL     1      -8.655   9.123  64.791  1.00  0.00    -0.209 C  
ENDROOT
BRANCH   9  11
HETATM   11  O   UNL     1      -9.477  11.474  66.069  1.00  0.00    -0.218 OA 
BRANCH  11  12
HETATM   12  C   UNL     1     -10.193  12.652  65.851  1.00  0.00    -0.274 A  
HETATM   13  C   UNL     1     -10.845  12.803  64.640  1.00  0.00    -0.335 A  
HETATM   14  C   UNL     1     -11.564  13.979  64.487  1.00  0.00    -0.391 A  
HETATM   15 BR   UNL     1     -10.763  11.509  63.262  1.00  0.00    -0.302 Br 
HETATM   16  N   UNL     1     -12.355  14.257  63.372  1.00  0.00    -1.126 NA 
HETATM   17  N   UNL     1     -11.625  14.923  65.439  1.00  0.00    -0.317 NA 
HETATM   18  H1  UNL     1     -12.884  15.122  63.259  1.00  0.00     0.000 HD 
HETATM   19  H2  UNL     1     -13.013  13.484  63.267  1.00  0.00     0.000 HD 
HETATM   20  C   UNL     1     -10.926  14.736  66.559  1.00  0.00    -0.325 A  
HETATM   21  N   UNL     1     -10.171  13.643  66.754  1.00  0.00    -0.264 NA 
BRANCH  20  22
HETATM   22  N   UNL     1     -10.985  15.642  67.626  1.00  0.00    -0.317 NA 
HETATM   23  H   UNL     1     -10.688  16.591  67.399  1.00  0.00     0.000 HD 
BRANCH  22  24
HETATM   24  C   UNL     1     -11.387  15.453  68.959  1.00  0.00    -0.316 A  
HETATM   25  C   UNL     1     -12.075  14.315  69.395  1.00  0.00    -0.361 A  
HETATM   26  C   UNL     1     -12.435  14.150  70.737  1.00  0.00    -0.436 A  
HETATM   27  C   UNL     1     -12.124  15.128  71.680  1.00  0.00    -0.424 A  
HETATM   28  C   UNL     1     -12.463  14.936  73.062  1.00  0.00    -0.385 C  
HETATM   29  C   UNL     1     -11.467  16.287  71.259  1.00  0.00    -0.369 A  
HETATM   30  C   UNL     1     -11.115  16.451  69.910  1.00  0.00    -0.313 A  
HETATM   31  N   UNL     1     -12.733  14.771  74.178  1.00  0.00    -0.399 NA 
ENDBRANCH  22  24
ENDBRANCH  20  22
ENDBRANCH  11  12
ENDBRANCH   9  11
TORSDOF 4
ENDMDL
MODEL       23
REMARK 921   NORMALIZED FREE ENERGY PREDICTED BY IDOCK:   -7.28 KCAL/MOL
REMARK 922        TOTAL FREE ENERGY PREDICTED BY IDOCK:   -9.63 KCAL/MOL
REMARK 923 INTER-LIGAND FREE ENERGY PREDICTED BY IDOCK:   -8.89 KCAL/MOL
REMARK 924 INTRA-LIGAND FREE ENERGY PREDICTED BY IDOCK:   -0.74 KCAL/MOL
REMARK 927      BINDING AFFINITY PREDICTED BY RF-SCORE:    0.00 PKD
ROOT
HETATM    1  C   UNL     1     -10.517  10.375  67.324  1.00  0.00    -0.304 C  
HETATM    2  C   UNL     1     -11.188  10.839  68.579  1.00  0.00    -0.340 A  
HETATM    3  C   UNL     1     -11.232   9.842  69.582  1.00  0.00    -0.251 A  
HETATM    4  C   UNL     1     -11.726  10.090  70.856  1.00  0.00    -0.462 A  
HETATM    5  C   UNL     1     -12.164  11.369  71.159  1.00  0.00    -0.330 A  
HETATM    6  C   UNL     1     -11.746   9.035  71.832  1.00  0.00    -0.374 C  
HETATM    7  N   UNL     1     -11.746   8.162  72.587  1.00  0.00    -0.398 NA 
HETATM    8  C   UNL     1     -12.155  12.387  70.179  1.00  0.00    -0.366 A  
HETATM    9  C   UNL     1     -11.711  12.125  68.845  1.00  0.00    -0.327 A  
HETATM   10  C   UNL     1     -12.612  13.757  70.624  1.00  0.00    -0.386 C  
ENDROOT
BRANCH   9  11
HETATM   11  O   UNL     1     -12.013  13.150  67.957  1.00  0.00    -0.351 OA 
BRANCH  11  12
HETATM   12  C   UNL     1     -11.109  13.974  67.285  1.00  0.00    -0.302 A  
HETATM   13  C   UNL     1     -11.480  14.479  66.053  1.00  0.00    -0.348 A  
HETATM   14  C   UNL     1     -10.556  15.314  65.443  1.00  0.00    -0.394 A  
HETATM   15 BR   UNL     1     -13.129  14.059  65.225  1.00  0.00     0.065 Br 
HETATM   16  N   UNL     1     -10.799  15.983  64.243  1.00  0.00    -0.879 NA 
HETATM   17  N   UNL     1      -9.371  15.614  65.995  1.00  0.00    -0.343 NA 
HETATM   18  H1  UNL     1     -10.120  16.597  63.794  1.00  0.00     0.000 HD 
HETATM   19  H2  UNL     1     -11.658  16.521  64.364  1.00  0.00     0.000 HD 
HETATM   20  C   UNL     1      -9.055  15.047  67.160  1.00  0.00    -0.215 A  
HETATM   21  N   UNL     1      -9.883  14.192  67.784  1.00  0.00    -0.227 NA 
BRANCH  20  22
HETATM   22  N   UNL     1      -7.867  15.355  67.834  1.00  0.00    -0.127 NA 
HETATM   23  H   UNL     1      -7.270  14.554  68.038  1.00  0.00     0.000 HD 
BRANCH  22  24
HETATM   24  C   UNL     1      -7.366  16.592  68.274  1.00  0.00    -0.169 A  
HETATM   25  C   UNL     1      -8.155  17.741  68.384  1.00  0.00    -0.297 A  
HETATM   26  C   UNL     1      -7.626  18.949  68.853  1.00  0.00    -0.337 A  
HETATM   27  C   UNL     1      -6.283  19.040  69.216  1.00  0.00    -0.296 A  
HETATM   28  C   UNL     1      -5.755  20.271  69.732  1.00  0.00    -0.321 C  
HETATM   29  C   UNL     1      -5.469  17.913  69.082  1.00  0.00    -0.192 A  
HETATM   30  C   UNL     1      -6.004  16.706  68.604  1.00  0.00    -0.134 A  
HETATM   31  N   UNL     1      -5.336  21.267  70.155  1.00  0.00    -0.484 NA 
ENDBRANCH  22  24
ENDBRANCH  20  22
ENDBRANCH  11  12
ENDBRANCH   9  11
TORSDOF 4
ENDMDL
MODEL       24
REMARK 921   NORMALIZED FREE ENERGY PREDICTED BY IDOCK:   -7.27 KCAL/MOL
REMARK 922        TOTAL FREE ENERGY PREDICTED BY IDOCK:   -9.62 KCAL/MOL
REMARK 923 INTER-LIGAND FREE ENERGY PREDICTED BY IDOCK:   -9.14 KCAL/MOL
REMARK 924 INTRA-LIGAND FREE ENERGY PREDICTED BY IDOCK:   -0.48 KCAL/MOL
REMARK 927      BINDING AFFINITY PREDICTED BY RF-SCORE:    0.00 PKD
ROOT
HETATM    1  C   UNL     1     -11.623  11.639  68.663  1.00  0.00    -0.373 C  
HETATM    2  C   UNL     1     -10.847  10.514  68.052  1.00  0.00    -0.312 A  
HETATM    3  C   UNL     1     -11.004   9.293  68.750  1.00  0.00    -0.047 A  
HETATM    4  C   UNL     1     -10.447   8.103  68.300  1.00  0.00    -0.210 A  
HETATM    5  C   UNL     1      -9.738   8.110  67.111  1.00  0.00    -0.259 A  
HETATM    6  C   UNL     1     -10.642   6.894  69.055  1.00  0.00    -0.217 C  
HETATM    7  N   UNL     1     -10.818   5.946  69.688  1.00  0.00    -0.348 NA 
HETATM    8  C   UNL     1      -9.542   9.313  66.395  1.00  0.00    -0.301 A  
HETATM    9  C   UNL     1     -10.054  10.556  66.883  1.00  0.00    -0.216 A  
HETATM   10  C   UNL     1      -8.792   9.206  65.087  1.00  0.00    -0.241 C  
ENDROOT
BRANCH   9  11
HETATM   11  O   UNL     1      -9.551  11.659  66.204  1.00  0.00    -0.219 OA 
BRANCH  11  12
HETATM   12  C   UNL     1     -10.240  12.825  65.868  1.00  0.00    -0.287 A  
HETATM   13  C   UNL     1     -10.961  12.838  64.687  1.00  0.00    -0.327 A  
HETATM   14  C   UNL     1     -11.649  14.010  64.416  1.00  0.00    -0.369 A  
HETATM   15 BR   UNL     1     -11.007  11.368  63.497  1.00  0.00    -0.306 Br 
HETATM   16  N   UNL     1     -12.499  14.168  63.320  1.00  0.00    -1.098 NA 
HETATM   17  N   UNL     1     -11.620  15.076  65.231  1.00  0.00    -0.302 NA 
HETATM   18  H1  UNL     1     -13.005  15.030  63.120  1.00  0.00     0.000 HD 
HETATM   19  H2  UNL     1     -13.187  13.415  63.360  1.00  0.00     0.000 HD 
HETATM   20  C   UNL     1     -10.859  15.014  66.324  1.00  0.00    -0.333 A  
HETATM   21  N   UNL     1     -10.130  13.927  66.624  1.00  0.00    -0.267 NA 
BRANCH  20  22
HETATM   22  N   UNL     1     -10.822  16.057  67.258  1.00  0.00    -0.293 NA 
HETATM   23  H   UNL     1     -11.523  15.996  67.996  1.00  0.00     0.000 HD 
BRANCH  22  24
HETATM   24  C   UNL     1      -9.973  17.174  67.342  1.00  0.00    -0.280 A  
HETATM   25  C   UNL     1     -10.115  18.170  68.313  1.00  0.00    -0.398 A  
HETATM   26  C   UNL     1      -9.233  19.254  68.381  1.00  0.00    -0.409 A  
HETATM   27  C   UNL     1      -8.187  19.374  67.468  1.00  0.00    -0.321 A  
HETATM   28  C   UNL     1      -7.262  20.469  67.566  1.00  0.00    -0.325 C  
HETATM   29  C   UNL     1      -8.047  18.408  66.469  1.00  0.00    -0.291 A  
HETATM   30  C   UNL     1      -8.940  17.327  66.401  1.00  0.00    -0.282 A  
HETATM   31  N   UNL     1      -6.514  21.351  67.655  1.00  0.00    -0.508 NA 
ENDBRANCH  22  24
ENDBRANCH  20  22
ENDBRANCH  11  12
ENDBRANCH   9  11
TORSDOF 4
ENDMDL
MODEL       25
REMARK 921   NORMALIZED FREE ENERGY PREDICTED BY IDOCK:   -7.25 KCAL/MOL
REMARK 922        TOTAL FREE ENERGY PREDICTED BY IDOCK:   -9.60 KCAL/MOL
REMARK 923 INTER-LIGAND FREE ENERGY PREDICTED BY IDOCK:   -8.50 KCAL/MOL
REMARK 924 INTRA-LIGAND FREE ENERGY PREDICTED BY IDOCK:   -1.10 KCAL/MOL
REMARK 927      BINDING AFFINITY PREDICTED BY RF-SCORE:    0.00 PKD
ROOT
HETATM    1  C   UNL     1     -10.592   9.156  66.557  1.00  0.00    -0.096 C  
HETATM    2  C   UNL     1      -9.602   9.865  67.428  1.00  0.00    -0.185 A  
HETATM    3  C   UNL     1      -9.527   9.323  68.733  1.00  0.00    -0.150 A  
HETATM    4  C   UNL     1      -8.608   9.769  69.673  1.00  0.00    -0.201 A  
HETATM    5  C   UNL     1      -7.714  10.762  69.306  1.00  0.00    -0.129 A  
HETATM    6  C   UNL     1      -8.583   9.179  70.984  1.00  0.00    -0.177 C  
HETATM    7  N   UNL     1      -8.594   8.682  72.025  1.00  0.00    -0.320 NA 
HETATM    8  C   UNL     1      -7.769  11.343  68.018  1.00  0.00    -0.114 A  
HETATM    9  C   UNL     1      -8.756  10.937  67.065  1.00  0.00    -0.141 A  
HETATM   10  C   UNL     1      -6.723  12.386  67.703  1.00  0.00    -0.132 C  
ENDROOT
BRANCH   9  11
HETATM   11  O   UNL     1      -8.833  11.783  65.965  1.00  0.00    -0.163 OA 
BRANCH  11  12
HETATM   12  C   UNL     1      -9.818  12.738  65.707  1.00  0.00    -0.214 A  
HETATM   13  C   UNL     1     -10.517  12.646  64.518  1.00  0.00    -0.355 A  
HETATM   14  C   UNL     1     -11.502  13.602  64.324  1.00  0.00    -0.366 A  
HETATM   15 BR   UNL     1     -10.160  11.319  63.216  1.00  0.00    -0.428 Br 
HETATM   16  N   UNL     1     -12.365  13.607  63.228  1.00  0.00    -1.080 NA 
HETATM   17  N   UNL     1     -11.765  14.567  65.219  1.00  0.00    -0.355 NA 
HETATM   18  H1  UNL     1     -13.089  14.311  63.085  1.00  0.00     0.000 HD 
HETATM   19  H2  UNL     1     -12.820  12.695  63.196  1.00  0.00     0.000 HD 
HETATM   20  C   UNL     1     -11.013  14.629  66.319  1.00  0.00    -0.327 A  
HETATM   21  N   UNL     1     -10.012  13.764  66.548  1.00  0.00    -0.281 NA 
BRANCH  20  22
HETATM   22  N   UNL     1     -11.261  15.565  67.331  1.00  0.00    -0.291 NA 
HETATM   23  H   UNL     1     -11.231  16.539  67.031  1.00  0.00     0.000 HD 
BRANCH  22  24
HETATM   24  C   UNL     1     -11.546  15.376  68.694  1.00  0.00    -0.359 A  
HETATM   25  C   UNL     1     -11.195  16.301  69.683  1.00  0.00    -0.311 A  
HETATM   26  C   UNL     1     -11.520  16.092  71.028  1.00  0.00    -0.460 A  
HETATM   27  C   UNL     1     -12.200  14.939  71.421  1.00  0.00    -0.391 A  
HETATM   28  C   UNL     1     -12.563  14.747  72.796  1.00  0.00    -0.366 C  
HETATM   29  C   UNL     1     -12.530  13.987  70.454  1.00  0.00    -0.418 A  
HETATM   30  C   UNL     1     -12.194  14.200  69.108  1.00  0.00    -0.290 A  
HETATM   31  N   UNL     1     -12.862  14.602  73.908  1.00  0.00    -0.396 NA 
ENDBRANCH  22  24
ENDBRANCH  20  22
ENDBRANCH  11  12
ENDBRANCH   9  11
TORSDOF 4
ENDMDL
MODEL       26
REMARK 921   NORMALIZED FREE ENERGY PREDICTED BY IDOCK:   -7.23 KCAL/MOL
REMARK 922        TOTAL FREE ENERGY PREDICTED BY IDOCK:   -9.58 KCAL/MOL
REMARK 923 INTER-LIGAND FREE ENERGY PREDICTED BY IDOCK:   -9.18 KCAL/MOL
REMARK 924 INTRA-LIGAND FREE ENERGY PREDICTED BY IDOCK:   -0.40 KCAL/MOL
REMARK 927      BINDING AFFINITY PREDICTED BY RF-SCORE:    0.00 PKD
ROOT
HETATM    1  C   UNL     1     -11.028   9.873  67.097  1.00  0.00    -0.147 C  
HETATM    2  C   UNL     1     -11.342  11.316  67.343  1.00  0.00    -0.349 A  
HETATM    3  C   UNL     1     -11.554  12.046  66.150  1.00  0.00    -0.371 A  
HETATM    4  C   UNL     1     -11.949  13.377  66.152  1.00  0.00    -0.460 A  
HETATM    5  C   UNL     1     -12.171  14.000  67.369  1.00  0.00    -0.289 A  
HETATM    6  C   UNL     1     -12.148  14.065  64.905  1.00  0.00    -0.420 C  
HETATM    7  N   UNL     1     -12.296  14.583  63.885  1.00  0.00    -0.757 NA 
HETATM    8  C   UNL     1     -11.950  13.311  68.584  1.00  0.00    -0.345 A  
HETATM    9  C   UNL     1     -11.478  11.962  68.593  1.00  0.00    -0.294 A  
HETATM   10  C   UNL     1     -12.262  14.067  69.854  1.00  0.00    -0.399 C  
ENDROOT
BRANCH   9  11
HETATM   11  O   UNL     1     -11.070  11.534  69.851  1.00  0.00    -0.162 OA 
BRANCH  11  12
HETATM   12  C   UNL     1     -11.458  10.366  70.509  1.00  0.00    -0.345 A  
HETATM   13  C   UNL     1     -12.444  10.461  71.474  1.00  0.00    -0.404 A  
HETATM   14  C   UNL     1     -12.811   9.267  72.076  1.00  0.00    -0.415 A  
HETATM   15 BR   UNL     1     -13.241  12.104  71.971  1.00  0.00    -0.329 Br 
HETATM   16  N   UNL     1     -13.849   9.161  73.003  1.00  0.00    -1.083 NA 
HETATM   17  N   UNL     1     -12.250   8.090  71.760  1.00  0.00    -0.302 NA 
HETATM   18  H1  UNL     1     -14.119   8.283  73.446  1.00  0.00     0.000 HD 
HETATM   19  H2  UNL     1     -14.685   9.550  72.567  1.00  0.00     0.000 HD 
HETATM   20  C   UNL     1     -11.267   8.081  70.859  1.00  0.00    -0.266 A  
HETATM   21  N   UNL     1     -10.829   9.206  70.272  1.00  0.00    -0.237 NA 
BRANCH  20  22
HETATM   22  N   UNL     1     -10.672   6.889  70.427  1.00  0.00    -0.236 NA 
HETATM   23  H   UNL     1     -10.517   6.197  71.160  1.00  0.00     0.000 HD 
BRANCH  22  24
HETATM   24  C   UNL     1     -10.255   6.493  69.145  1.00  0.00    -0.180 A  
HETATM   25  C   UNL     1     -11.130   6.368  68.062  1.00  0.00    -0.365 A  
HETATM   26  C   UNL     1     -10.673   5.998  66.792  1.00  0.00    -0.374 A  
HETATM   27  C   UNL     1      -9.321   5.732  66.576  1.00  0.00    -0.162 A  
HETATM   28  C   UNL     1      -8.852   5.389  65.263  1.00  0.00    -0.130 C  
HETATM   29  C   UNL     1      -8.436   5.818  67.652  1.00  0.00    -0.103 A  
HETATM   30  C   UNL     1      -8.902   6.183  68.925  1.00  0.00    -0.122 A  
HETATM   31  N   UNL     1      -8.478   5.120  64.198  1.00  0.00    -0.137 NA 
ENDBRANCH  22  24
ENDBRANCH  20  22
ENDBRANCH  11  12
ENDBRANCH   9  11
TORSDOF 4
ENDMDL
MODEL       27
REMARK 921   NORMALIZED FREE ENERGY PREDICTED BY IDOCK:   -7.23 KCAL/MOL
REMARK 922        TOTAL FREE ENERGY PREDICTED BY IDOCK:   -9.57 KCAL/MOL
REMARK 923 INTER-LIGAND FREE ENERGY PREDICTED BY IDOCK:   -8.82 KCAL/MOL
REMARK 924 INTRA-LIGAND FREE ENERGY PREDICTED BY IDOCK:   -0.76 KCAL/MOL
REMARK 927      BINDING AFFINITY PREDICTED BY RF-SCORE:    0.00 PKD
ROOT
HETATM    1  C   UNL     1      -9.271  10.150  69.682  1.00  0.00    -0.206 C  
HETATM    2  C   UNL     1      -9.796   8.780  69.385  1.00  0.00    -0.186 A  
HETATM    3  C   UNL     1     -10.199   8.079  70.547  1.00  0.00    -0.201 A  
HETATM    4  C   UNL     1     -10.802   6.830  70.490  1.00  0.00    -0.301 A  
HETATM    5  C   UNL     1     -11.042   6.266  69.248  1.00  0.00    -0.461 A  
HETATM    6  C   UNL     1     -11.188   6.168  71.707  1.00  0.00    -0.284 C  
HETATM    7  N   UNL     1     -11.482   5.668  72.704  1.00  0.00    -0.306 NA 
HETATM    8  C   UNL     1     -10.637   6.925  68.065  1.00  0.00    -0.273 A  
HETATM    9  C   UNL     1      -9.954   8.180  68.115  1.00  0.00    -0.186 A  
HETATM   10  C   UNL     1     -10.984   6.245  66.761  1.00  0.00    -0.328 C  
ENDROOT
BRANCH   9  11
HETATM   11  O   UNL     1      -9.403   8.552  66.895  1.00  0.00    -0.153 OA 
BRANCH  11  12
HETATM   12  C   UNL     1      -9.823   9.592  66.064  1.00  0.00    -0.283 A  
HETATM   13  C   UNL     1      -9.358   9.613  64.762  1.00  0.00    -0.222 A  
HETATM   14  C   UNL     1      -9.829  10.651  63.973  1.00  0.00    -0.338 A  
HETATM   15 BR   UNL     1      -8.146   8.327  64.083  1.00  0.00    -0.103 Br 
HETATM   16  N   UNL     1      -9.539  10.776  62.614  1.00  0.00    -0.503 NA 
HETATM   17  N   UNL     1     -10.673  11.588  64.431  1.00  0.00    -0.325 NA 
HETATM   18  H1  UNL     1      -9.884  11.540  62.033  1.00  0.00     0.000 HD 
HETATM   19  H2  UNL     1      -9.817   9.904  62.163  1.00  0.00     0.000 HD 
HETATM   20  C   UNL     1     -11.036  11.538  65.713  1.00  0.00    -0.246 A  
HETATM   21  N   UNL     1     -10.581  10.588  66.546  1.00  0.00    -0.209 NA 
BRANCH  20  22
HETATM   22  N   UNL     1     -11.961  12.439  66.255  1.00  0.00    -0.607 NA 
HETATM   23  H   UNL     1     -12.836  12.518  65.737  1.00  0.00     0.000 HD 
BRANCH  22  24
HETATM   24  C   UNL     1     -11.877  13.253  67.397  1.00  0.00    -0.366 A  
HETATM   25  C   UNL     1     -11.771  14.646  67.337  1.00  0.00    -0.413 A  
HETATM   26  C   UNL     1     -11.718  15.426  68.497  1.00  0.00    -0.355 A  
HETATM   27  C   UNL     1     -11.758  14.826  69.755  1.00  0.00    -0.354 A  
HETATM   28  C   UNL     1     -11.740  15.634  70.943  1.00  0.00    -0.387 C  
HETATM   29  C   UNL     1     -11.830  13.434  69.838  1.00  0.00    -0.385 A  
HETATM   30  C   UNL     1     -11.876  12.657  68.670  1.00  0.00    -0.342 A  
HETATM   31  N   UNL     1     -11.734  16.292  71.898  1.00  0.00    -0.494 NA 
ENDBRANCH  22  24
ENDBRANCH  20  22
ENDBRANCH  11  12
ENDBRANCH   9  11
TORSDOF 4
ENDMDL
MODEL       28
REMARK 921   NORMALIZED FREE ENERGY PREDICTED BY IDOCK:   -7.21 KCAL/MOL
REMARK 922        TOTAL FREE ENERGY PREDICTED BY IDOCK:   -9.55 KCAL/MOL
REMARK 923 INTER-LIGAND FREE ENERGY PREDICTED BY IDOCK:   -8.62 KCAL/MOL
REMARK 924 INTRA-LIGAND FREE ENERGY PREDICTED BY IDOCK:   -0.93 KCAL/MOL
REMARK 927      BINDING AFFINITY PREDICTED BY RF-SCORE:    0.00 PKD
ROOT
HETATM    1  C   UNL     1     -10.635   7.213  73.443  1.00  0.00    -0.424 C  
HETATM    2  C   UNL     1     -10.170   6.844  72.069  1.00  0.00    -0.206 A  
HETATM    3  C   UNL     1      -8.904   6.212  72.066  1.00  0.00    -0.139 A  
HETATM    4  C   UNL     1      -8.329   5.704  70.909  1.00  0.00    -0.124 A  
HETATM    5  C   UNL     1      -9.037   5.797  69.721  1.00  0.00    -0.151 A  
HETATM    6  C   UNL     1      -7.038   5.072  70.970  1.00  0.00    -0.055 C  
HETATM    7  N   UNL     1      -6.002   4.574  71.060  1.00  0.00    -0.017 NA 
HETATM    8  C   UNL     1     -10.295   6.439  69.679  1.00  0.00    -0.249 A  
HETATM    9  C   UNL     1     -10.866   7.025  70.852  1.00  0.00    -0.241 A  
HETATM   10  C   UNL     1     -11.003   6.448  68.344  1.00  0.00    -0.390 C  
ENDROOT
BRANCH   9  11
HETATM   11  O   UNL     1     -11.964   7.833  70.580  1.00  0.00    -0.207 OA 
BRANCH  11  12
HETATM   12  C   UNL     1     -12.005   9.228  70.595  1.00  0.00    -0.152 A  
HETATM   13  C   UNL     1     -12.871   9.843  71.481  1.00  0.00    -0.421 A  
HETATM   14  C   UNL     1     -12.852  11.229  71.474  1.00  0.00    -0.414 A  
HETATM   15 BR   UNL     1     -14.028   8.877  72.625  1.00  0.00    -0.237 Br 
HETATM   16  N   UNL     1     -13.590  12.013  72.361  1.00  0.00    -0.497 NA 
HETATM   17  N   UNL     1     -12.057  11.942  70.660  1.00  0.00    -0.356 NA 
HETATM   18  H1  UNL     1     -13.576  13.033  72.356  1.00  0.00     0.000 HD 
HETATM   19  H2  UNL     1     -13.347  11.712  73.305  1.00  0.00     0.000 HD 
HETATM   20  C   UNL     1     -11.288  11.283  69.793  1.00  0.00    -0.271 A  
HETATM   21  N   UNL     1     -11.292   9.942  69.713  1.00  0.00    -0.223 NA 
BRANCH  20  22
HETATM   22  N   UNL     1     -10.385  11.947  68.954  1.00  0.00    -0.373 NA 
HETATM   23  H   UNL     1      -9.402  11.741  69.133  1.00  0.00     0.000 HD 
BRANCH  22  24
HETATM   24  C   UNL     1     -10.616  12.852  67.904  1.00  0.00    -0.222 A  
HETATM   25  C   UNL     1     -11.842  12.954  67.238  1.00  0.00    -0.416 A  
HETATM   26  C   UNL     1     -12.042  13.887  66.215  1.00  0.00    -0.484 A  
HETATM   27  C   UNL     1     -11.011  14.740  65.823  1.00  0.00    -0.334 A  
HETATM   28  C   UNL     1     -11.234  15.721  64.798  1.00  0.00    -0.366 C  
HETATM   29  C   UNL     1      -9.769  14.632  66.451  1.00  0.00    -0.315 A  
HETATM   30  C   UNL     1      -9.572  13.688  67.472  1.00  0.00    -0.220 A  
HETATM   31  N   UNL     1     -11.423  16.516  63.975  1.00  0.00    -1.122 NA 
ENDBRANCH  22  24
ENDBRANCH  20  22
ENDBRANCH  11  12
ENDBRANCH   9  11
TORSDOF 4
ENDMDL
MODEL       29
REMARK 921   NORMALIZED FREE ENERGY PREDICTED BY IDOCK:   -7.19 KCAL/MOL
REMARK 922        TOTAL FREE ENERGY PREDICTED BY IDOCK:   -9.52 KCAL/MOL
REMARK 923 INTER-LIGAND FREE ENERGY PREDICTED BY IDOCK:   -9.06 KCAL/MOL
REMARK 924 INTRA-LIGAND FREE ENERGY PREDICTED BY IDOCK:   -0.46 KCAL/MOL
REMARK 927      BINDING AFFINITY PREDICTED BY RF-SCORE:    0.00 PKD
ROOT
HETATM    1  C   UNL     1     -11.855  15.390  68.818  1.00  0.00    -0.339 C  
HETATM    2  C   UNL     1     -12.124  14.632  70.081  1.00  0.00    -0.385 A  
HETATM    3  C   UNL     1     -12.170  15.465  71.224  1.00  0.00    -0.430 A  
HETATM    4  C   UNL     1     -12.499  14.981  72.483  1.00  0.00    -0.443 A  
HETATM    5  C   UNL     1     -12.820  13.640  72.615  1.00  0.00    -0.249 A  
HETATM    6  C   UNL     1     -12.528  15.878  73.608  1.00  0.00    -0.596 C  
HETATM    7  N   UNL     1     -12.539  16.627  74.484  1.00  0.00    -0.711 NA 
HETATM    8  C   UNL     1     -12.766  12.772  71.501  1.00  0.00    -0.330 A  
HETATM    9  C   UNL     1     -12.363  13.246  70.213  1.00  0.00    -0.264 A  
HETATM   10  C   UNL     1     -13.176  11.338  71.742  1.00  0.00    -0.480 C  
ENDROOT
BRANCH   9  11
HETATM   11  O   UNL     1     -12.114  12.222  69.307  1.00  0.00    -0.258 OA 
BRANCH  11  12
HETATM   12  C   UNL     1     -10.975  12.057  68.518  1.00  0.00    -0.240 A  
HETATM   13  C   UNL     1     -10.227  10.906  68.687  1.00  0.00    -0.189 A  
HETATM   14  C   UNL     1      -9.123  10.780  67.858  1.00  0.00    -0.150 A  
HETATM   15 BR   UNL     1     -10.654   9.584  69.971  1.00  0.00    -0.306 Br 
HETATM   16  N   UNL     1      -8.310   9.646  67.827  1.00  0.00    -0.120 NA 
HETATM   17  N   UNL     1      -8.784  11.710  66.952  1.00  0.00    -0.179 NA 
HETATM   18  H1  UNL     1      -7.498   9.554  67.218  1.00  0.00     0.000 HD 
HETATM   19  H2  UNL     1      -8.915   8.845  67.649  1.00  0.00     0.000 HD 
HETATM   20  C   UNL     1      -9.518  12.821  66.882  1.00  0.00    -0.235 A  
HETATM   21  N   UNL     1     -10.573  13.030  67.686  1.00  0.00    -0.222 NA 
BRANCH  20  22
HETATM   22  N   UNL     1      -9.270  13.811  65.923  1.00  0.00    -0.485 NA 
HETATM   23  H   UNL     1      -8.920  13.464  65.030  1.00  0.00     0.000 HD 
BRANCH  22  24
HETATM   24  C   UNL     1      -9.427  15.205  65.994  1.00  0.00    -0.323 A  
HETATM   25  C   UNL     1     -10.538  15.877  65.473  1.00  0.00    -0.419 A  
HETATM   26  C   UNL     1     -10.672  17.265  65.587  1.00  0.00    -0.123 A  
HETATM   27  C   UNL     1      -9.686  18.022  66.219  1.00  0.00    -0.276 A  
HETATM   28  C   UNL     1      -9.847  19.441  66.366  1.00  0.00    -0.396 C  
HETATM   29  C   UNL     1      -8.553  17.375  66.716  1.00  0.00    -0.284 A  
HETATM   30  C   UNL     1      -8.421  15.983  66.592  1.00  0.00    -0.323 A  
HETATM   31  N   UNL     1      -9.987  20.587  66.489  1.00  0.00    -0.307 NA 
ENDBRANCH  22  24
ENDBRANCH  20  22
ENDBRANCH  11  12
ENDBRANCH   9  11
TORSDOF 4
ENDMDL
MODEL       30
REMARK 921   NORMALIZED FREE ENERGY PREDICTED BY IDOCK:   -7.15 KCAL/MOL
REMARK 922        TOTAL FREE ENERGY PREDICTED BY IDOCK:   -9.48 KCAL/MOL
REMARK 923 INTER-LIGAND FREE ENERGY PREDICTED BY IDOCK:   -9.00 KCAL/MOL
REMARK 924 INTRA-LIGAND FREE ENERGY PREDICTED BY IDOCK:   -0.48 KCAL/MOL
REMARK 927      BINDING AFFINITY PREDICTED BY RF-SCORE:    0.00 PKD
ROOT
HETATM    1  C   UNL     1     -11.929  12.532  69.105  1.00  0.00    -0.287 C  
HETATM    2  C   UNL     1     -11.023  11.354  69.290  1.00  0.00    -0.282 A  
HETATM    3  C   UNL     1     -11.384  10.548  70.396  1.00  0.00    -0.411 A  
HETATM    4  C   UNL     1     -10.737   9.356  70.691  1.00  0.00    -0.353 A  
HETATM    5  C   UNL     1      -9.719   8.930  69.853  1.00  0.00    -0.185 A  
HETATM    6  C   UNL     1     -11.150   8.582  71.830  1.00  0.00    -0.325 C  
HETATM    7  N   UNL     1     -11.509   7.990  72.753  1.00  0.00    -0.405 NA 
HETATM    8  C   UNL     1      -9.315   9.716  68.750  1.00  0.00    -0.148 A  
HETATM    9  C   UNL     1      -9.931  10.978  68.476  1.00  0.00    -0.193 A  
HETATM   10  C   UNL     1      -8.226   9.142  67.874  1.00  0.00    -0.112 C  
ENDROOT
BRANCH   9  11
HETATM   11  O   UNL     1      -9.244  11.727  67.528  1.00  0.00    -0.168 OA 
BRANCH  11  12
HETATM   12  C   UNL     1      -9.788  12.640  66.624  1.00  0.00    -0.244 A  
HETATM   13  C   UNL     1     -10.110  12.188  65.357  1.00  0.00    -0.255 A  
HETATM   14  C   UNL     1     -10.673  13.128  64.509  1.00  0.00    -0.398 A  
HETATM   15 BR   UNL     1      -9.797  10.409  64.792  1.00  0.00    -0.412 Br 
HETATM   16  N   UNL     1     -11.142  12.827  63.229  1.00  0.00    -0.677 NA 
HETATM   17  N   UNL     1     -10.888  14.401  64.874  1.00  0.00    -0.399 NA 
HETATM   18  H1  UNL     1     -11.556  13.519  62.605  1.00  0.00     0.000 HD 
HETATM   19  H2  UNL     1     -11.814  12.066  63.325  1.00  0.00     0.000 HD 
HETATM   20  C   UNL     1     -10.502  14.782  66.092  1.00  0.00    -0.304 A  
HETATM   21  N   UNL     1      -9.908  13.936  66.949  1.00  0.00    -0.260 NA 
BRANCH  20  22
HETATM   22  N   UNL     1     -10.746  16.074  66.575  1.00  0.00    -0.281 NA 
HETATM   23  H   UNL     1     -11.694  16.231  66.918  1.00  0.00     0.000 HD 
BRANCH  22  24
HETATM   24  C   UNL     1      -9.896  17.189  66.661  1.00  0.00    -0.289 A  
HETATM   25  C   UNL     1     -10.318  18.437  67.132  1.00  0.00    -0.419 A  
HETATM   26  C   UNL     1      -9.434  19.518  67.230  1.00  0.00    -0.422 A  
HETATM   27  C   UNL     1      -8.101  19.379  66.847  1.00  0.00    -0.298 A  
HETATM   28  C   UNL     1      -7.190  20.480  66.984  1.00  0.00    -0.317 C  
HETATM   29  C   UNL     1      -7.667  18.151  66.342  1.00  0.00    -0.295 A  
HETATM   30  C   UNL     1      -8.560  17.073  66.240  1.00  0.00    -0.298 A  
HETATM   31  N   UNL     1      -6.457  21.372  67.105  1.00  0.00    -0.562 NA 
ENDBRANCH  22  24
ENDBRANCH  20  22
ENDBRANCH  11  12
ENDBRANCH   9  11
TORSDOF 4
ENDMDL
MODEL       31
REMARK 921   NORMALIZED FREE ENERGY PREDICTED BY IDOCK:   -7.15 KCAL/MOL
REMARK 922        TOTAL FREE ENERGY PREDICTED BY IDOCK:   -9.47 KCAL/MOL
REMARK 923 INTER-LIGAND FREE ENERGY PREDICTED BY IDOCK:   -8.81 KCAL/MOL
REMARK 924 INTRA-LIGAND FREE ENERGY PREDICTED BY IDOCK:   -0.66 KCAL/MOL
REMARK 927      BINDING AFFINITY PREDICTED BY RF-SCORE:    0.00 PKD
ROOT
HETATM    1  C   UNL     1     -11.266   6.465  68.617  1.00  0.00    -0.338 C  
HETATM    2  C   UNL     1     -10.038   7.299  68.422  1.00  0.00    -0.188 A  
HETATM    3  C   UNL     1      -9.341   6.986  67.231  1.00  0.00    -0.153 A  
HETATM    4  C   UNL     1      -8.229   7.702  66.810  1.00  0.00    -0.124 A  
HETATM    5  C   UNL     1      -7.807   8.780  67.572  1.00  0.00    -0.102 A  
HETATM    6  C   UNL     1      -7.562   7.333  65.590  1.00  0.00    -0.089 C  
HETATM    7  N   UNL     1      -7.053   7.007  64.608  1.00  0.00    -0.058 NA 
HETATM    8  C   UNL     1      -8.465   9.113  68.778  1.00  0.00    -0.130 A  
HETATM    9  C   UNL     1      -9.569   8.340  69.255  1.00  0.00    -0.164 A  
HETATM   10  C   UNL     1      -7.954  10.331  69.511  1.00  0.00    -0.171 C  
ENDROOT
BRANCH   9  11
HETATM   11  O   UNL     1      -9.921   8.641  70.565  1.00  0.00    -0.179 OA 
BRANCH  11  12
HETATM   12  C   UNL     1     -11.048   9.345  70.993  1.00  0.00    -0.344 A  
HETATM   13  C   UNL     1     -11.957   8.688  71.802  1.00  0.00    -0.336 A  
HETATM   14  C   UNL     1     -13.043   9.441  72.220  1.00  0.00    -0.428 A  
HETATM   15 BR   UNL     1     -11.760   6.874  72.306  1.00  0.00    -0.269 Br 
HETATM   16  N   UNL     1     -14.008   8.971  73.112  1.00  0.00    -1.215 NA 
HETATM   17  N   UNL     1     -13.220  10.723  71.864  1.00  0.00    -0.466 NA 
HETATM   18  H1  UNL     1     -14.807   9.524  73.419  1.00  0.00     0.000 HD 
HETATM   19  H2  UNL     1     -13.518   8.656  73.950  1.00  0.00     0.000 HD 
HETATM   20  C   UNL     1     -12.333  11.276  71.035  1.00  0.00    -0.366 A  
HETATM   21  N   UNL     1     -11.284  10.590  70.554  1.00  0.00    -0.310 NA 
BRANCH  20  22
HETATM   22  N   UNL     1     -12.410  12.624  70.665  1.00  0.00    -0.342 NA 
HETATM   23  H   UNL     1     -12.813  13.240  71.370  1.00  0.00     0.000 HD 
BRANCH  22  24
HETATM   24  C   UNL     1     -12.020  13.264  69.476  1.00  0.00    -0.307 A  
HETATM   25  C   UNL     1     -11.790  12.578  68.279  1.00  0.00    -0.361 A  
HETATM   26  C   UNL     1     -11.430  13.254  67.108  1.00  0.00    -0.380 A  
HETATM   27  C   UNL     1     -11.280  14.640  67.107  1.00  0.00    -0.349 A  
HETATM   28  C   UNL     1     -10.947  15.332  65.894  1.00  0.00    -0.325 C  
HETATM   29  C   UNL     1     -11.473  15.341  68.300  1.00  0.00    -0.359 A  
HETATM   30  C   UNL     1     -11.827  14.656  69.474  1.00  0.00    -0.374 A  
HETATM   31  N   UNL     1     -10.686  15.885  64.908  1.00  0.00    -0.584 NA 
ENDBRANCH  22  24
ENDBRANCH  20  22
ENDBRANCH  11  12
ENDBRANCH   9  11
TORSDOF 4
ENDMDL
MODEL       32
REMARK 921   NORMALIZED FREE ENERGY PREDICTED BY IDOCK:   -7.12 KCAL/MOL
REMARK 922        TOTAL FREE ENERGY PREDICTED BY IDOCK:   -9.44 KCAL/MOL
REMARK 923 INTER-LIGAND FREE ENERGY PREDICTED BY IDOCK:   -8.95 KCAL/MOL
REMARK 924 INTRA-LIGAND FREE ENERGY PREDICTED BY IDOCK:   -0.50 KCAL/MOL
REMARK 927      BINDING AFFINITY PREDICTED BY RF-SCORE:    0.00 PKD
ROOT
HETATM    1  C   UNL     1      -9.102  10.722  68.819  1.00  0.00    -0.180 C  
HETATM    2  C   UNL     1      -9.932  10.071  69.882  1.00  0.00    -0.280 A  
HETATM    3  C   UNL     1      -9.210   9.119  70.641  1.00  0.00    -0.310 A  
HETATM    4  C   UNL     1      -9.761   8.468  71.735  1.00  0.00    -0.337 A  
HETATM    5  C   UNL     1     -11.056   8.784  72.112  1.00  0.00    -0.406 A  
HETATM    6  C   UNL     1      -8.976   7.510  72.466  1.00  0.00    -0.134 C  
HETATM    7  N   UNL     1      -8.316   6.747  73.026  1.00  0.00    -0.115 NA 
HETATM    8  C   UNL     1     -11.818   9.714  71.368  1.00  0.00    -0.484 A  
HETATM    9  C   UNL     1     -11.283  10.341  70.199  1.00  0.00    -0.318 A  
HETATM   10  C   UNL     1     -13.203  10.021  71.887  1.00  0.00    -0.557 C  
ENDROOT
BRANCH   9  11
HETATM   11  O   UNL     1     -12.242  11.013  69.451  1.00  0.00    -0.350 OA 
BRANCH  11  12
HETATM   12  C   UNL     1     -12.022  12.032  68.523  1.00  0.00    -0.214 A  
HETATM   13  C   UNL     1     -11.940  13.331  68.991  1.00  0.00    -0.293 A  
HETATM   14  C   UNL     1     -11.693  14.300  68.031  1.00  0.00    -0.351 A  
HETATM   15 BR   UNL     1     -12.164  13.782  70.815  1.00  0.00    -0.416 Br 
HETATM   16  N   UNL     1     -11.489  15.647  68.333  1.00  0.00    -0.367 NA 
HETATM   17  N   UNL     1     -11.550  14.014  66.728  1.00  0.00    -0.366 NA 
HETATM   18  H1  UNL     1     -11.308  16.360  67.627  1.00  0.00     0.000 HD 
HETATM   19  H2  UNL     1     -10.729  15.693  69.012  1.00  0.00     0.000 HD 
HETATM   20  C   UNL     1     -11.697  12.746  66.340  1.00  0.00    -0.403 A  
HETATM   21  N   UNL     1     -11.983  11.764  67.210  1.00  0.00    -0.607 NA 
BRANCH  20  22
HETATM   22  N   UNL     1     -11.501  12.353  65.010  1.00  0.00    -0.322 NA 
HETATM   23  H   UNL     1     -12.153  12.764  64.342  1.00  0.00     0.000 HD 
BRANCH  22  24
HETATM   24  C   UNL     1     -10.552  11.483  64.449  1.00  0.00    -0.334 A  
HETATM   25  C   UNL     1     -10.055  11.629  63.150  1.00  0.00    -0.409 A  
HETATM   26  C   UNL     1      -9.088  10.759  62.635  1.00  0.00    -0.343 A  
HETATM   27  C   UNL     1      -8.599   9.706  63.408  1.00  0.00    -0.213 A  
HETATM   28  C   UNL     1      -7.580   8.838  62.888  1.00  0.00    -0.110 C  
HETATM   29  C   UNL     1      -9.107   9.522  64.696  1.00  0.00    -0.263 A  
HETATM   30  C   UNL     1     -10.082  10.394  65.204  1.00  0.00    -0.379 A  
HETATM   31  N   UNL     1      -6.751   8.146  62.465  1.00  0.00    -0.086 NA 
ENDBRANCH  22  24
ENDBRANCH  20  22
ENDBRANCH  11  12
ENDBRANCH   9  11
TORSDOF 4
ENDMDL
MODEL       33
REMARK 921   NORMALIZED FREE ENERGY PREDICTED BY IDOCK:   -7.09 KCAL/MOL
REMARK 922        TOTAL FREE ENERGY PREDICTED BY IDOCK:   -9.41 KCAL/MOL
REMARK 923 INTER-LIGAND FREE ENERGY PREDICTED BY IDOCK:   -8.93 KCAL/MOL
REMARK 924 INTRA-LIGAND FREE ENERGY PREDICTED BY IDOCK:   -0.47 KCAL/MOL
REMARK 927      BINDING AFFINITY PREDICTED BY RF-SCORE:    0.00 PKD
ROOT
HETATM    1  C   UNL     1     -11.436  11.256  69.253  1.00  0.00    -0.369 C  
HETATM    2  C   UNL     1     -11.438  12.752  69.302  1.00  0.00    -0.349 A  
HETATM    3  C   UNL     1     -12.394  13.274  70.207  1.00  0.00    -0.334 A  
HETATM    4  C   UNL     1     -12.499  14.631  70.476  1.00  0.00    -0.408 A  
HETATM    5  C   UNL     1     -11.616  15.501  69.857  1.00  0.00    -0.348 A  
HETATM    6  C   UNL     1     -13.492  15.100  71.405  1.00  0.00    -0.481 C  
HETATM    7  N   UNL     1     -14.302  15.437  72.155  1.00  0.00    -0.570 NA 
HETATM    8  C   UNL     1     -10.661  15.021  68.932  1.00  0.00    -0.242 A  
HETATM    9  C   UNL     1     -10.588  13.633  68.596  1.00  0.00    -0.248 A  
HETATM   10  C   UNL     1      -9.717  16.045  68.345  1.00  0.00    -0.213 C  
ENDROOT
BRANCH   9  11
HETATM   11  O   UNL     1      -9.783  13.379  67.492  1.00  0.00    -0.215 OA 
BRANCH  11  12
HETATM   12  C   UNL     1     -10.060  12.516  66.431  1.00  0.00    -0.243 A  
HETATM   13  C   UNL     1     -10.606  13.055  65.280  1.00  0.00    -0.304 A  
HETATM   14  C   UNL     1     -10.835  12.158  64.248  1.00  0.00    -0.341 A  
HETATM   15 BR   UNL     1     -11.036  14.890  65.108  1.00  0.00    -0.439 Br 
HETATM   16  N   UNL     1     -11.294  12.539  62.986  1.00  0.00    -0.706 NA 
HETATM   17  N   UNL     1     -10.559  10.849  64.347  1.00  0.00    -0.339 NA 
HETATM   18  H1  UNL     1     -11.463  11.880  62.227  1.00  0.00     0.000 HD 
HETATM   19  H2  UNL     1     -10.653  13.250  62.633  1.00  0.00     0.000 HD 
HETATM   20  C   UNL     1     -10.087  10.389  65.506  1.00  0.00    -0.283 A  
HETATM   21  N   UNL     1      -9.885  11.193  66.562  1.00  0.00    -0.203 NA 
BRANCH  20  22
HETATM   22  N   UNL     1      -9.714   9.049  65.672  1.00  0.00    -0.462 NA 
HETATM   23  H   UNL     1      -9.285   8.619  64.854  1.00  0.00     0.000 HD 
BRANCH  22  24
HETATM   24  C   UNL     1      -9.838   8.202  66.787  1.00  0.00    -0.259 A  
HETATM   25  C   UNL     1     -10.800   7.191  66.875  1.00  0.00    -0.307 A  
HETATM   26  C   UNL     1     -10.875   6.349  67.990  1.00  0.00    -0.396 A  
HETATM   27  C   UNL     1      -9.990   6.506  69.056  1.00  0.00    -0.161 A  
HETATM   28  C   UNL     1     -10.048   5.615  70.181  1.00  0.00    -0.227 C  
HETATM   29  C   UNL     1      -9.044   7.531  69.003  1.00  0.00    -0.140 A  
HETATM   30  C   UNL     1      -8.979   8.377  67.885  1.00  0.00    -0.138 A  
HETATM   31  N   UNL     1     -10.094   4.887  71.083  1.00  0.00    -0.209 NA 
ENDBRANCH  22  24
ENDBRANCH  20  22
ENDBRANCH  11  12
ENDBRANCH   9  11
TORSDOF 4
ENDMDL
MODEL       34
REMARK 921   NORMALIZED FREE ENERGY PREDICTED BY IDOCK:   -7.06 KCAL/MOL
REMARK 922        TOTAL FREE ENERGY PREDICTED BY IDOCK:   -9.36 KCAL/MOL
REMARK 923 INTER-LIGAND FREE ENERGY PREDICTED BY IDOCK:   -8.46 KCAL/MOL
REMARK 924 INTRA-LIGAND FREE ENERGY PREDICTED BY IDOCK:   -0.90 KCAL/MOL
REMARK 927      BINDING AFFINITY PREDICTED BY RF-SCORE:    0.00 PKD
ROOT
HETATM    1  C   UNL     1      -8.879  12.959  67.899  1.00  0.00    -0.190 C  
HETATM    2  C   UNL     1      -9.426  12.443  66.604  1.00  0.00    -0.232 A  
HETATM    3  C   UNL     1     -10.400  13.299  66.036  1.00  0.00    -0.290 A  
HETATM    4  C   UNL     1     -10.968  13.058  64.793  1.00  0.00    -0.349 A  
HETATM    5  C   UNL     1     -10.542  11.954  64.073  1.00  0.00    -0.422 A  
HETATM    6  C   UNL     1     -11.953  13.966  64.269  1.00  0.00    -0.444 C  
HETATM    7  N   UNL     1     -12.741  14.715  63.885  1.00  0.00    -0.709 NA 
HETATM    8  C   UNL     1      -9.586  11.063  64.614  1.00  0.00    -0.297 A  
HETATM    9  C   UNL     1      -9.045  11.265  65.922  1.00  0.00    -0.204 A  
HETATM   10  C   UNL     1      -9.158   9.915  63.731  1.00  0.00    -0.293 C  
ENDROOT
BRANCH   9  11
HETATM   11  O   UNL     1      -8.332  10.170  66.393  1.00  0.00    -0.121 OA 
BRANCH  11  12
HETATM   12  C   UNL     1      -8.715   9.291  67.408  1.00  0.00    -0.118 A  
HETATM   13  C   UNL     1      -7.830   8.293  67.772  1.00  0.00    -0.114 A  
HETATM   14  C   UNL     1      -8.248   7.466  68.804  1.00  0.00    -0.129 A  
HETATM   15 BR   UNL     1      -6.158   8.042  66.922  1.00  0.00    -0.055 Br 
HETATM   16  N   UNL     1      -7.449   6.467  69.361  1.00  0.00    -0.092 NA 
HETATM   17  N   UNL     1      -9.436   7.606  69.412  1.00  0.00    -0.153 NA 
HETATM   18  H1  UNL     1      -7.757   5.859  70.119  1.00  0.00     0.000 HD 
HETATM   19  H2  UNL     1      -6.579   6.908  69.661  1.00  0.00     0.000 HD 
HETATM   20  C   UNL     1     -10.263   8.556  68.972  1.00  0.00    -0.207 A  
HETATM   21  N   UNL     1      -9.941   9.361  67.947  1.00  0.00    -0.173 NA 
BRANCH  20  22
HETATM   22  N   UNL     1     -11.493   8.810  69.592  1.00  0.00    -0.407 NA 
HETATM   23  H   UNL     1     -12.148   8.029  69.578  1.00  0.00     0.000 HD 
BRANCH  22  24
HETATM   24  C   UNL     1     -11.968   9.968  70.229  1.00  0.00    -0.187 A  
HETATM   25  C   UNL     1     -11.713  11.260  69.756  1.00  0.00    -0.422 A  
HETATM   26  C   UNL     1     -12.227  12.389  70.402  1.00  0.00    -0.370 A  
HETATM   27  C   UNL     1     -13.005  12.254  71.552  1.00  0.00    -0.390 A  
HETATM   28  C   UNL     1     -13.561  13.414  72.189  1.00  0.00    -0.567 C  
HETATM   29  C   UNL     1     -13.244  10.975  72.059  1.00  0.00    -0.447 A  
HETATM   30  C   UNL     1     -12.719   9.847  71.410  1.00  0.00    -0.503 A  
HETATM   31  N   UNL     1     -14.014  14.355  72.696  1.00  0.00    -0.575 NA 
ENDBRANCH  22  24
ENDBRANCH  20  22
ENDBRANCH  11  12
ENDBRANCH   9  11
TORSDOF 4
ENDMDL
MODEL       35
REMARK 921   NORMALIZED FREE ENERGY PREDICTED BY IDOCK:   -7.05 KCAL/MOL
REMARK 922        TOTAL FREE ENERGY PREDICTED BY IDOCK:   -9.35 KCAL/MOL
REMARK 923 INTER-LIGAND FREE ENERGY PREDICTED BY IDOCK:   -8.77 KCAL/MOL
REMARK 924 INTRA-LIGAND FREE ENERGY PREDICTED BY IDOCK:   -0.58 KCAL/MOL
REMARK 927      BINDING AFFINITY PREDICTED BY RF-SCORE:    0.00 PKD
ROOT
HETATM    1  C   UNL     1     -10.903  19.717  67.219  1.00  0.00    -0.519 C  
HETATM    2  C   UNL     1      -9.758  18.757  67.322  1.00  0.00    -0.335 A  
HETATM    3  C   UNL     1      -8.746  19.000  66.363  1.00  0.00    -0.322 A  
HETATM    4  C   UNL     1      -7.554  18.288  66.343  1.00  0.00    -0.285 A  
HETATM    5  C   UNL     1      -7.341  17.325  67.316  1.00  0.00    -0.189 A  
HETATM    6  C   UNL     1      -6.564  18.581  65.342  1.00  0.00    -0.222 C  
HETATM    7  N   UNL     1      -5.796  18.844  64.522  1.00  0.00    -0.338 NA 
HETATM    8  C   UNL     1      -8.335  17.039  68.279  1.00  0.00    -0.228 A  
HETATM    9  C   UNL     1      -9.593  17.720  68.267  1.00  0.00    -0.312 A  
HETATM   10  C   UNL     1      -7.987  16.003  69.322  1.00  0.00    -0.217 C  
ENDROOT
BRANCH   9  11
HETATM   11  O   UNL     1     -10.537  17.138  69.105  1.00  0.00    -0.324 OA 
BRANCH  11  12
HETATM   12  C   UNL     1     -11.153  15.896  68.943  1.00  0.00    -0.316 A  
HETATM   13  C   UNL     1     -11.567  15.223  70.078  1.00  0.00    -0.305 A  
HETATM   14  C   UNL     1     -12.198  14.008  69.858  1.00  0.00    -0.340 A  
HETATM   15 BR   UNL     1     -11.288  15.888  71.827  1.00  0.00    -0.241 Br 
HETATM   16  N   UNL     1     -12.761  13.238  70.877  1.00  0.00    -0.293 NA 
HETATM   17  N   UNL     1     -12.393  13.500  68.631  1.00  0.00    -0.107 NA 
HETATM   18  H1  UNL     1     -13.225  12.344  70.716  1.00  0.00     0.000 HD 
HETATM   19  H2  UNL     1     -13.420  13.835  71.378  1.00  0.00     0.000 HD 
HETATM   20  C   UNL     1     -11.917  14.178  67.585  1.00  0.00    -0.370 A  
HETATM   21  N   UNL     1     -11.256  15.337  67.728  1.00  0.00    -0.320 NA 
BRANCH  20  22
HETATM   22  N   UNL     1     -12.133  13.750  66.269  1.00  0.00    -0.426 NA 
HETATM   23  H   UNL     1     -12.921  14.193  65.798  1.00  0.00     0.000 HD 
BRANCH  22  24
HETATM   24  C   UNL     1     -11.436  12.809  65.493  1.00  0.00    -0.337 A  
HETATM   25  C   UNL     1     -11.403  12.845  64.095  1.00  0.00    -0.442 A  
HETATM   26  C   UNL     1     -10.675  11.906  63.357  1.00  0.00    -0.476 A  
HETATM   27  C   UNL     1      -9.966  10.894  64.002  1.00  0.00    -0.403 A  
HETATM   28  C   UNL     1      -9.191   9.955  63.241  1.00  0.00    -0.238 C  
HETATM   29  C   UNL     1     -10.013  10.819  65.396  1.00  0.00    -0.330 A  
HETATM   30  C   UNL     1     -10.751  11.760  66.130  1.00  0.00    -0.320 A  
HETATM   31  N   UNL     1      -8.560   9.204  62.621  1.00  0.00    -0.215 NA 
ENDBRANCH  22  24
ENDBRANCH  20  22
ENDBRANCH  11  12
ENDBRANCH   9  11
TORSDOF 4
ENDMDL
MODEL       36
REMARK 921   NORMALIZED FREE ENERGY PREDICTED BY IDOCK:   -7.04 KCAL/MOL
REMARK 922        TOTAL FREE ENERGY PREDICTED BY IDOCK:   -9.35 KCAL/MOL
REMARK 923 INTER-LIGAND FREE ENERGY PREDICTED BY IDOCK:   -8.84 KCAL/MOL
REMARK 924 INTRA-LIGAND FREE ENERGY PREDICTED BY IDOCK:   -0.51 KCAL/MOL
REMARK 927      BINDING AFFINITY PREDICTED BY RF-SCORE:    0.00 PKD
ROOT
HETATM    1  C   UNL     1      -8.252  13.337  67.172  1.00  0.00    -0.123 C  
HETATM    2  C   UNL     1      -9.175  14.376  66.613  1.00  0.00    -0.283 A  
HETATM    3  C   UNL     1      -8.817  15.692  66.990  1.00  0.00    -0.250 A  
HETATM    4  C   UNL     1      -9.482  16.811  66.506  1.00  0.00    -0.287 A  
HETATM    5  C   UNL     1     -10.514  16.629  65.601  1.00  0.00    -0.313 A  
HETATM    6  C   UNL     1      -9.071  18.124  66.927  1.00  0.00    -0.274 C  
HETATM    7  N   UNL     1      -8.713  19.159  67.289  1.00  0.00    -0.282 NA 
HETATM    8  C   UNL     1     -10.915  15.329  65.215  1.00  0.00    -0.403 A  
HETATM    9  C   UNL     1     -10.281  14.168  65.759  1.00  0.00    -0.332 A  
HETATM   10  C   UNL     1     -12.021  15.240  64.190  1.00  0.00    -0.145 C  
ENDROOT
BRANCH   9  11
HETATM   11  O   UNL     1     -10.964  12.991  65.479  1.00  0.00    -0.271 OA 
BRANCH  11  12
HETATM   12  C   UNL     1     -10.884  11.786  66.178  1.00  0.00    -0.291 A  
HETATM   13  C   UNL     1     -10.275  10.711  65.556  1.00  0.00    -0.262 A  
HETATM   14  C   UNL     1     -10.197   9.548  66.306  1.00  0.00    -0.220 A  
HETATM   15 BR   UNL     1      -9.599  10.796  63.791  1.00  0.00    -0.373 Br 
HETATM   16  N   UNL     1      -9.537   8.397  65.873  1.00  0.00    -0.456 NA 
HETATM   17  N   UNL     1     -10.685   9.451  67.552  1.00  0.00    -0.268 NA 
HETATM   18  H1  UNL     1      -9.480   7.541  66.425  1.00  0.00     0.000 HD 
HETATM   19  H2  UNL     1      -8.583   8.667  65.635  1.00  0.00     0.000 HD 
HETATM   20  C   UNL     1     -11.310  10.511  68.069  1.00  0.00    -0.246 A  
HETATM   21  N   UNL     1     -11.463  11.654  67.381  1.00  0.00    -0.453 NA 
BRANCH  20  22
HETATM   22  N   UNL     1     -11.792  10.515  69.384  1.00  0.00    -0.478 NA 
HETATM   23  H   UNL     1     -12.475  11.244  69.588  1.00  0.00     0.000 HD 
BRANCH  22  24
HETATM   24  C   UNL     1     -11.485   9.675  70.468  1.00  0.00    -0.285 A  
HETATM   25  C   UNL     1     -12.458   8.987  71.200  1.00  0.00    -0.285 A  
HETATM   26  C   UNL     1     -12.111   8.137  72.257  1.00  0.00    -0.419 A  
HETATM   27  C   UNL     1     -10.775   7.962  72.615  1.00  0.00    -0.411 A  
HETATM   28  C   UNL     1     -10.423   7.060  73.676  1.00  0.00    -0.376 C  
HETATM   29  C   UNL     1      -9.791   8.665  71.919  1.00  0.00    -0.384 A  
HETATM   30  C   UNL     1     -10.145   9.522  70.865  1.00  0.00    -0.330 A  
HETATM   31  N   UNL     1     -10.144   6.324  74.528  1.00  0.00    -0.337 NA 
ENDBRANCH  22  24
ENDBRANCH  20  22
ENDBRANCH  11  12
ENDBRANCH   9  11
TORSDOF 4
ENDMDL
MODEL       37
REMARK 921   NORMALIZED FREE ENERGY PREDICTED BY IDOCK:   -7.00 KCAL/MOL
REMARK 922        TOTAL FREE ENERGY PREDICTED BY IDOCK:   -9.29 KCAL/MOL
REMARK 923 INTER-LIGAND FREE ENERGY PREDICTED BY IDOCK:   -8.41 KCAL/MOL
REMARK 924 INTRA-LIGAND FREE ENERGY PREDICTED BY IDOCK:   -0.88 KCAL/MOL
REMARK 927      BINDING AFFINITY PREDICTED BY RF-SCORE:    0.00 PKD
ROOT
HETATM    1  C   UNL     1     -11.651  12.123  65.817  1.00  0.00    -0.414 C  
HETATM    2  C   UNL     1     -10.524  11.357  66.437  1.00  0.00    -0.299 A  
HETATM    3  C   UNL     1      -9.480  11.075  65.524  1.00  0.00    -0.250 A  
HETATM    4  C   UNL     1      -8.299  10.457  65.912  1.00  0.00    -0.152 A  
HETATM    5  C   UNL     1      -8.129  10.133  67.248  1.00  0.00    -0.114 A  
HETATM    6  C   UNL     1      -7.275  10.196  64.937  1.00  0.00    -0.131 C  
HETATM    7  N   UNL     1      -6.478  10.002  64.125  1.00  0.00    -0.127 NA 
HETATM    8  C   UNL     1      -9.156  10.380  68.188  1.00  0.00    -0.142 A  
HETATM    9  C   UNL     1     -10.403  10.954  67.786  1.00  0.00    -0.187 A  
HETATM   10  C   UNL     1      -8.854  10.029  69.626  1.00  0.00    -0.217 C  
ENDROOT
BRANCH   9  11
HETATM   11  O   UNL     1     -11.380  10.884  68.772  1.00  0.00    -0.248 OA 
BRANCH  11  12
HETATM   12  C   UNL     1     -11.911  11.945  69.506  1.00  0.00    -0.331 A  
HETATM   13  C   UNL     1     -12.491  11.665  70.729  1.00  0.00    -0.330 A  
HETATM   14  C   UNL     1     -12.978  12.758  71.429  1.00  0.00    -0.266 A  
HETATM   15 BR   UNL     1     -12.638   9.908  71.417  1.00  0.00    -0.534 Br 
HETATM   16  N   UNL     1     -13.511  12.673  72.715  1.00  0.00    -0.573 NA 
HETATM   17  N   UNL     1     -12.906  14.013  70.958  1.00  0.00    -0.341 NA 
HETATM   18  H1  UNL     1     -13.869  13.478  73.230  1.00  0.00     0.000 HD 
HETATM   19  H2  UNL     1     -12.809  12.225  73.305  1.00  0.00     0.000 HD 
HETATM   20  C   UNL     1     -12.383  14.204  69.746  1.00  0.00    -0.299 A  
HETATM   21  N   UNL     1     -11.936  13.185  68.994  1.00  0.00    -0.308 NA 
BRANCH  20  22
HETATM   22  N   UNL     1     -12.214  15.486  69.209  1.00  0.00    -0.590 NA 
HETATM   23  H   UNL     1     -12.970  16.140  69.413  1.00  0.00     0.000 HD 
BRANCH  22  24
HETATM   24  C   UNL     1     -11.170  16.016  68.432  1.00  0.00    -0.364 A  
HETATM   25  C   UNL     1     -10.943  15.646  67.102  1.00  0.00    -0.270 A  
HETATM   26  C   UNL     1      -9.909  16.217  66.352  1.00  0.00    -0.310 A  
HETATM   27  C   UNL     1      -9.064  17.170  66.920  1.00  0.00    -0.254 A  
HETATM   28  C   UNL     1      -8.029  17.779  66.134  1.00  0.00    -0.202 C  
HETATM   29  C   UNL     1      -9.252  17.528  68.256  1.00  0.00    -0.277 A  
HETATM   30  C   UNL     1     -10.287  16.947  69.006  1.00  0.00    -0.333 A  
HETATM   31  N   UNL     1      -7.199  18.274  65.491  1.00  0.00    -0.546 NA 
ENDBRANCH  22  24
ENDBRANCH  20  22
ENDBRANCH  11  12
ENDBRANCH   9  11
TORSDOF 4
ENDMDL
MODEL       38
REMARK 921   NORMALIZED FREE ENERGY PREDICTED BY IDOCK:   -6.99 KCAL/MOL
REMARK 922        TOTAL FREE ENERGY PREDICTED BY IDOCK:   -9.28 KCAL/MOL
REMARK 923 INTER-LIGAND FREE ENERGY PREDICTED BY IDOCK:   -8.26 KCAL/MOL
REMARK 924 INTRA-LIGAND FREE ENERGY PREDICTED BY IDOCK:   -1.02 KCAL/MOL
REMARK 927      BINDING AFFINITY PREDICTED BY RF-SCORE:    0.00 PKD
ROOT
HETATM    1  C   UNL     1     -10.669   7.333  67.072  1.00  0.00    -0.406 C  
HETATM    2  C   UNL     1     -10.142   8.194  68.178  1.00  0.00    -0.237 A  
HETATM    3  C   UNL     1     -10.732   7.905  69.432  1.00  0.00    -0.174 A  
HETATM    4  C   UNL     1     -10.322   8.520  70.607  1.00  0.00    -0.232 A  
HETATM    5  C   UNL     1      -9.277   9.427  70.550  1.00  0.00    -0.314 A  
HETATM    6  C   UNL     1     -10.962   8.184  71.850  1.00  0.00    -0.275 C  
HETATM    7  N   UNL     1     -11.501   7.889  72.827  1.00  0.00    -0.399 NA 
HETATM    8  C   UNL     1      -8.675   9.758  69.314  1.00  0.00    -0.165 A  
HETATM    9  C   UNL     1      -9.135   9.181  68.089  1.00  0.00    -0.132 A  
HETATM   10  C   UNL     1      -7.515  10.726  69.366  1.00  0.00    -0.124 C  
ENDROOT
BRANCH   9  11
HETATM   11  O   UNL     1      -8.617   9.806  66.962  1.00  0.00    -0.124 OA 
BRANCH  11  12
HETATM   12  C   UNL     1      -9.330  10.498  65.982  1.00  0.00    -0.178 A  
HETATM   13  C   UNL     1      -9.245  10.049  64.677  1.00  0.00    -0.258 A  
HETATM   14  C   UNL     1      -9.995  10.755  63.749  1.00  0.00    -0.351 A  
HETATM   15 BR   UNL     1      -8.170   8.579  64.164  1.00  0.00    -0.106 Br 
HETATM   16  N   UNL     1     -10.102  10.388  62.407  1.00  0.00    -0.717 NA 
HETATM   17  N   UNL     1     -10.751  11.814  64.078  1.00  0.00    -0.341 NA 
HETATM   18  H1  UNL     1     -10.653  10.908  61.724  1.00  0.00     0.000 HD 
HETATM   19  H2  UNL     1     -10.424   9.420  62.382  1.00  0.00     0.000 HD 
HETATM   20  C   UNL     1     -10.741  12.226  65.347  1.00  0.00    -0.284 A  
HETATM   21  N   UNL     1     -10.002  11.618  66.288  1.00  0.00    -0.211 NA 
BRANCH  20  22
HETATM   22  N   UNL     1     -11.549  13.282  65.786  1.00  0.00    -0.325 NA 
HETATM   23  H   UNL     1     -12.550  13.141  65.651  1.00  0.00     0.000 HD 
BRANCH  22  24
HETATM   24  C   UNL     1     -11.202  14.506  66.383  1.00  0.00    -0.341 A  
HETATM   25  C   UNL     1     -10.540  15.530  65.697  1.00  0.00    -0.389 A  
HETATM   26  C   UNL     1     -10.235  16.746  66.318  1.00  0.00    -0.341 A  
HETATM   27  C   UNL     1     -10.578  16.966  67.651  1.00  0.00    -0.325 A  
HETATM   28  C   UNL     1     -10.296  18.230  68.272  1.00  0.00    -0.357 C  
HETATM   29  C   UNL     1     -11.210  15.945  68.364  1.00  0.00    -0.368 A  
HETATM   30  C   UNL     1     -11.506  14.724  67.738  1.00  0.00    -0.363 A  
HETATM   31  N   UNL     1     -10.073  19.256  68.765  1.00  0.00    -0.428 NA 
ENDBRANCH  22  24
ENDBRANCH  20  22
ENDBRANCH  11  12
ENDBRANCH   9  11
TORSDOF 4
ENDMDL
MODEL       39
REMARK 921   NORMALIZED FREE ENERGY PREDICTED BY IDOCK:   -6.99 KCAL/MOL
REMARK 922        TOTAL FREE ENERGY PREDICTED BY IDOCK:   -9.28 KCAL/MOL
REMARK 923 INTER-LIGAND FREE ENERGY PREDICTED BY IDOCK:   -9.23 KCAL/MOL
REMARK 924 INTRA-LIGAND FREE ENERGY PREDICTED BY IDOCK:   -0.05 KCAL/MOL
REMARK 927      BINDING AFFINITY PREDICTED BY RF-SCORE:    0.00 PKD
ROOT
HETATM    1  C   UNL     1     -11.324  16.061  67.780  1.00  0.00    -0.167 C  
HETATM    2  C   UNL     1     -11.453  14.607  67.447  1.00  0.00    -0.384 A  
HETATM    3  C   UNL     1     -11.904  14.382  66.124  1.00  0.00    -0.391 A  
HETATM    4  C   UNL     1     -12.003  13.110  65.579  1.00  0.00    -0.457 A  
HETATM    5  C   UNL     1     -11.619  12.026  66.351  1.00  0.00    -0.381 A  
HETATM    6  C   UNL     1     -12.469  12.946  64.228  1.00  0.00    -0.349 C  
HETATM    7  N   UNL     1     -12.848  12.855  63.142  1.00  0.00    -0.413 NA 
HETATM    8  C   UNL     1     -11.183  12.207  67.683  1.00  0.00    -0.345 A  
HETATM    9  C   UNL     1     -11.141  13.507  68.277  1.00  0.00    -0.261 A  
HETATM   10  C   UNL     1     -10.746  10.965  68.426  1.00  0.00    -0.240 C  
ENDROOT
BRANCH   9  11
HETATM   11  O   UNL     1     -10.945  13.474  69.653  1.00  0.00    -0.069 OA 
BRANCH  11  12
HETATM   12  C   UNL     1     -11.913  13.256  70.634  1.00  0.00    -0.185 A  
HETATM   13  C   UNL     1     -12.376  14.347  71.346  1.00  0.00    -0.360 A  
HETATM   14  C   UNL     1     -13.356  14.078  72.288  1.00  0.00    -0.478 A  
HETATM   15 BR   UNL     1     -11.719  16.102  71.077  1.00  0.00    -0.328 Br 
HETATM   16  N   UNL     1     -14.002  15.068  73.031  1.00  0.00    -0.504 NA 
HETATM   17  N   UNL     1     -13.828  12.843  72.515  1.00  0.00    -0.557 NA 
HETATM   18  H1  UNL     1     -14.722  14.870  73.725  1.00  0.00     0.000 HD 
HETATM   19  H2  UNL     1     -14.396  15.735  72.368  1.00  0.00     0.000 HD 
HETATM   20  C   UNL     1     -13.295  11.828  71.832  1.00  0.00    -0.296 A  
HETATM   21  N   UNL     1     -12.311  12.011  70.937  1.00  0.00    -0.351 NA 
BRANCH  20  22
HETATM   22  N   UNL     1     -13.773  10.518  71.962  1.00  0.00    -0.292 NA 
HETATM   23  H   UNL     1     -14.781  10.441  72.096  1.00  0.00     0.000 HD 
BRANCH  22  24
HETATM   24  C   UNL     1     -13.086   9.293  71.939  1.00  0.00    -0.415 A  
HETATM   25  C   UNL     1     -11.717   9.180  72.205  1.00  0.00    -0.305 A  
HETATM   26  C   UNL     1     -11.073   7.938  72.200  1.00  0.00    -0.351 A  
HETATM   27  C   UNL     1     -11.784   6.772  71.916  1.00  0.00    -0.349 A  
HETATM   28  C   UNL     1     -11.125   5.497  71.948  1.00  0.00    -0.166 C  
HETATM   29  C   UNL     1     -13.144   6.867  71.615  1.00  0.00    -0.338 A  
HETATM   30  C   UNL     1     -13.783   8.117  71.615  1.00  0.00    -0.403 A  
HETATM   31  N   UNL     1     -10.589   4.468  71.984  1.00  0.00    -0.097 NA 
ENDBRANCH  22  24
ENDBRANCH  20  22
ENDBRANCH  11  12
ENDBRANCH   9  11
TORSDOF 4
ENDMDL
MODEL       40
REMARK 921   NORMALIZED FREE ENERGY PREDICTED BY IDOCK:   -6.96 KCAL/MOL
REMARK 922        TOTAL FREE ENERGY PREDICTED BY IDOCK:   -9.24 KCAL/MOL
REMARK 923 INTER-LIGAND FREE ENERGY PREDICTED BY IDOCK:   -8.78 KCAL/MOL
REMARK 924 INTRA-LIGAND FREE ENERGY PREDICTED BY IDOCK:   -0.46 KCAL/MOL
REMARK 927      BINDING AFFINITY PREDICTED BY RF-SCORE:    0.00 PKD
ROOT
HETATM    1  C   UNL     1      -8.058  14.975  68.255  1.00  0.00    -0.133 C  
HETATM    2  C   UNL     1      -8.373  16.436  68.349  1.00  0.00    -0.191 A  
HETATM    3  C   UNL     1      -7.280  17.208  68.808  1.00  0.00    -0.232 A  
HETATM    4  C   UNL     1      -7.326  18.594  68.880  1.00  0.00    -0.301 A  
HETATM    5  C   UNL     1      -8.476  19.241  68.457  1.00  0.00    -0.401 A  
HETATM    6  C   UNL     1      -6.182  19.323  69.356  1.00  0.00    -0.290 C  
HETATM    7  N   UNL     1      -5.245  19.872  69.745  1.00  0.00    -0.190 NA 
HETATM    8  C   UNL     1      -9.596  18.505  68.011  1.00  0.00    -0.337 A  
HETATM    9  C   UNL     1      -9.584  17.075  67.997  1.00  0.00    -0.260 A  
HETATM   10  C   UNL     1     -10.784  19.307  67.532  1.00  0.00    -0.571 C  
ENDROOT
BRANCH   9  11
HETATM   11  O   UNL     1     -10.840  16.519  67.784  1.00  0.00    -0.341 OA 
BRANCH  11  12
HETATM   12  C   UNL     1     -11.209  15.184  67.959  1.00  0.00    -0.323 A  
HETATM   13  C   UNL     1     -11.441  14.737  69.247  1.00  0.00    -0.296 A  
HETATM   14  C   UNL     1     -11.832  13.412  69.361  1.00  0.00    -0.335 A  
HETATM   15 BR   UNL     1     -11.230  15.839  70.771  1.00  0.00    -0.408 Br 
HETATM   16  N   UNL     1     -12.195  12.818  70.571  1.00  0.00    -0.419 NA 
HETATM   17  N   UNL     1     -11.971  12.600  68.301  1.00  0.00    -0.290 NA 
HETATM   18  H1  UNL     1     -12.482  11.844  70.655  1.00  0.00     0.000 HD 
HETATM   19  H2  UNL     1     -12.938  13.388  70.976  1.00  0.00     0.000 HD 
HETATM   20  C   UNL     1     -11.675  13.083  67.094  1.00  0.00    -0.382 A  
HETATM   21  N   UNL     1     -11.246  14.343  66.915  1.00  0.00    -0.324 NA 
BRANCH  20  22
HETATM   22  N   UNL     1     -11.853  12.324  65.931  1.00  0.00    -0.546 NA 
HETATM   23  H   UNL     1     -12.804  12.321  65.562  1.00  0.00     0.000 HD 
BRANCH  22  24
HETATM   24  C   UNL     1     -10.932  11.564  65.191  1.00  0.00    -0.234 A  
HETATM   25  C   UNL     1     -10.684  11.776  63.831  1.00  0.00    -0.457 A  
HETATM   26  C   UNL     1      -9.738  11.017  63.133  1.00  0.00    -0.398 A  
HETATM   27  C   UNL     1      -9.020  10.013  63.781  1.00  0.00    -0.274 A  
HETATM   28  C   UNL     1      -8.024   9.262  63.069  1.00  0.00    -0.146 C  
HETATM   29  C   UNL     1      -9.276   9.761  65.130  1.00  0.00    -0.297 A  
HETATM   30  C   UNL     1     -10.232  10.522  65.823  1.00  0.00    -0.310 A  
HETATM   31  N   UNL     1      -7.215   8.664  62.491  1.00  0.00    -0.097 NA 
ENDBRANCH  22  24
ENDBRANCH  20  22
ENDBRANCH  11  12
ENDBRANCH   9  11
TORSDOF 4
ENDMDL
MODEL       41
REMARK 921   NORMALIZED FREE ENERGY PREDICTED BY IDOCK:   -6.95 KCAL/MOL
REMARK 922        TOTAL FREE ENERGY PREDICTED BY IDOCK:   -9.23 KCAL/MOL
REMARK 923 INTER-LIGAND FREE ENERGY PREDICTED BY IDOCK:   -8.36 KCAL/MOL
REMARK 924 INTRA-LIGAND FREE ENERGY PREDICTED BY IDOCK:   -0.87 KCAL/MOL
REMARK 927      BINDING AFFINITY PREDICTED BY RF-SCORE:    0.00 PKD
ROOT
HETATM    1  C   UNL     1      -6.576  12.835  67.366  1.00  0.00    -0.140 C  
HETATM    2  C   UNL     1      -7.426  11.721  67.893  1.00  0.00    -0.108 A  
HETATM    3  C   UNL     1      -6.871  11.094  69.034  1.00  0.00    -0.092 A  
HETATM    4  C   UNL     1      -7.540  10.101  69.737  1.00  0.00    -0.175 A  
HETATM    5  C   UNL     1      -8.808   9.733  69.319  1.00  0.00    -0.171 A  
HETATM    6  C   UNL     1      -6.922   9.502  70.889  1.00  0.00    -0.067 C  
HETATM    7  N   UNL     1      -6.394   9.045  71.807  1.00  0.00    -0.159 NA 
HETATM    8  C   UNL     1      -9.389  10.321  68.172  1.00  0.00    -0.144 A  
HETATM    9  C   UNL     1      -8.682  11.296  67.401  1.00  0.00    -0.139 A  
HETATM   10  C   UNL     1     -10.793   9.881  67.825  1.00  0.00    -0.321 C  
ENDROOT
BRANCH   9  11
HETATM   11  O   UNL     1      -9.283  11.569  66.179  1.00  0.00    -0.211 OA 
BRANCH  11  12
HETATM   12  C   UNL     1     -10.113  12.647  65.872  1.00  0.00    -0.264 A  
HETATM   13  C   UNL     1     -10.741  12.656  64.640  1.00  0.00    -0.326 A  
HETATM   14  C   UNL     1     -11.576  13.736  64.399  1.00  0.00    -0.395 A  
HETATM   15 BR   UNL     1     -10.480  11.300  63.346  1.00  0.00    -0.378 Br 
HETATM   16  N   UNL     1     -12.359  13.861  63.250  1.00  0.00    -1.148 NA 
HETATM   17  N   UNL     1     -11.766  14.722  65.289  1.00  0.00    -0.339 NA 
HETATM   18  H1  UNL     1     -12.973  14.656  63.072  1.00  0.00     0.000 HD 
HETATM   19  H2  UNL     1     -12.927  13.017  63.177  1.00  0.00     0.000 HD 
HETATM   20  C   UNL     1     -11.085  14.678  66.434  1.00  0.00    -0.334 A  
HETATM   21  N   UNL     1     -10.224  13.686  66.714  1.00  0.00    -0.264 NA 
BRANCH  20  22
HETATM   22  N   UNL     1     -11.271  15.632  67.442  1.00  0.00    -0.271 NA 
HETATM   23  H   UNL     1     -11.210  16.602  67.131  1.00  0.00     0.000 HD 
BRANCH  22  24
HETATM   24  C   UNL     1     -11.530  15.469  68.813  1.00  0.00    -0.355 A  
HETATM   25  C   UNL     1     -11.032  16.334  69.793  1.00  0.00    -0.354 A  
HETATM   26  C   UNL     1     -11.334  16.155  71.148  1.00  0.00    -0.368 A  
HETATM   27  C   UNL     1     -12.139  15.093  71.559  1.00  0.00    -0.407 A  
HETATM   28  C   UNL     1     -12.477  14.936  72.946  1.00  0.00    -0.369 C  
HETATM   29  C   UNL     1     -12.620  14.199  70.600  1.00  0.00    -0.421 A  
HETATM   30  C   UNL     1     -12.307  14.379  69.244  1.00  0.00    -0.188 A  
HETATM   31  N   UNL     1     -12.752  14.819  74.067  1.00  0.00    -0.453 NA 
ENDBRANCH  22  24
ENDBRANCH  20  22
ENDBRANCH  11  12
ENDBRANCH   9  11
TORSDOF 4
ENDMDL
MODEL       42
REMARK 921   NORMALIZED FREE ENERGY PREDICTED BY IDOCK:   -6.88 KCAL/MOL
REMARK 922        TOTAL FREE ENERGY PREDICTED BY IDOCK:   -9.15 KCAL/MOL
REMARK 923 INTER-LIGAND FREE ENERGY PREDICTED BY IDOCK:   -8.98 KCAL/MOL
REMARK 924 INTRA-LIGAND FREE ENERGY PREDICTED BY IDOCK:   -0.17 KCAL/MOL
REMARK 927      BINDING AFFINITY PREDICTED BY RF-SCORE:    0.00 PKD
ROOT
HETATM    1  C   UNL     1     -12.142  14.447  70.026  1.00  0.00    -0.401 C  
HETATM    2  C   UNL     1     -11.569  15.094  68.803  1.00  0.00    -0.369 A  
HETATM    3  C   UNL     1     -11.221  16.450  69.007  1.00  0.00    -0.291 A  
HETATM    4  C   UNL     1     -10.588  17.210  68.034  1.00  0.00    -0.374 A  
HETATM    5  C   UNL     1     -10.261  16.607  66.830  1.00  0.00    -0.291 A  
HETATM    6  C   UNL     1     -10.261  18.585  68.302  1.00  0.00    -0.376 C  
HETATM    7  N   UNL     1     -10.016  19.684  68.554  1.00  0.00    -0.425 NA 
HETATM    8  C   UNL     1     -10.609  15.260  66.580  1.00  0.00    -0.304 A  
HETATM    9  C   UNL     1     -11.321  14.488  67.550  1.00  0.00    -0.340 A  
HETATM   10  C   UNL     1     -10.169  14.685  65.254  1.00  0.00    -0.421 C  
ENDROOT
BRANCH   9  11
HETATM   11  O   UNL     1     -11.807  13.288  67.044  1.00  0.00    -0.365 OA 
BRANCH  11  12
HETATM   12  C   UNL     1     -11.451  12.001  67.449  1.00  0.00    -0.336 A  
HETATM   13  C   UNL     1     -10.994  11.119  66.487  1.00  0.00    -0.209 A  
HETATM   14  C   UNL     1     -10.629   9.863  66.947  1.00  0.00    -0.178 A  
HETATM   15 BR   UNL     1     -10.882  11.569  64.652  1.00  0.00    -0.355 Br 
HETATM   16  N   UNL     1     -10.062   8.881  66.135  1.00  0.00    -0.408 NA 
HETATM   17  N   UNL     1     -10.716   9.508  68.238  1.00  0.00    -0.218 NA 
HETATM   18  H1  UNL     1      -9.794   7.957  66.473  1.00  0.00     0.000 HD 
HETATM   19  H2  UNL     1      -9.240   9.292  65.692  1.00  0.00     0.000 HD 
HETATM   20  C   UNL     1     -11.219  10.391  69.103  1.00  0.00    -0.246 A  
HETATM   21  N   UNL     1     -11.636  11.608  68.718  1.00  0.00    -0.285 NA 
BRANCH  20  22
HETATM   22  N   UNL     1     -11.286  10.123  70.476  1.00  0.00    -0.317 NA 
HETATM   23  H   UNL     1     -11.437  10.942  71.066  1.00  0.00     0.000 HD 
BRANCH  22  24
HETATM   24  C   UNL     1     -11.179   8.907  71.173  1.00  0.00    -0.284 A  
HETATM   25  C   UNL     1     -10.141   8.629  72.069  1.00  0.00    -0.401 A  
HETATM   26  C   UNL     1     -10.083   7.417  72.765  1.00  0.00    -0.272 A  
HETATM   27  C   UNL     1     -11.061   6.442  72.573  1.00  0.00    -0.298 A  
HETATM   28  C   UNL     1     -11.017   5.216  73.318  1.00  0.00    -0.314 C  
HETATM   29  C   UNL     1     -12.087   6.686  71.658  1.00  0.00    -0.404 A  
HETATM   30  C   UNL     1     -12.136   7.902  70.956  1.00  0.00    -0.246 A  
HETATM   31  N   UNL     1     -10.980   4.230  73.929  1.00  0.00    -0.251 NA 
ENDBRANCH  22  24
ENDBRANCH  20  22
ENDBRANCH  11  12
ENDBRANCH   9  11
TORSDOF 4
ENDMDL
MODEL       43
REMARK 921   NORMALIZED FREE ENERGY PREDICTED BY IDOCK:   -6.88 KCAL/MOL
REMARK 922        TOTAL FREE ENERGY PREDICTED BY IDOCK:   -9.15 KCAL/MOL
REMARK 923 INTER-LIGAND FREE ENERGY PREDICTED BY IDOCK:   -8.12 KCAL/MOL
REMARK 924 INTRA-LIGAND FREE ENERGY PREDICTED BY IDOCK:   -1.03 KCAL/MOL
REMARK 927      BINDING AFFINITY PREDICTED BY RF-SCORE:    0.00 PKD
ROOT
HETATM    1  C   UNL     1     -12.005  14.384  67.664  1.00  0.00    -0.378 C  
HETATM    2  C   UNL     1     -12.121  13.673  68.976  1.00  0.00    -0.348 A  
HETATM    3  C   UNL     1     -12.539  14.522  70.029  1.00  0.00    -0.281 A  
HETATM    4  C   UNL     1     -12.800  14.048  71.307  1.00  0.00    -0.430 A  
HETATM    5  C   UNL     1     -12.674  12.690  71.549  1.00  0.00    -0.326 A  
HETATM    6  C   UNL     1     -13.221  14.961  72.335  1.00  0.00    -0.383 C  
HETATM    7  N   UNL     1     -13.555  15.725  73.133  1.00  0.00    -0.559 NA 
HETATM    8  C   UNL     1     -12.240  11.812  70.530  1.00  0.00    -0.438 A  
HETATM    9  C   UNL     1     -11.903  12.299  69.228  1.00  0.00    -0.306 A  
HETATM   10  C   UNL     1     -12.176  10.345  70.884  1.00  0.00    -0.484 C  
ENDROOT
BRANCH   9  11
HETATM   11  O   UNL     1     -11.252  11.356  68.442  1.00  0.00    -0.219 OA 
BRANCH  11  12
HETATM   12  C   UNL     1      -9.962  11.444  67.918  1.00  0.00    -0.177 A  
HETATM   13  C   UNL     1      -9.336  10.274  67.529  1.00  0.00    -0.148 A  
HETATM   14  C   UNL     1      -8.068  10.421  66.989  1.00  0.00    -0.116 A  
HETATM   15 BR   UNL     1     -10.133   8.569  67.727  1.00  0.00    -0.284 Br 
HETATM   16  N   UNL     1      -7.329   9.362  66.462  1.00  0.00    -0.092 NA 
HETATM   17  N   UNL     1      -7.469  11.614  66.855  1.00  0.00    -0.147 NA 
HETATM   18  H1  UNL     1      -6.396   9.470  66.065  1.00  0.00     0.000 HD 
HETATM   19  H2  UNL     1      -7.908   8.912  65.753  1.00  0.00     0.000 HD 
HETATM   20  C   UNL     1      -8.108  12.696  67.303  1.00  0.00    -0.178 A  
HETATM   21  N   UNL     1      -9.319  12.620  67.879  1.00  0.00    -0.197 NA 
BRANCH  20  22
HETATM   22  N   UNL     1      -7.582  13.984  67.144  1.00  0.00    -0.350 NA 
HETATM   23  H   UNL     1      -6.605  14.014  66.853  1.00  0.00     0.000 HD 
BRANCH  22  24
HETATM   24  C   UNL     1      -8.184  15.241  67.321  1.00  0.00    -0.204 A  
HETATM   25  C   UNL     1      -8.229  15.899  68.555  1.00  0.00    -0.169 A  
HETATM   26  C   UNL     1      -8.813  17.164  68.686  1.00  0.00    -0.266 A  
HETATM   27  C   UNL     1      -9.380  17.801  67.583  1.00  0.00    -0.250 A  
HETATM   28  C   UNL     1      -9.945  19.114  67.717  1.00  0.00    -0.357 C  
HETATM   29  C   UNL     1      -9.375  17.146  66.350  1.00  0.00    -0.286 A  
HETATM   30  C   UNL     1      -8.794  15.875  66.225  1.00  0.00    -0.386 A  
HETATM   31  N   UNL     1     -10.392  20.179  67.830  1.00  0.00    -0.360 NA 
ENDBRANCH  22  24
ENDBRANCH  20  22
ENDBRANCH  11  12
ENDBRANCH   9  11
TORSDOF 4
ENDMDL
MODEL       44
REMARK 921   NORMALIZED FREE ENERGY PREDICTED BY IDOCK:   -6.87 KCAL/MOL
REMARK 922        TOTAL FREE ENERGY PREDICTED BY IDOCK:   -9.13 KCAL/MOL
REMARK 923 INTER-LIGAND FREE ENERGY PREDICTED BY IDOCK:   -8.35 KCAL/MOL
REMARK 924 INTRA-LIGAND FREE ENERGY PREDICTED BY IDOCK:   -0.78 KCAL/MOL
REMARK 927      BINDING AFFINITY PREDICTED BY RF-SCORE:    0.00 PKD
ROOT
HETATM    1  C   UNL     1      -9.769  10.650  63.085  1.00  0.00    -0.375 C  
HETATM    2  C   UNL     1     -10.172  11.499  64.250  1.00  0.00    -0.361 A  
HETATM    3  C   UNL     1     -10.896  12.654  63.868  1.00  0.00    -0.468 A  
HETATM    4  C   UNL     1     -11.445  13.529  64.795  1.00  0.00    -0.365 A  
HETATM    5  C   UNL     1     -11.302  13.242  66.143  1.00  0.00    -0.335 A  
HETATM    6  C   UNL     1     -12.169  14.686  64.343  1.00  0.00    -0.452 C  
HETATM    7  N   UNL     1     -12.741  15.604  63.942  1.00  0.00    -0.511 NA 
HETATM    8  C   UNL     1     -10.569  12.109  66.566  1.00  0.00    -0.269 A  
HETATM    9  C   UNL     1      -9.942  11.239  65.620  1.00  0.00    -0.247 A  
HETATM   10  C   UNL     1     -10.509  11.862  68.055  1.00  0.00    -0.228 C  
ENDROOT
BRANCH   9  11
HETATM   11  O   UNL     1      -9.057  10.342  66.206  1.00  0.00    -0.153 OA 
BRANCH  11  12
HETATM   12  C   UNL     1      -9.198   8.956  66.292  1.00  0.00    -0.207 A  
HETATM   13  C   UNL     1      -8.333   8.167  65.556  1.00  0.00    -0.153 A  
HETATM   14  C   UNL     1      -8.499   6.798  65.700  1.00  0.00    -0.138 A  
HETATM   15 BR   UNL     1      -7.012   8.887  64.408  1.00  0.00    -0.089 Br 
HETATM   16  N   UNL     1      -7.659   5.855  65.106  1.00  0.00    -0.083 NA 
HETATM   17  N   UNL     1      -9.439   6.259  66.490  1.00  0.00    -0.154 NA 
HETATM   18  H1  UNL     1      -7.781   4.848  65.211  1.00  0.00     0.000 HD 
HETATM   19  H2  UNL     1      -6.705   6.076  65.393  1.00  0.00     0.000 HD 
HETATM   20  C   UNL     1     -10.275   7.079  67.128  1.00  0.00    -0.248 A  
HETATM   21  N   UNL     1     -10.202   8.414  66.997  1.00  0.00    -0.279 NA 
BRANCH  20  22
HETATM   22  N   UNL     1     -11.243   6.601  68.020  1.00  0.00    -0.558 NA 
HETATM   23  H   UNL     1     -12.180   6.512  67.628  1.00  0.00     0.000 HD 
BRANCH  22  24
HETATM   24  C   UNL     1     -11.130   6.224  69.369  1.00  0.00    -0.410 A  
HETATM   25  C   UNL     1     -11.868   6.824  70.394  1.00  0.00    -0.395 A  
HETATM   26  C   UNL     1     -11.749   6.402  71.723  1.00  0.00    -0.376 A  
HETATM   27  C   UNL     1     -10.874   5.371  72.062  1.00  0.00    -0.266 A  
HETATM   28  C   UNL     1     -10.783   4.917  73.422  1.00  0.00    -0.268 C  
HETATM   29  C   UNL     1     -10.103   4.781  71.059  1.00  0.00    -0.269 A  
HETATM   30  C   UNL     1     -10.222   5.214  69.729  1.00  0.00    -0.357 A  
HETATM   31  N   UNL     1     -10.720   4.550  74.521  1.00  0.00    -0.332 NA 
ENDBRANCH  22  24
ENDBRANCH  20  22
ENDBRANCH  11  12
ENDBRANCH   9  11
TORSDOF 4
ENDMDL
MODEL       45
REMARK 921   NORMALIZED FREE ENERGY PREDICTED BY IDOCK:   -6.85 KCAL/MOL
REMARK 922        TOTAL FREE ENERGY PREDICTED BY IDOCK:   -9.11 KCAL/MOL
REMARK 923 INTER-LIGAND FREE ENERGY PREDICTED BY IDOCK:   -8.54 KCAL/MOL
REMARK 924 INTRA-LIGAND FREE ENERGY PREDICTED BY IDOCK:   -0.57 KCAL/MOL
REMARK 927      BINDING AFFINITY PREDICTED BY RF-SCORE:    0.00 PKD
ROOT
HETATM    1  C   UNL     1      -8.719  11.952  65.662  1.00  0.00     0.288 C  
HETATM    2  C   UNL     1      -9.701  11.385  66.640  1.00  0.00    -0.224 A  
HETATM    3  C   UNL     1      -9.860   9.984  66.514  1.00  0.00    -0.267 A  
HETATM    4  C   UNL     1     -10.651   9.245  67.382  1.00  0.00    -0.324 A  
HETATM    5  C   UNL     1     -11.283   9.901  68.426  1.00  0.00    -0.134 A  
HETATM    6  C   UNL     1     -10.773   7.823  67.202  1.00  0.00    -0.267 C  
HETATM    7  N   UNL     1     -10.847   6.685  67.024  1.00  0.00    -0.377 NA 
HETATM    8  C   UNL     1     -11.165  11.302  68.573  1.00  0.00    -0.311 A  
HETATM    9  C   UNL     1     -10.409  12.083  67.645  1.00  0.00    -0.198 A  
HETATM   10  C   UNL     1     -11.858  11.915  69.768  1.00  0.00    -0.411 C  
ENDROOT
BRANCH   9  11
HETATM   11  O   UNL     1     -10.614  13.450  67.784  1.00  0.00    -0.239 OA 
BRANCH  11  12
HETATM   12  C   UNL     1     -10.395  14.436  66.821  1.00  0.00    -0.273 A  
HETATM   13  C   UNL     1     -11.343  14.597  65.827  1.00  0.00    -0.340 A  
HETATM   14  C   UNL     1     -11.090  15.608  64.913  1.00  0.00    -0.402 A  
HETATM   15 BR   UNL     1     -12.886  13.509  65.694  1.00  0.00    -0.224 Br 
HETATM   16  N   UNL     1     -11.980  15.971  63.902  1.00  0.00    -1.309 NA 
HETATM   17  N   UNL     1      -9.995  16.382  64.970  1.00  0.00    -0.222 NA 
HETATM   18  H1  UNL     1     -11.793  16.715  63.229  1.00  0.00     0.000 HD 
HETATM   19  H2  UNL     1     -12.873  16.183  64.346  1.00  0.00     0.000 HD 
HETATM   20  C   UNL     1      -9.095  16.134  65.922  1.00  0.00    -0.233 A  
HETATM   21  N   UNL     1      -9.254  15.141  66.811  1.00  0.00    -0.237 NA 
BRANCH  20  22
HETATM   22  N   UNL     1      -7.957  16.934  66.090  1.00  0.00    -0.404 NA 
HETATM   23  H   UNL     1      -7.325  16.953  65.289  1.00  0.00     0.000 HD 
BRANCH  22  24
HETATM   24  C   UNL     1      -7.547  17.714  67.184  1.00  0.00    -0.205 A  
HETATM   25  C   UNL     1      -8.280  18.805  67.661  1.00  0.00    -0.282 A  
HETATM   26  C   UNL     1      -7.854  19.542  68.772  1.00  0.00    -0.377 A  
HETATM   27  C   UNL     1      -6.670  19.210  69.430  1.00  0.00    -0.317 A  
HETATM   28  C   UNL     1      -6.256  19.946  70.591  1.00  0.00    -0.232 C  
HETATM   29  C   UNL     1      -5.906  18.145  68.948  1.00  0.00    -0.206 A  
HETATM   30  C   UNL     1      -6.335  17.414  67.830  1.00  0.00    -0.160 A  
HETATM   31  N   UNL     1      -5.931  20.540  71.533  1.00  0.00    -0.649 NA 
ENDBRANCH  22  24
ENDBRANCH  20  22
ENDBRANCH  11  12
ENDBRANCH   9  11
TORSDOF 4
ENDMDL
MODEL       46
REMARK 921   NORMALIZED FREE ENERGY PREDICTED BY IDOCK:   -6.83 KCAL/MOL
REMARK 922        TOTAL FREE ENERGY PREDICTED BY IDOCK:   -9.08 KCAL/MOL
REMARK 923 INTER-LIGAND FREE ENERGY PREDICTED BY IDOCK:   -8.21 KCAL/MOL
REMARK 924 INTRA-LIGAND FREE ENERGY PREDICTED BY IDOCK:   -0.87 KCAL/MOL
REMARK 927      BINDING AFFINITY PREDICTED BY RF-SCORE:    0.00 PKD
ROOT
HETATM    1  C   UNL     1     -11.447  15.649  68.775  1.00  0.00    -0.382 C  
HETATM    2  C   UNL     1     -11.876  14.850  69.967  1.00  0.00    -0.353 A  
HETATM    3  C   UNL     1     -11.894  15.608  71.162  1.00  0.00    -0.454 A  
HETATM    4  C   UNL     1     -12.350  15.088  72.366  1.00  0.00    -0.435 A  
HETATM    5  C   UNL     1     -12.831  13.789  72.387  1.00  0.00    -0.353 A  
HETATM    6  C   UNL     1     -12.343  15.909  73.547  1.00  0.00    -0.550 C  
HETATM    7  N   UNL     1     -12.319  16.598  74.472  1.00  0.00    -0.711 NA 
HETATM    8  C   UNL     1     -12.812  12.993  71.219  1.00  0.00    -0.370 A  
HETATM    9  C   UNL     1     -12.281  13.496  69.990  1.00  0.00    -0.312 A  
HETATM   10  C   UNL     1     -13.398  11.606  71.338  1.00  0.00    -0.030 C  
ENDROOT
BRANCH   9  11
HETATM   11  O   UNL     1     -12.099  12.510  69.029  1.00  0.00    -0.259 OA 
BRANCH  11  12
HETATM   12  C   UNL     1     -10.915  11.832  68.734  1.00  0.00    -0.234 A  
HETATM   13  C   UNL     1     -10.316  12.071  67.510  1.00  0.00    -0.200 A  
HETATM   14  C   UNL     1      -9.129  11.394  67.280  1.00  0.00    -0.162 A  
HETATM   15 BR   UNL     1     -11.061  13.229  66.211  1.00  0.00    -0.318 Br 
HETATM   16  N   UNL     1      -8.344  11.583  66.142  1.00  0.00    -0.354 NA 
HETATM   17  N   UNL     1      -8.587  10.552  68.173  1.00  0.00    -0.120 NA 
HETATM   18  H1  UNL     1      -7.470  11.085  65.972  1.00  0.00     0.000 HD 
HETATM   19  H2  UNL     1      -8.141  12.581  66.076  1.00  0.00     0.000 HD 
HETATM   20  C   UNL     1      -9.247  10.326  69.309  1.00  0.00    -0.202 A  
HETATM   21  N   UNL     1     -10.425  10.911  69.577  1.00  0.00    -0.185 NA 
BRANCH  20  22
HETATM   22  N   UNL     1      -8.721   9.511  70.320  1.00  0.00    -0.224 NA 
HETATM   23  H   UNL     1      -7.782   9.762  70.627  1.00  0.00     0.000 HD 
BRANCH  22  24
HETATM   24  C   UNL     1      -9.280   8.403  70.978  1.00  0.00    -0.168 A  
HETATM   25  C   UNL     1      -9.623   7.217  70.320  1.00  0.00    -0.169 A  
HETATM   26  C   UNL     1     -10.153   6.124  71.015  1.00  0.00    -0.231 A  
HETATM   27  C   UNL     1     -10.364   6.194  72.391  1.00  0.00    -0.219 A  
HETATM   28  C   UNL     1     -10.873   5.056  73.104  1.00  0.00    -0.286 C  
HETATM   29  C   UNL     1     -10.060   7.380  73.061  1.00  0.00    -0.323 A  
HETATM   30  C   UNL     1      -9.536   8.476  72.358  1.00  0.00    -0.350 A  
HETATM   31  N   UNL     1     -11.276   4.130  73.676  1.00  0.00    -0.254 NA 
ENDBRANCH  22  24
ENDBRANCH  20  22
ENDBRANCH  11  12
ENDBRANCH   9  11
TORSDOF 4
ENDMDL
MODEL       47
REMARK 921   NORMALIZED FREE ENERGY PREDICTED BY IDOCK:   -6.82 KCAL/MOL
REMARK 922        TOTAL FREE ENERGY PREDICTED BY IDOCK:   -9.07 KCAL/MOL
REMARK 923 INTER-LIGAND FREE ENERGY PREDICTED BY IDOCK:   -8.01 KCAL/MOL
REMARK 924 INTRA-LIGAND FREE ENERGY PREDICTED BY IDOCK:   -1.06 KCAL/MOL
REMARK 927      BINDING AFFINITY PREDICTED BY RF-SCORE:    0.00 PKD
ROOT
HETATM    1  C   UNL     1      -9.301   9.215  69.889  1.00  0.00    -0.198 C  
HETATM    2  C   UNL     1     -10.528  10.046  70.102  1.00  0.00    -0.338 A  
HETATM    3  C   UNL     1     -11.467   9.433  70.964  1.00  0.00    -0.403 A  
HETATM    4  C   UNL     1     -12.631  10.071  71.370  1.00  0.00    -0.518 A  
HETATM    5  C   UNL     1     -12.864  11.366  70.935  1.00  0.00    -0.323 A  
HETATM    6  C   UNL     1     -13.548   9.395  72.248  1.00  0.00    -0.462 C  
HETATM    7  N   UNL     1     -14.258   8.819  72.951  1.00  0.00    -0.405 NA 
HETATM    8  C   UNL     1     -11.959  12.005  70.057  1.00  0.00    -0.400 A  
HETATM    9  C   UNL     1     -10.792  11.333  69.579  1.00  0.00    -0.151 A  
HETATM   10  C   UNL     1     -12.283  13.432  69.676  1.00  0.00    -0.279 C  
ENDROOT
BRANCH   9  11
HETATM   11  O   UNL     1     -10.165  12.000  68.534  1.00  0.00    -0.215 OA 
BRANCH  11  12
HETATM   12  C   UNL     1     -10.042  11.567  67.213  1.00  0.00    -0.199 A  
HETATM   13  C   UNL     1     -10.052  12.520  66.211  1.00  0.00    -0.250 A  
HETATM   14  C   UNL     1      -9.899  12.038  64.921  1.00  0.00    -0.175 A  
HETATM   15 BR   UNL     1     -10.276  14.368  66.555  1.00  0.00    -0.287 Br 
HETATM   16  N   UNL     1      -9.794  12.861  63.799  1.00  0.00    -0.710 NA 
HETATM   17  N   UNL     1      -9.758  10.732  64.644  1.00  0.00    -0.262 NA 
HETATM   18  H1  UNL     1      -9.682  12.506  62.850  1.00  0.00     0.000 HD 
HETATM   19  H2  UNL     1      -9.028  13.512  63.971  1.00  0.00     0.000 HD 
HETATM   20  C   UNL     1      -9.814   9.863  65.654  1.00  0.00    -0.298 A  
HETATM   21  N   UNL     1     -10.007  10.257  66.923  1.00  0.00    -0.200 NA 
BRANCH  20  22
HETATM   22  N   UNL     1      -9.614   8.491  65.460  1.00  0.00    -0.415 NA 
HETATM   23  H   UNL     1      -9.440   8.216  64.493  1.00  0.00     0.000 HD 
BRANCH  22  24
HETATM   24  C   UNL     1      -9.613   7.432  66.384  1.00  0.00    -0.114 A  
HETATM   25  C   UNL     1      -8.442   6.821  66.844  1.00  0.00    -0.115 A  
HETATM   26  C   UNL     1      -8.480   5.787  67.786  1.00  0.00    -0.103 A  
HETATM   27  C   UNL     1      -9.698   5.328  68.285  1.00  0.00    -0.185 A  
HETATM   28  C   UNL     1      -9.729   4.292  69.279  1.00  0.00    -0.170 C  
HETATM   29  C   UNL     1     -10.881   5.901  67.813  1.00  0.00    -0.326 A  
HETATM   30  C   UNL     1     -10.837   6.933  66.863  1.00  0.00    -0.380 A  
HETATM   31  N   UNL     1      -9.747   3.460  70.087  1.00  0.00    -0.130 NA 
ENDBRANCH  22  24
ENDBRANCH  20  22
ENDBRANCH  11  12
ENDBRANCH   9  11
TORSDOF 4
ENDMDL
MODEL       48
REMARK 921   NORMALIZED FREE ENERGY PREDICTED BY IDOCK:   -6.82 KCAL/MOL
REMARK 922        TOTAL FREE ENERGY PREDICTED BY IDOCK:   -9.07 KCAL/MOL
REMARK 923 INTER-LIGAND FREE ENERGY PREDICTED BY IDOCK:   -8.62 KCAL/MOL
REMARK 924 INTRA-LIGAND FREE ENERGY PREDICTED BY IDOCK:   -0.45 KCAL/MOL
REMARK 927      BINDING AFFINITY PREDICTED BY RF-SCORE:    0.00 PKD
ROOT
HETATM    1  C   UNL     1     -12.111  14.319  69.733  1.00  0.00    -0.401 C  
HETATM    2  C   UNL     1     -11.539  15.170  68.643  1.00  0.00    -0.358 A  
HETATM    3  C   UNL     1     -11.152  16.455  69.091  1.00  0.00    -0.303 A  
HETATM    4  C   UNL     1     -10.513  17.370  68.266  1.00  0.00    -0.385 A  
HETATM    5  C   UNL     1     -10.221  16.997  66.964  1.00  0.00    -0.303 A  
HETATM    6  C   UNL     1     -10.144  18.661  68.781  1.00  0.00    -0.353 C  
HETATM    7  N   UNL     1      -9.866  19.687  69.229  1.00  0.00    -0.366 NA 
HETATM    8  C   UNL     1     -10.609  15.730  66.472  1.00  0.00    -0.306 A  
HETATM    9  C   UNL     1     -11.328  14.806  67.294  1.00  0.00    -0.357 A  
HETATM   10  C   UNL     1     -10.205  15.404  65.053  1.00  0.00    -0.295 C  
ENDROOT
BRANCH   9  11
HETATM   11  O   UNL     1     -11.853  13.735  66.581  1.00  0.00    -0.366 OA 
BRANCH  11  12
HETATM   12  C   UNL     1     -11.233  12.511  66.324  1.00  0.00    -0.315 A  
HETATM   13  C   UNL     1     -11.219  12.050  65.021  1.00  0.00    -0.320 A  
HETATM   14  C   UNL     1     -10.566  10.844  64.817  1.00  0.00    -0.246 A  
HETATM   15 BR   UNL     1     -12.046  12.979  63.594  1.00  0.00    -0.588 Br 
HETATM   16  N   UNL     1     -10.376  10.276  63.556  1.00  0.00    -0.388 NA 
HETATM   17  N   UNL     1      -9.988  10.153  65.811  1.00  0.00    -0.264 NA 
HETATM   18  H1  UNL     1      -9.896   9.389  63.406  1.00  0.00     0.000 HD 
HETATM   19  H2  UNL     1      -9.910  10.974  62.977  1.00  0.00     0.000 HD 
HETATM   20  C   UNL     1     -10.088  10.629  67.052  1.00  0.00    -0.211 A  
HETATM   21  N   UNL     1     -10.746  11.767  67.328  1.00  0.00    -0.227 NA 
BRANCH  20  22
HETATM   22  N   UNL     1      -9.460  10.003  68.136  1.00  0.00    -0.138 NA 
HETATM   23  H   UNL     1      -8.476  10.242  68.258  1.00  0.00     0.000 HD 
BRANCH  22  24
HETATM   24  C   UNL     1      -9.968   9.099  69.084  1.00  0.00    -0.187 A  
HETATM   25  C   UNL     1     -10.214   7.752  68.799  1.00  0.00    -0.212 A  
HETATM   26  C   UNL     1     -10.694   6.875  69.778  1.00  0.00    -0.276 A  
HETATM   27  C   UNL     1     -10.954   7.329  71.070  1.00  0.00    -0.272 A  
HETATM   28  C   UNL     1     -11.412   6.416  72.079  1.00  0.00    -0.305 C  
HETATM   29  C   UNL     1     -10.748   8.678  71.366  1.00  0.00    -0.338 A  
HETATM   30  C   UNL     1     -10.272   9.554  70.379  1.00  0.00    -0.337 A  
HETATM   31  N   UNL     1     -11.775   5.671  72.892  1.00  0.00    -0.205 NA 
ENDBRANCH  22  24
ENDBRANCH  20  22
ENDBRANCH  11  12
ENDBRANCH   9  11
TORSDOF 4
ENDMDL
MODEL       49
REMARK 921   NORMALIZED FREE ENERGY PREDICTED BY IDOCK:   -6.81 KCAL/MOL
REMARK 922        TOTAL FREE ENERGY PREDICTED BY IDOCK:   -9.06 KCAL/MOL
REMARK 923 INTER-LIGAND FREE ENERGY PREDICTED BY IDOCK:   -8.43 KCAL/MOL
REMARK 924 INTRA-LIGAND FREE ENERGY PREDICTED BY IDOCK:   -0.63 KCAL/MOL
REMARK 927      BINDING AFFINITY PREDICTED BY RF-SCORE:    0.00 PKD
ROOT
HETATM    1  C   UNL     1     -10.858   6.972  67.932  1.00  0.00    -0.252 C  
HETATM    2  C   UNL     1     -10.079   8.193  67.551  1.00  0.00    -0.286 A  
HETATM    3  C   UNL     1      -9.636   8.168  66.207  1.00  0.00    -0.248 A  
HETATM    4  C   UNL     1      -8.977   9.240  65.621  1.00  0.00    -0.243 A  
HETATM    5  C   UNL     1      -8.775  10.385  66.374  1.00  0.00    -0.149 A  
HETATM    6  C   UNL     1      -8.551   9.154  64.250  1.00  0.00    -0.175 C  
HETATM    7  N   UNL     1      -8.222   9.046  63.150  1.00  0.00    -0.171 NA 
HETATM    8  C   UNL     1      -9.185  10.442  67.726  1.00  0.00    -0.148 A  
HETATM    9  C   UNL     1      -9.803   9.319  68.359  1.00  0.00    -0.155 A  
HETATM   10  C   UNL     1      -8.956  11.751  68.445  1.00  0.00    -0.168 C  
ENDROOT
BRANCH   9  11
HETATM   11  O   UNL     1      -9.899   9.453  69.739  1.00  0.00    -0.178 OA 
BRANCH  11  12
HETATM   12  C   UNL     1     -11.018   9.858  70.468  1.00  0.00    -0.326 A  
HETATM   13  C   UNL     1     -11.611   8.938  71.313  1.00  0.00    -0.304 A  
HETATM   14  C   UNL     1     -12.701   9.401  72.034  1.00  0.00    -0.403 A  
HETATM   15 BR   UNL     1     -11.002   7.154  71.479  1.00  0.00    -0.271 Br 
HETATM   16  N   UNL     1     -13.363   8.640  72.999  1.00  0.00    -0.844 NA 
HETATM   17  N   UNL     1     -13.168  10.653  71.923  1.00  0.00    -0.462 NA 
HETATM   18  H1  UNL     1     -14.165   8.980  73.529  1.00  0.00     0.000 HD 
HETATM   19  H2  UNL     1     -12.664   8.331  73.674  1.00  0.00     0.000 HD 
HETATM   20  C   UNL     1     -12.582  11.470  71.047  1.00  0.00    -0.357 A  
HETATM   21  N   UNL     1     -11.552  11.074  70.282  1.00  0.00    -0.324 NA 
BRANCH  20  22
HETATM   22  N   UNL     1     -12.967  12.811  70.915  1.00  0.00    -0.083 NA 
HETATM   23  H   UNL     1     -13.845  13.052  71.374  1.00  0.00     0.000 HD 
BRANCH  22  24
HETATM   24  C   UNL     1     -12.336  13.877  70.251  1.00  0.00    -0.345 A  
HETATM   25  C   UNL     1     -12.154  13.913  68.865  1.00  0.00    -0.355 A  
HETATM   26  C   UNL     1     -11.547  15.005  68.236  1.00  0.00    -0.355 A  
HETATM   27  C   UNL     1     -11.094  16.091  68.985  1.00  0.00    -0.320 A  
HETATM   28  C   UNL     1     -10.505  17.225  68.331  1.00  0.00    -0.381 C  
HETATM   29  C   UNL     1     -11.236  16.060  70.374  1.00  0.00    -0.401 A  
HETATM   30  C   UNL     1     -11.840  14.958  70.999  1.00  0.00    -0.380 A  
HETATM   31  N   UNL     1     -10.037  18.142  67.795  1.00  0.00    -0.344 NA 
ENDBRANCH  22  24
ENDBRANCH  20  22
ENDBRANCH  11  12
ENDBRANCH   9  11
TORSDOF 4
ENDMDL
MODEL       50
REMARK 921   NORMALIZED FREE ENERGY PREDICTED BY IDOCK:   -6.75 KCAL/MOL
REMARK 922        TOTAL FREE ENERGY PREDICTED BY IDOCK:   -8.99 KCAL/MOL
REMARK 923 INTER-LIGAND FREE ENERGY PREDICTED BY IDOCK:   -8.35 KCAL/MOL
REMARK 924 INTRA-LIGAND FREE ENERGY PREDICTED BY IDOCK:   -0.63 KCAL/MOL
REMARK 927      BINDING AFFINITY PREDICTED BY RF-SCORE:    0.00 PKD
ROOT
HETATM    1  C   UNL     1     -11.010  11.507  69.062  1.00  0.00    -0.285 C  
HETATM    2  C   UNL     1     -11.322  12.971  69.058  1.00  0.00    -0.340 A  
HETATM    3  C   UNL     1     -12.255  13.339  70.056  1.00  0.00    -0.345 A  
HETATM    4  C   UNL     1     -12.613  14.660  70.289  1.00  0.00    -0.370 A  
HETATM    5  C   UNL     1     -12.011  15.653  69.534  1.00  0.00    -0.363 A  
HETATM    6  C   UNL     1     -13.569  14.970  71.318  1.00  0.00    -0.453 C  
HETATM    7  N   UNL     1     -14.340  15.179  72.150  1.00  0.00    -0.548 NA 
HETATM    8  C   UNL     1     -11.089  15.325  68.514  1.00  0.00    -0.284 A  
HETATM    9  C   UNL     1     -10.764  13.964  68.221  1.00  0.00    -0.251 A  
HETATM   10  C   UNL     1     -10.456  16.483  67.778  1.00  0.00    -0.308 C  
ENDROOT
BRANCH   9  11
HETATM   11  O   UNL     1     -10.056  13.814  67.034  1.00  0.00    -0.249 OA 
BRANCH  11  12
HETATM   12  C   UNL     1     -10.180  12.779  66.106  1.00  0.00    -0.275 A  
HETATM   13  C   UNL     1     -11.156  12.892  65.132  1.00  0.00    -0.292 A  
HETATM   14  C   UNL     1     -11.217  11.850  64.220  1.00  0.00    -0.357 A  
HETATM   15 BR   UNL     1     -12.350  14.357  65.041  1.00  0.00    -0.350 Br 
HETATM   16  N   UNL     1     -12.075  11.840  63.120  1.00  0.00    -0.932 NA 
HETATM   17  N   UNL     1     -10.397  10.789  64.271  1.00  0.00    -0.366 NA 
HETATM   18  H1  UNL     1     -12.121  11.074  62.449  1.00  0.00     0.000 HD 
HETATM   19  H2  UNL     1     -11.899  12.695  62.591  1.00  0.00     0.000 HD 
HETATM   20  C   UNL     1      -9.517  10.719  65.271  1.00  0.00    -0.218 A  
HETATM   21  N   UNL     1      -9.435  11.669  66.216  1.00  0.00    -0.213 NA 
BRANCH  20  22
HETATM   22  N   UNL     1      -8.584   9.678  65.362  1.00  0.00    -0.143 NA 
HETATM   23  H   UNL     1      -7.630   9.935  65.109  1.00  0.00     0.000 HD 
BRANCH  22  24
HETATM   24  C   UNL     1      -8.752   8.337  65.745  1.00  0.00    -0.166 A  
HETATM   25  C   UNL     1      -7.890   7.313  65.339  1.00  0.00    -0.118 A  
HETATM   26  C   UNL     1      -8.073   5.992  65.765  1.00  0.00    -0.123 A  
HETATM   27  C   UNL     1      -9.136   5.660  66.603  1.00  0.00    -0.129 A  
HETATM   28  C   UNL     1      -9.297   4.310  67.066  1.00  0.00    -0.167 C  
HETATM   29  C   UNL     1     -10.028   6.661  66.993  1.00  0.00    -0.223 A  
HETATM   30  C   UNL     1      -9.843   7.982  66.557  1.00  0.00    -0.289 A  
HETATM   31  N   UNL     1      -9.418   3.219  67.443  1.00  0.00    -0.198 NA 
ENDBRANCH  22  24
ENDBRANCH  20  22
ENDBRANCH  11  12
ENDBRANCH   9  11
TORSDOF 4
ENDMDL
MODEL       51
REMARK 921   NORMALIZED FREE ENERGY PREDICTED BY IDOCK:   -6.72 KCAL/MOL
REMARK 922        TOTAL FREE ENERGY PREDICTED BY IDOCK:   -8.95 KCAL/MOL
REMARK 923 INTER-LIGAND FREE ENERGY PREDICTED BY IDOCK:   -8.20 KCAL/MOL
REMARK 924 INTRA-LIGAND FREE ENERGY PREDICTED BY IDOCK:   -0.75 KCAL/MOL
REMARK 927      BINDING AFFINITY PREDICTED BY RF-SCORE:    0.00 PKD
ROOT
HETATM    1  C   UNL     1     -10.091  15.702  70.272  1.00  0.00    -0.021 C  
HETATM    2  C   UNL     1     -10.172  15.575  68.782  1.00  0.00    -0.212 A  
HETATM    3  C   UNL     1      -9.222  16.378  68.108  1.00  0.00    -0.201 A  
HETATM    4  C   UNL     1      -9.061  16.342  66.729  1.00  0.00    -0.257 A  
HETATM    5  C   UNL     1      -9.842  15.465  65.994  1.00  0.00    -0.355 A  
HETATM    6  C   UNL     1      -8.078  17.183  66.102  1.00  0.00    -0.248 C  
HETATM    7  N   UNL     1      -7.280  17.874  65.636  1.00  0.00    -0.515 NA 
HETATM    8  C   UNL     1     -10.817  14.661  66.629  1.00  0.00    -0.312 A  
HETATM    9  C   UNL     1     -11.037  14.740  68.039  1.00  0.00    -0.286 A  
HETATM   10  C   UNL     1     -11.586  13.707  65.743  1.00  0.00    -0.349 C  
ENDROOT
BRANCH   9  11
HETATM   11  O   UNL     1     -12.192  14.087  68.450  1.00  0.00    -0.332 OA 
BRANCH  11  12
HETATM   12  C   UNL     1     -12.308  13.150  69.478  1.00  0.00    -0.033 A  
HETATM   13  C   UNL     1     -12.960  13.532  70.636  1.00  0.00    -0.026 A  
HETATM   14  C   UNL     1     -13.071  12.555  71.614  1.00  0.00    -0.315 A  
HETATM   15 BR   UNL     1     -13.650  15.275  70.899  1.00  0.00    -0.306 Br 
HETATM   16  N   UNL     1     -13.775  12.735  72.805  1.00  0.00    -0.698 NA 
HETATM   17  N   UNL     1     -12.575  11.317  71.464  1.00  0.00    -0.346 NA 
HETATM   18  H1  UNL     1     -13.857  12.017  73.524  1.00  0.00     0.000 HD 
HETATM   19  H2  UNL     1     -14.722  13.023  72.556  1.00  0.00     0.000 HD 
HETATM   20  C   UNL     1     -11.909  11.035  70.344  1.00  0.00    -0.367 A  
HETATM   21  N   UNL     1     -11.723  11.947  69.376  1.00  0.00    -0.316 NA 
BRANCH  20  22
HETATM   22  N   UNL     1     -11.415   9.751  70.082  1.00  0.00    -0.332 NA 
HETATM   23  H   UNL     1     -11.110   9.597  69.121  1.00  0.00     0.000 HD 
BRANCH  22  24
HETATM   24  C   UNL     1     -11.271   8.641  70.931  1.00  0.00    -0.267 A  
HETATM   25  C   UNL     1     -12.115   7.526  70.881  1.00  0.00    -0.254 A  
HETATM   26  C   UNL     1     -11.924   6.427  71.725  1.00  0.00    -0.370 A  
HETATM   27  C   UNL     1     -10.884   6.419  72.653  1.00  0.00    -0.270 A  
HETATM   28  C   UNL     1     -10.670   5.273  73.491  1.00  0.00    -0.289 C  
HETATM   29  C   UNL     1     -10.050   7.536  72.743  1.00  0.00    -0.293 A  
HETATM   30  C   UNL     1     -10.252   8.639  71.899  1.00  0.00    -0.404 A  
HETATM   31  N   UNL     1     -10.497   4.340  74.159  1.00  0.00    -0.226 NA 
ENDBRANCH  22  24
ENDBRANCH  20  22
ENDBRANCH  11  12
ENDBRANCH   9  11
TORSDOF 4
ENDMDL
MODEL       52
REMARK 921   NORMALIZED FREE ENERGY PREDICTED BY IDOCK:   -6.72 KCAL/MOL
REMARK 922        TOTAL FREE ENERGY PREDICTED BY IDOCK:   -8.94 KCAL/MOL
REMARK 923 INTER-LIGAND FREE ENERGY PREDICTED BY IDOCK:   -8.16 KCAL/MOL
REMARK 924 INTRA-LIGAND FREE ENERGY PREDICTED BY IDOCK:   -0.78 KCAL/MOL
REMARK 927      BINDING AFFINITY PREDICTED BY RF-SCORE:    0.00 PKD
ROOT
HETATM    1  C   UNL     1      -7.700  10.231  69.577  1.00  0.00    -0.167 C  
HETATM    2  C   UNL     1      -8.677   9.816  68.521  1.00  0.00    -0.120 A  
HETATM    3  C   UNL     1      -8.854  10.797  67.517  1.00  0.00    -0.128 A  
HETATM    4  C   UNL     1      -9.643  10.580  66.396  1.00  0.00    -0.220 A  
HETATM    5  C   UNL     1     -10.255   9.346  66.245  1.00  0.00    -0.284 A  
HETATM    6  C   UNL     1      -9.784  11.617  65.409  1.00  0.00    -0.229 C  
HETATM    7  N   UNL     1      -9.874  12.474  64.642  1.00  0.00    -0.119 NA 
HETATM    8  C   UNL     1     -10.119   8.347  67.236  1.00  0.00    -0.321 A  
HETATM    9  C   UNL     1      -9.364   8.585  68.427  1.00  0.00    -0.134 A  
HETATM   10  C   UNL     1     -10.791   7.023  66.956  1.00  0.00    -0.413 C  
ENDROOT
BRANCH   9  11
HETATM   11  O   UNL     1      -9.552   7.608  69.398  1.00  0.00    -0.159 OA 
BRANCH  11  12
HETATM   12  C   UNL     1     -10.527   7.592  70.395  1.00  0.00    -0.223 A  
HETATM   13  C   UNL     1     -10.679   6.435  71.138  1.00  0.00    -0.244 A  
HETATM   14  C   UNL     1     -11.642   6.482  72.134  1.00  0.00    -0.308 A  
HETATM   15 BR   UNL     1      -9.661   4.871  70.822  1.00  0.00    -0.269 Br 
HETATM   16  N   UNL     1     -11.867   5.442  73.036  1.00  0.00    -0.534 NA 
HETATM   17  N   UNL     1     -12.393   7.569  72.368  1.00  0.00    -0.149 NA 
HETATM   18  H1  UNL     1     -12.576   5.476  73.768  1.00  0.00     0.000 HD 
HETATM   19  H2  UNL     1     -10.976   5.234  73.487  1.00  0.00     0.000 HD 
HETATM   20  C   UNL     1     -12.232   8.630  71.577  1.00  0.00    -0.318 A  
HETATM   21  N   UNL     1     -11.351   8.637  70.564  1.00  0.00    -0.248 NA 
BRANCH  20  22
HETATM   22  N   UNL     1     -12.930   9.825  71.793  1.00  0.00    -0.404 NA 
HETATM   23  H   UNL     1     -13.760   9.737  72.380  1.00  0.00     0.000 HD 
BRANCH  22  24
HETATM   24  C   UNL     1     -12.670  11.127  71.331  1.00  0.00    -0.418 A  
HETATM   25  C   UNL     1     -11.907  11.394  70.190  1.00  0.00    -0.440 A  
HETATM   26  C   UNL     1     -11.693  12.703  69.745  1.00  0.00    -0.354 A  
HETATM   27  C   UNL     1     -12.231  13.785  70.441  1.00  0.00    -0.433 A  
HETATM   28  C   UNL     1     -12.040  15.124  69.959  1.00  0.00    -0.345 C  
HETATM   29  C   UNL     1     -12.968  13.542  71.602  1.00  0.00    -0.447 A  
HETATM   30  C   UNL     1     -13.173  12.226  72.048  1.00  0.00    -0.508 A  
HETATM   31  N   UNL     1     -11.888  16.203  69.559  1.00  0.00    -0.221 NA 
ENDBRANCH  22  24
ENDBRANCH  20  22
ENDBRANCH  11  12
ENDBRANCH   9  11
TORSDOF 4
ENDMDL
MODEL       53
REMARK 921   NORMALIZED FREE ENERGY PREDICTED BY IDOCK:   -6.64 KCAL/MOL
REMARK 922        TOTAL FREE ENERGY PREDICTED BY IDOCK:   -8.85 KCAL/MOL
REMARK 923 INTER-LIGAND FREE ENERGY PREDICTED BY IDOCK:   -8.17 KCAL/MOL
REMARK 924 INTRA-LIGAND FREE ENERGY PREDICTED BY IDOCK:   -0.68 KCAL/MOL
REMARK 927      BINDING AFFINITY PREDICTED BY RF-SCORE:    0.00 PKD
ROOT
HETATM    1  C   UNL     1      -6.648  13.351  67.679  1.00  0.00    -0.174 C  
HETATM    2  C   UNL     1      -7.424  12.116  68.015  1.00  0.00    -0.116 A  
HETATM    3  C   UNL     1      -6.935  11.452  69.165  1.00  0.00    -0.118 A  
HETATM    4  C   UNL     1      -7.566  10.340  69.706  1.00  0.00    -0.168 A  
HETATM    5  C   UNL     1      -8.731   9.884  69.111  1.00  0.00    -0.159 A  
HETATM    6  C   UNL     1      -7.019   9.708  70.876  1.00  0.00    -0.029 C  
HETATM    7  N   UNL     1      -6.550   9.228  71.815  1.00  0.00    -0.292 NA 
HETATM    8  C   UNL     1      -9.240  10.507  67.949  1.00  0.00    -0.143 A  
HETATM    9  C   UNL     1      -8.562  11.612  67.345  1.00  0.00    -0.149 A  
HETATM   10  C   UNL     1     -10.539   9.961  67.404  1.00  0.00    -0.338 C  
ENDROOT
BRANCH   9  11
HETATM   11  O   UNL     1      -9.048  11.927  66.082  1.00  0.00    -0.214 OA 
BRANCH  11  12
HETATM   12  C   UNL     1      -9.905  12.978  65.750  1.00  0.00    -0.209 A  
HETATM   13  C   UNL     1     -10.650  12.867  64.590  1.00  0.00    -0.363 A  
HETATM   14  C   UNL     1     -11.505  13.925  64.322  1.00  0.00    -0.318 A  
HETATM   15 BR   UNL     1     -10.516  11.386  63.420  1.00  0.00    -0.427 Br 
HETATM   16  N   UNL     1     -12.396  13.942  63.248  1.00  0.00    -1.148 NA 
HETATM   17  N   UNL     1     -11.608  14.998  65.122  1.00  0.00    -0.329 NA 
HETATM   18  H1  UNL     1     -13.024  14.720  63.051  1.00  0.00     0.000 HD 
HETATM   19  H2  UNL     1     -12.968  13.100  63.316  1.00  0.00     0.000 HD 
HETATM   20  C   UNL     1     -10.818  15.063  66.195  1.00  0.00    -0.329 A  
HETATM   21  N   UNL     1      -9.934  14.097  66.489  1.00  0.00    -0.274 NA 
BRANCH  20  22
HETATM   22  N   UNL     1     -10.907  16.116  67.114  1.00  0.00    -0.268 NA 
HETATM   23  H   UNL     1     -11.844  16.289  67.479  1.00  0.00     0.000 HD 
BRANCH  22  24
HETATM   24  C   UNL     1      -9.912  16.974  67.614  1.00  0.00    -0.280 A  
HETATM   25  C   UNL     1      -8.551  16.652  67.605  1.00  0.00    -0.207 A  
HETATM   26  C   UNL     1      -7.587  17.544  68.086  1.00  0.00    -0.221 A  
HETATM   27  C   UNL     1      -7.963  18.783  68.601  1.00  0.00    -0.369 A  
HETATM   28  C   UNL     1      -6.966  19.710  69.059  1.00  0.00    -0.355 C  
HETATM   29  C   UNL     1      -9.319  19.111  68.650  1.00  0.00    -0.439 A  
HETATM   30  C   UNL     1     -10.283  18.209  68.173  1.00  0.00    -0.400 A  
HETATM   31  N   UNL     1      -6.155  20.457  69.420  1.00  0.00    -0.338 NA 
ENDBRANCH  22  24
ENDBRANCH  20  22
ENDBRANCH  11  12
ENDBRANCH   9  11
TORSDOF 4
ENDMDL
MODEL       54
REMARK 921   NORMALIZED FREE ENERGY PREDICTED BY IDOCK:   -6.62 KCAL/MOL
REMARK 922        TOTAL FREE ENERGY PREDICTED BY IDOCK:   -8.83 KCAL/MOL
REMARK 923 INTER-LIGAND FREE ENERGY PREDICTED BY IDOCK:   -8.22 KCAL/MOL
REMARK 924 INTRA-LIGAND FREE ENERGY PREDICTED BY IDOCK:   -0.61 KCAL/MOL
REMARK 927      BINDING AFFINITY PREDICTED BY RF-SCORE:    0.00 PKD
ROOT
HETATM    1  C   UNL     1     -11.281  16.399  69.854  1.00  0.00    -0.253 C  
HETATM    2  C   UNL     1     -10.212  16.808  68.889  1.00  0.00    -0.304 A  
HETATM    3  C   UNL     1     -10.237  18.191  68.591  1.00  0.00    -0.382 A  
HETATM    4  C   UNL     1      -9.276  18.797  67.793  1.00  0.00    -0.316 A  
HETATM    5  C   UNL     1      -8.242  18.021  67.296  1.00  0.00    -0.224 A  
HETATM    6  C   UNL     1      -9.357  20.208  67.525  1.00  0.00    -0.382 C  
HETATM    7  N   UNL     1      -9.456  21.341  67.332  1.00  0.00    -0.053 NA 
HETATM    8  C   UNL     1      -8.192  16.633  67.555  1.00  0.00    -0.180 A  
HETATM    9  C   UNL     1      -9.213  15.986  68.319  1.00  0.00    -0.191 A  
HETATM   10  C   UNL     1      -7.000  15.885  67.004  1.00  0.00    -0.173 C  
ENDROOT
BRANCH   9  11
HETATM   11  O   UNL     1      -9.150  14.599  68.254  1.00  0.00    -0.177 OA 
BRANCH  11  12
HETATM   12  C   UNL     1     -10.222  13.715  68.126  1.00  0.00    -0.247 A  
HETATM   13  C   UNL     1     -10.725  13.481  66.859  1.00  0.00    -0.274 A  
HETATM   14  C   UNL     1     -11.770  12.573  66.785  1.00  0.00    -0.384 A  
HETATM   15 BR   UNL     1     -10.058  14.346  65.313  1.00  0.00    -0.333 Br 
HETATM   16  N   UNL     1     -12.338  12.149  65.583  1.00  0.00    -0.469 NA 
HETATM   17  N   UNL     1     -12.278  11.959  67.865  1.00  0.00    -0.408 NA 
HETATM   18  H1  UNL     1     -13.107  11.481  65.529  1.00  0.00     0.000 HD 
HETATM   19  H2  UNL     1     -11.581  11.787  65.002  1.00  0.00     0.000 HD 
HETATM   20  C   UNL     1     -11.781  12.275  69.062  1.00  0.00    -0.324 A  
HETATM   21  N   UNL     1     -10.801  13.180  69.211  1.00  0.00    -0.083 NA 
BRANCH  20  22
HETATM   22  N   UNL     1     -12.210  11.635  70.232  1.00  0.00    -0.332 NA 
HETATM   23  H   UNL     1     -12.916  12.144  70.764  1.00  0.00     0.000 HD 
BRANCH  22  24
HETATM   24  C   UNL     1     -11.825  10.404  70.790  1.00  0.00    -0.368 A  
HETATM   25  C   UNL     1     -10.629   9.758  70.462  1.00  0.00    -0.376 A  
HETATM   26  C   UNL     1     -10.266   8.546  71.060  1.00  0.00    -0.255 A  
HETATM   27  C   UNL     1     -11.101   7.941  71.998  1.00  0.00    -0.332 A  
HETATM   28  C   UNL     1     -10.706   6.716  72.635  1.00  0.00    -0.235 C  
HETATM   29  C   UNL     1     -12.316   8.552  72.314  1.00  0.00    -0.450 A  
HETATM   30  C   UNL     1     -12.678   9.765  71.706  1.00  0.00    -0.519 A  
HETATM   31  N   UNL     1     -10.378   5.731  73.152  1.00  0.00    -0.193 NA 
ENDBRANCH  22  24
ENDBRANCH  20  22
ENDBRANCH  11  12
ENDBRANCH   9  11
TORSDOF 4
ENDMDL
MODEL       55
REMARK 921   NORMALIZED FREE ENERGY PREDICTED BY IDOCK:   -6.59 KCAL/MOL
REMARK 922        TOTAL FREE ENERGY PREDICTED BY IDOCK:   -8.79 KCAL/MOL
REMARK 923 INTER-LIGAND FREE ENERGY PREDICTED BY IDOCK:   -8.16 KCAL/MOL
REMARK 924 INTRA-LIGAND FREE ENERGY PREDICTED BY IDOCK:   -0.63 KCAL/MOL
REMARK 927      BINDING AFFINITY PREDICTED BY RF-SCORE:    0.00 PKD
ROOT
HETATM    1  C   UNL     1     -12.739  13.767  66.047  1.00  0.00    -0.407 C  
HETATM    2  C   UNL     1     -11.502  12.962  66.300  1.00  0.00    -0.395 A  
HETATM    3  C   UNL     1     -11.131  12.158  65.196  1.00  0.00    -0.369 A  
HETATM    4  C   UNL     1      -9.965  11.406  65.182  1.00  0.00    -0.310 A  
HETATM    5  C   UNL     1      -9.122  11.469  66.279  1.00  0.00    -0.215 A  
HETATM    6  C   UNL     1      -9.644  10.607  64.029  1.00  0.00    -0.299 C  
HETATM    7  N   UNL     1      -9.421   9.979  63.088  1.00  0.00    -0.269 NA 
HETATM    8  C   UNL     1      -9.466  12.245  67.410  1.00  0.00    -0.181 A  
HETATM    9  C   UNL     1     -10.698  12.970  67.462  1.00  0.00    -0.238 A  
HETATM   10  C   UNL     1      -8.459  12.281  68.536  1.00  0.00    -0.077 C  
ENDROOT
BRANCH   9  11
HETATM   11  O   UNL     1     -10.993  13.456  68.730  1.00  0.00    -0.246 OA 
BRANCH  11  12
HETATM   12  C   UNL     1     -11.686  12.792  69.744  1.00  0.00    -0.282 A  
HETATM   13  C   UNL     1     -12.395  13.553  70.654  1.00  0.00    -0.358 A  
HETATM   14  C   UNL     1     -13.086  12.843  71.623  1.00  0.00    -0.335 A  
HETATM   15 BR   UNL     1     -12.421  15.445  70.610  1.00  0.00    -0.503 Br 
HETATM   16  N   UNL     1     -13.926  13.441  72.563  1.00  0.00    -0.751 NA 
HETATM   17  N   UNL     1     -13.071  11.503  71.692  1.00  0.00    -0.439 NA 
HETATM   18  H1  UNL     1     -14.434  12.918  73.276  1.00  0.00     0.000 HD 
HETATM   19  H2  UNL     1     -14.610  13.995  72.049  1.00  0.00     0.000 HD 
HETATM   20  C   UNL     1     -12.320  10.834  70.815  1.00  0.00    -0.383 A  
HETATM   21  N   UNL     1     -11.588  11.461  69.880  1.00  0.00    -0.315 NA 
BRANCH  20  22
HETATM   22  N   UNL     1     -12.298   9.434  70.778  1.00  0.00    -0.472 NA 
HETATM   23  H   UNL     1     -13.150   8.983  71.110  1.00  0.00     0.000 HD 
BRANCH  22  24
HETATM   24  C   UNL     1     -11.289   8.551  70.356  1.00  0.00    -0.182 A  
HETATM   25  C   UNL     1     -10.538   8.749  69.192  1.00  0.00    -0.200 A  
HETATM   26  C   UNL     1      -9.523   7.863  68.819  1.00  0.00    -0.147 A  
HETATM   27  C   UNL     1      -9.238   6.743  69.600  1.00  0.00    -0.145 A  
HETATM   28  C   UNL     1      -8.170   5.856  69.231  1.00  0.00    -0.113 C  
HETATM   29  C   UNL     1      -9.998   6.508  70.747  1.00  0.00    -0.205 A  
HETATM   30  C   UNL     1     -11.021   7.398  71.113  1.00  0.00    -0.265 A  
HETATM   31  N   UNL     1      -7.300   5.148  68.933  1.00  0.00    -0.064 NA 
ENDBRANCH  22  24
ENDBRANCH  20  22
ENDBRANCH  11  12
ENDBRANCH   9  11
TORSDOF 4
ENDMDL
MODEL       56
REMARK 921   NORMALIZED FREE ENERGY PREDICTED BY IDOCK:   -6.57 KCAL/MOL
REMARK 922        TOTAL FREE ENERGY PREDICTED BY IDOCK:   -8.76 KCAL/MOL
REMARK 923 INTER-LIGAND FREE ENERGY PREDICTED BY IDOCK:   -7.67 KCAL/MOL
REMARK 924 INTRA-LIGAND FREE ENERGY PREDICTED BY IDOCK:   -1.10 KCAL/MOL
REMARK 927      BINDING AFFINITY PREDICTED BY RF-SCORE:    0.00 PKD
ROOT
HETATM    1  C   UNL     1     -12.212  13.966  65.883  1.00  0.00    -0.497 C  
HETATM    2  C   UNL     1     -11.345  14.666  66.883  1.00  0.00    -0.361 A  
HETATM    3  C   UNL     1     -10.236  15.317  66.292  1.00  0.00    -0.300 A  
HETATM    4  C   UNL     1      -9.358  16.103  67.026  1.00  0.00    -0.232 A  
HETATM    5  C   UNL     1      -9.595  16.276  68.380  1.00  0.00    -0.216 A  
HETATM    6  C   UNL     1      -8.248  16.739  66.368  1.00  0.00    -0.314 C  
HETATM    7  N   UNL     1      -7.370  17.231  65.805  1.00  0.00    -0.298 NA 
HETATM    8  C   UNL     1     -10.680  15.626  69.011  1.00  0.00    -0.236 A  
HETATM    9  C   UNL     1     -11.552  14.760  68.278  1.00  0.00    -0.323 A  
HETATM   10  C   UNL     1     -10.877  15.915  70.481  1.00  0.00    -0.283 C  
ENDROOT
BRANCH   9  11
HETATM   11  O   UNL     1     -12.389  14.009  69.094  1.00  0.00    -0.313 OA 
BRANCH  11  12
HETATM   12  C   UNL     1     -12.227  12.673  69.462  1.00  0.00    -0.090 A  
HETATM   13  C   UNL     1     -12.649  12.289  70.721  1.00  0.00    -0.213 A  
HETATM   14  C   UNL     1     -12.490  10.945  71.024  1.00  0.00    -0.411 A  
HETATM   15 BR   UNL     1     -13.382  13.503  71.973  1.00  0.00    -0.586 Br 
HETATM   16  N   UNL     1     -12.942  10.365  72.210  1.00  0.00    -0.461 NA 
HETATM   17  N   UNL     1     -11.955  10.064  70.165  1.00  0.00    -0.181 NA 
HETATM   18  H1  UNL     1     -12.826   9.377  72.433  1.00  0.00     0.000 HD 
HETATM   19  H2  UNL     1     -13.937  10.578  72.291  1.00  0.00     0.000 HD 
HETATM   20  C   UNL     1     -11.519  10.515  68.988  1.00  0.00    -0.237 A  
HETATM   21  N   UNL     1     -11.598  11.811  68.648  1.00  0.00    -0.283 NA 
BRANCH  20  22
HETATM   22  N   UNL     1     -11.006   9.653  68.011  1.00  0.00    -0.475 NA 
HETATM   23  H   UNL     1     -11.541   8.795  67.873  1.00  0.00     0.000 HD 
BRANCH  22  24
HETATM   24  C   UNL     1      -9.873   9.779  67.190  1.00  0.00    -0.188 A  
HETATM   25  C   UNL     1      -9.949   9.936  65.802  1.00  0.00    -0.347 A  
HETATM   26  C   UNL     1      -8.798  10.087  65.021  1.00  0.00    -0.213 A  
HETATM   27  C   UNL     1      -7.534  10.074  65.610  1.00  0.00    -0.137 A  
HETATM   28  C   UNL     1      -6.359  10.267  64.808  1.00  0.00    -0.114 C  
HETATM   29  C   UNL     1      -7.435   9.885  66.990  1.00  0.00    -0.091 A  
HETATM   30  C   UNL     1      -8.593   9.727  67.768  1.00  0.00    -0.125 A  
HETATM   31  N   UNL     1      -5.414  10.431  64.155  1.00  0.00    -0.140 NA 
ENDBRANCH  22  24
ENDBRANCH  20  22
ENDBRANCH  11  12
ENDBRANCH   9  11
TORSDOF 4
ENDMDL
MODEL       57
REMARK 921   NORMALIZED FREE ENERGY PREDICTED BY IDOCK:   -6.51 KCAL/MOL
REMARK 922        TOTAL FREE ENERGY PREDICTED BY IDOCK:   -8.69 KCAL/MOL
REMARK 923 INTER-LIGAND FREE ENERGY PREDICTED BY IDOCK:   -8.06 KCAL/MOL
REMARK 924 INTRA-LIGAND FREE ENERGY PREDICTED BY IDOCK:   -0.63 KCAL/MOL
REMARK 927      BINDING AFFINITY PREDICTED BY RF-SCORE:    0.00 PKD
ROOT
HETATM    1  C   UNL     1     -11.219   9.342  70.738  1.00  0.00    -0.367 C  
HETATM    2  C   UNL     1     -10.786   8.083  70.053  1.00  0.00    -0.244 A  
HETATM    3  C   UNL     1     -10.388   7.070  70.958  1.00  0.00    -0.216 A  
HETATM    4  C   UNL     1     -10.040   5.794  70.539  1.00  0.00    -0.269 A  
HETATM    5  C   UNL     1     -10.113   5.496  69.188  1.00  0.00    -0.286 A  
HETATM    6  C   UNL     1      -9.644   4.807  71.508  1.00  0.00    -0.160 C  
HETATM    7  N   UNL     1      -9.330   4.045  72.315  1.00  0.00    -0.121 NA 
HETATM    8  C   UNL     1     -10.486   6.486  68.250  1.00  0.00    -0.263 A  
HETATM    9  C   UNL     1     -10.782   7.822  68.664  1.00  0.00    -0.047 A  
HETATM   10  C   UNL     1     -10.577   6.048  66.807  1.00  0.00    -0.359 C  
ENDROOT
BRANCH   9  11
HETATM   11  O   UNL     1     -10.870   8.716  67.603  1.00  0.00    -0.180 OA 
BRANCH  11  12
HETATM   12  C   UNL     1     -10.391  10.026  67.566  1.00  0.00    -0.232 A  
HETATM   13  C   UNL     1      -9.103  10.235  67.108  1.00  0.00    -0.142 A  
HETATM   14  C   UNL     1      -8.688  11.557  67.066  1.00  0.00    -0.169 A  
HETATM   15 BR   UNL     1      -7.957   8.823  66.584  1.00  0.00    -0.100 Br 
HETATM   16  N   UNL     1      -7.456  11.961  66.547  1.00  0.00    -0.369 NA 
HETATM   17  N   UNL     1      -9.470  12.578  67.449  1.00  0.00    -0.180 NA 
HETATM   18  H1  UNL     1      -7.151  12.933  66.516  1.00  0.00     0.000 HD 
HETATM   19  H2  UNL     1      -7.393  11.593  65.598  1.00  0.00     0.000 HD 
HETATM   20  C   UNL     1     -10.681  12.298  67.933  1.00  0.00    -0.215 A  
HETATM   21  N   UNL     1     -11.129  11.038  68.046  1.00  0.00    -0.262 NA 
BRANCH  20  22
HETATM   22  N   UNL     1     -11.582  13.307  68.296  1.00  0.00    -0.311 NA 
HETATM   23  H   UNL     1     -12.219  13.599  67.555  1.00  0.00     0.000 HD 
BRANCH  22  24
HETATM   24  C   UNL     1     -11.749  13.981  69.517  1.00  0.00    -0.313 A  
HETATM   25  C   UNL     1     -11.303  15.289  69.735  1.00  0.00    -0.306 A  
HETATM   26  C   UNL     1     -11.513  15.938  70.957  1.00  0.00    -0.461 A  
HETATM   27  C   UNL     1     -12.168  15.287  72.001  1.00  0.00    -0.441 A  
HETATM   28  C   UNL     1     -12.413  15.971  73.240  1.00  0.00    -0.535 C  
HETATM   29  C   UNL     1     -12.592  13.970  71.816  1.00  0.00    -0.376 A  
HETATM   30  C   UNL     1     -12.373  13.321  70.590  1.00  0.00    -0.416 A  
HETATM   31  N   UNL     1     -12.615  16.532  74.235  1.00  0.00    -0.723 NA 
ENDBRANCH  22  24
ENDBRANCH  20  22
ENDBRANCH  11  12
ENDBRANCH   9  11
TORSDOF 4
ENDMDL
MODEL       58
REMARK 921   NORMALIZED FREE ENERGY PREDICTED BY IDOCK:   -6.48 KCAL/MOL
REMARK 922        TOTAL FREE ENERGY PREDICTED BY IDOCK:   -8.65 KCAL/MOL
REMARK 923 INTER-LIGAND FREE ENERGY PREDICTED BY IDOCK:   -7.95 KCAL/MOL
REMARK 924 INTRA-LIGAND FREE ENERGY PREDICTED BY IDOCK:   -0.70 KCAL/MOL
REMARK 927      BINDING AFFINITY PREDICTED BY RF-SCORE:    0.00 PKD
ROOT
HETATM    1  C   UNL     1     -11.840  12.115  65.297  1.00  0.00    -0.356 C  
HETATM    2  C   UNL     1     -10.649  11.629  66.065  1.00  0.00    -0.303 A  
HETATM    3  C   UNL     1     -10.216  10.345  65.657  1.00  0.00    -0.308 A  
HETATM    4  C   UNL     1      -9.074   9.747  66.173  1.00  0.00    -0.198 A  
HETATM    5  C   UNL     1      -8.318  10.449  67.098  1.00  0.00    -0.126 A  
HETATM    6  C   UNL     1      -8.685   8.439  65.719  1.00  0.00    -0.169 C  
HETATM    7  N   UNL     1      -8.407   7.389  65.331  1.00  0.00    -0.133 NA 
HETATM    8  C   UNL     1      -8.729  11.726  67.546  1.00  0.00    -0.159 A  
HETATM    9  C   UNL     1      -9.939  12.321  67.072  1.00  0.00    -0.211 A  
HETATM   10  C   UNL     1      -7.813  12.425  68.523  1.00  0.00    -0.112 C  
ENDROOT
BRANCH   9  11
HETATM   11  O   UNL     1     -10.320  13.441  67.802  1.00  0.00    -0.233 OA 
BRANCH  11  12
HETATM   12  C   UNL     1     -11.189  13.476  68.894  1.00  0.00    -0.275 A  
HETATM   13  C   UNL     1     -11.718  14.699  69.265  1.00  0.00    -0.312 A  
HETATM   14  C   UNL     1     -12.596  14.673  70.337  1.00  0.00    -0.343 A  
HETATM   15 BR   UNL     1     -11.275  16.317  68.390  1.00  0.00    -0.298 Br 
HETATM   16  N   UNL     1     -13.293  15.795  70.788  1.00  0.00    -0.751 NA 
HETATM   17  N   UNL     1     -12.914  13.545  70.990  1.00  0.00    -0.247 NA 
HETATM   18  H1  UNL     1     -13.938  15.776  71.577  1.00  0.00     0.000 HD 
HETATM   19  H2  UNL     1     -13.801  16.176  69.990  1.00  0.00     0.000 HD 
HETATM   20  C   UNL     1     -12.323  12.410  70.614  1.00  0.00    -0.279 A  
HETATM   21  N   UNL     1     -11.427  12.370  69.614  1.00  0.00    -0.232 NA 
BRANCH  20  22
HETATM   22  N   UNL     1     -12.645  11.179  71.200  1.00  0.00    -0.402 NA 
HETATM   23  H   UNL     1     -13.344  11.228  71.941  1.00  0.00     0.000 HD 
BRANCH  22  24
HETATM   24  C   UNL     1     -12.161   9.888  70.931  1.00  0.00    -0.341 A  
HETATM   25  C   UNL     1     -11.134   9.634  70.015  1.00  0.00    -0.293 A  
HETATM   26  C   UNL     1     -10.659   8.336  69.794  1.00  0.00    -0.228 A  
HETATM   27  C   UNL     1     -11.209   7.254  70.479  1.00  0.00    -0.305 A  
HETATM   28  C   UNL     1     -10.692   5.930  70.275  1.00  0.00    -0.313 C  
HETATM   29  C   UNL     1     -12.258   7.482  71.372  1.00  0.00    -0.363 A  
HETATM   30  C   UNL     1     -12.735   8.785  71.585  1.00  0.00    -0.394 A  
HETATM   31  N   UNL     1     -10.264   4.864  70.112  1.00  0.00    -0.262 NA 
ENDBRANCH  22  24
ENDBRANCH  20  22
ENDBRANCH  11  12
ENDBRANCH   9  11
TORSDOF 4
ENDMDL
MODEL       59
REMARK 921   NORMALIZED FREE ENERGY PREDICTED BY IDOCK:   -6.48 KCAL/MOL
REMARK 922        TOTAL FREE ENERGY PREDICTED BY IDOCK:   -8.64 KCAL/MOL
REMARK 923 INTER-LIGAND FREE ENERGY PREDICTED BY IDOCK:   -7.89 KCAL/MOL
REMARK 924 INTRA-LIGAND FREE ENERGY PREDICTED BY IDOCK:   -0.76 KCAL/MOL
REMARK 927      BINDING AFFINITY PREDICTED BY RF-SCORE:    0.00 PKD
ROOT
HETATM    1  C   UNL     1     -10.837   7.027  67.003  1.00  0.00    -0.413 C  
HETATM    2  C   UNL     1     -10.368   5.661  67.400  1.00  0.00    -0.284 A  
HETATM    3  C   UNL     1      -9.960   4.875  66.296  1.00  0.00    -0.256 A  
HETATM    4  C   UNL     1      -9.403   3.613  66.447  1.00  0.00    -0.194 A  
HETATM    5  C   UNL     1      -9.216   3.120  67.728  1.00  0.00    -0.241 A  
HETATM    6  C   UNL     1      -9.008   2.862  65.285  1.00  0.00    -0.143 C  
HETATM    7  N   UNL     1      -8.706   2.291  64.330  1.00  0.00    -0.096 NA 
HETATM    8  C   UNL     1      -9.629   3.866  68.856  1.00  0.00    -0.200 A  
HETATM    9  C   UNL     1     -10.265   5.138  68.708  1.00  0.00    -0.132 A  
HETATM   10  C   UNL     1      -9.341   3.259  70.209  1.00  0.00    -0.242 C  
ENDROOT
BRANCH   9  11
HETATM   11  O   UNL     1     -10.835   5.604  69.887  1.00  0.00    -0.331 OA 
BRANCH  11  12
HETATM   12  C   UNL     1     -10.433   6.712  70.635  1.00  0.00    -0.217 A  
HETATM   13  C   UNL     1     -10.343   6.572  72.007  1.00  0.00    -0.199 A  
HETATM   14  C   UNL     1      -9.912   7.694  72.698  1.00  0.00    -0.223 A  
HETATM   15 BR   UNL     1     -10.790   4.969  72.908  1.00  0.00    -0.343 Br 
HETATM   16  N   UNL     1      -9.676   7.707  74.074  1.00  0.00    -0.368 NA 
HETATM   17  N   UNL     1      -9.607   8.851  72.090  1.00  0.00    -0.322 NA 
HETATM   18  H1  UNL     1      -9.359   8.532  74.582  1.00  0.00     0.000 HD 
HETATM   19  H2  UNL     1      -9.015   6.956  74.274  1.00  0.00     0.000 HD 
HETATM   20  C   UNL     1      -9.771   8.931  70.769  1.00  0.00    -0.227 A  
HETATM   21  N   UNL     1     -10.229   7.898  70.043  1.00  0.00    -0.203 NA 
BRANCH  20  22
HETATM   22  N   UNL     1      -9.417  10.079  70.049  1.00  0.00    -0.381 NA 
HETATM   23  H   UNL     1      -8.555  10.530  70.358  1.00  0.00     0.000 HD 
BRANCH  22  24
HETATM   24  C   UNL     1     -10.058  10.711  68.970  1.00  0.00    -0.213 A  
HETATM   25  C   UNL     1      -9.642  10.565  67.643  1.00  0.00    -0.175 A  
HETATM   26  C   UNL     1     -10.324  11.188  66.592  1.00  0.00    -0.286 A  
HETATM   27  C   UNL     1     -11.439  11.986  66.845  1.00  0.00    -0.402 A  
HETATM   28  C   UNL     1     -12.157  12.592  65.759  1.00  0.00    -0.423 C  
HETATM   29  C   UNL     1     -11.851  12.172  68.166  1.00  0.00    -0.362 A  
HETATM   30  C   UNL     1     -11.159  11.550  69.217  1.00  0.00    -0.305 A  
HETATM   31  N   UNL     1     -12.737  13.073  64.876  1.00  0.00    -0.706 NA 
ENDBRANCH  22  24
ENDBRANCH  20  22
ENDBRANCH  11  12
ENDBRANCH   9  11
TORSDOF 4
ENDMDL
MODEL       60
REMARK 921   NORMALIZED FREE ENERGY PREDICTED BY IDOCK:   -6.47 KCAL/MOL
REMARK 922        TOTAL FREE ENERGY PREDICTED BY IDOCK:   -8.64 KCAL/MOL
REMARK 923 INTER-LIGAND FREE ENERGY PREDICTED BY IDOCK:   -7.61 KCAL/MOL
REMARK 924 INTRA-LIGAND FREE ENERGY PREDICTED BY IDOCK:   -1.03 KCAL/MOL
REMARK 927      BINDING AFFINITY PREDICTED BY RF-SCORE:    0.00 PKD
ROOT
HETATM    1  C   UNL     1     -11.439  11.744  67.649  1.00  0.00    -0.370 C  
HETATM    2  C   UNL     1     -11.700  12.531  68.896  1.00  0.00    -0.367 A  
HETATM    3  C   UNL     1     -11.218  13.860  68.821  1.00  0.00    -0.302 A  
HETATM    4  C   UNL     1     -11.437  14.788  69.829  1.00  0.00    -0.330 A  
HETATM    5  C   UNL     1     -12.180  14.404  70.934  1.00  0.00    -0.413 A  
HETATM    6  C   UNL     1     -10.921  16.124  69.695  1.00  0.00    -0.346 C  
HETATM    7  N   UNL     1     -10.489  17.184  69.552  1.00  0.00    -0.230 NA 
HETATM    8  C   UNL     1     -12.662  13.081  71.055  1.00  0.00    -0.347 A  
HETATM    9  C   UNL     1     -12.384  12.098  70.054  1.00  0.00    -0.096 A  
HETATM   10  C   UNL     1     -13.497  12.776  72.277  1.00  0.00    -0.591 C  
ENDROOT
BRANCH   9  11
HETATM   11  O   UNL     1     -12.701  10.806  70.454  1.00  0.00    -0.327 OA 
BRANCH  11  12
HETATM   12  C   UNL     1     -11.826   9.845  70.963  1.00  0.00    -0.376 A  
HETATM   13  C   UNL     1     -12.368   8.750  71.611  1.00  0.00    -0.337 A  
HETATM   14  C   UNL     1     -11.456   7.812  72.071  1.00  0.00    -0.289 A  
HETATM   15 BR   UNL     1     -14.229   8.531  71.877  1.00  0.00    -0.535 Br 
HETATM   16  N   UNL     1     -11.827   6.605  72.665  1.00  0.00    -0.498 NA 
HETATM   17  N   UNL     1     -10.131   7.949  71.915  1.00  0.00    -0.185 NA 
HETATM   18  H1  UNL     1     -11.157   5.916  73.004  1.00  0.00     0.000 HD 
HETATM   19  H2  UNL     1     -12.450   6.127  72.014  1.00  0.00     0.000 HD 
HETATM   20  C   UNL     1      -9.675   9.058  71.330  1.00  0.00    -0.299 A  
HETATM   21  N   UNL     1     -10.499  10.028  70.902  1.00  0.00    -0.124 NA 
BRANCH  20  22
HETATM   22  N   UNL     1      -8.312   9.250  71.072  1.00  0.00    -0.306 NA 
HETATM   23  H   UNL     1      -7.699   9.102  71.873  1.00  0.00     0.000 HD 
BRANCH  22  24
HETATM   24  C   UNL     1      -7.653   9.615  69.885  1.00  0.00    -0.138 A  
HETATM   25  C   UNL     1      -8.032   9.140  68.625  1.00  0.00    -0.101 A  
HETATM   26  C   UNL     1      -7.369   9.548  67.462  1.00  0.00    -0.090 A  
HETATM   27  C   UNL     1      -6.297  10.437  67.533  1.00  0.00    -0.058 A  
HETATM   28  C   UNL     1      -5.644  10.880  66.333  1.00  0.00    -0.109 C  
HETATM   29  C   UNL     1      -5.882  10.896  68.784  1.00  0.00    -0.039 A  
HETATM   30  C   UNL     1      -6.546  10.478  69.948  1.00  0.00    -0.130 A  
HETATM   31  N   UNL     1      -5.126  11.241  65.359  1.00  0.00    -0.277 NA 
ENDBRANCH  22  24
ENDBRANCH  20  22
ENDBRANCH  11  12
ENDBRANCH   9  11
TORSDOF 4
ENDMDL
MODEL       61
REMARK 921   NORMALIZED FREE ENERGY PREDICTED BY IDOCK:   -6.45 KCAL/MOL
REMARK 922        TOTAL FREE ENERGY PREDICTED BY IDOCK:   -8.62 KCAL/MOL
REMARK 923 INTER-LIGAND FREE ENERGY PREDICTED BY IDOCK:   -8.07 KCAL/MOL
REMARK 924 INTRA-LIGAND FREE ENERGY PREDICTED BY IDOCK:   -0.54 KCAL/MOL
REMARK 927      BINDING AFFINITY PREDICTED BY RF-SCORE:    0.00 PKD
ROOT
HETATM    1  C   UNL     1      -8.921  10.843  67.751  1.00  0.00    -0.139 C  
HETATM    2  C   UNL     1      -9.411  11.015  66.346  1.00  0.00    -0.218 A  
HETATM    3  C   UNL     1      -8.468  10.599  65.377  1.00  0.00    -0.162 A  
HETATM    4  C   UNL     1      -8.754  10.585  64.019  1.00  0.00    -0.176 A  
HETATM    5  C   UNL     1     -10.019  10.966  63.604  1.00  0.00    -0.415 A  
HETATM    6  C   UNL     1      -7.751  10.151  63.083  1.00  0.00    -0.151 C  
HETATM    7  N   UNL     1      -6.922   9.798  62.363  1.00  0.00    -0.102 NA 
HETATM    8  C   UNL     1     -10.983  11.408  64.539  1.00  0.00    -0.346 A  
HETATM    9  C   UNL     1     -10.677  11.490  65.933  1.00  0.00    -0.272 A  
HETATM   10  C   UNL     1     -12.345  11.760  63.988  1.00  0.00    -0.341 C  
ENDROOT
BRANCH   9  11
HETATM   11  O   UNL     1     -11.634  12.184  66.663  1.00  0.00    -0.394 OA 
BRANCH  11  12
HETATM   12  C   UNL     1     -11.836  12.137  68.043  1.00  0.00    -0.285 A  
HETATM   13  C   UNL     1     -11.600  13.286  68.775  1.00  0.00    -0.312 A  
HETATM   14  C   UNL     1     -11.843  13.192  70.137  1.00  0.00    -0.257 A  
HETATM   15 BR   UNL     1     -10.970  14.890  67.992  1.00  0.00    -0.297 Br 
HETATM   16  N   UNL     1     -11.746  14.275  71.012  1.00  0.00    -0.506 NA 
HETATM   17  N   UNL     1     -12.270  12.064  70.723  1.00  0.00    -0.357 NA 
HETATM   18  H1  UNL     1     -11.925  14.206  72.013  1.00  0.00     0.000 HD 
HETATM   19  H2  UNL     1     -12.349  15.013  70.647  1.00  0.00     0.000 HD 
HETATM   20  C   UNL     1     -12.423  10.977  69.965  1.00  0.00    -0.250 A  
HETATM   21  N   UNL     1     -12.161  10.985  68.648  1.00  0.00    -0.524 NA 
BRANCH  20  22
HETATM   22  N   UNL     1     -12.925   9.778  70.486  1.00  0.00    -0.555 NA 
HETATM   23  H   UNL     1     -13.934   9.661  70.397  1.00  0.00     0.000 HD 
BRANCH  22  24
HETATM   24  C   UNL     1     -12.261   8.709  71.111  1.00  0.00    -0.238 A  
HETATM   25  C   UNL     1     -11.559   8.845  72.314  1.00  0.00    -0.332 A  
HETATM   26  C   UNL     1     -10.933   7.752  72.921  1.00  0.00    -0.467 A  
HETATM   27  C   UNL     1     -10.984   6.489  72.332  1.00  0.00    -0.279 A  
HETATM   28  C   UNL     1     -10.372   5.363  72.979  1.00  0.00    -0.197 C  
HETATM   29  C   UNL     1     -11.651   6.338  71.115  1.00  0.00    -0.339 A  
HETATM   30  C   UNL     1     -12.271   7.441  70.506  1.00  0.00    -0.034 A  
HETATM   31  N   UNL     1      -9.881   4.456  73.511  1.00  0.00    -0.127 NA 
ENDBRANCH  22  24
ENDBRANCH  20  22
ENDBRANCH  11  12
ENDBRANCH   9  11
TORSDOF 4
ENDMDL
MODEL       62
REMARK 921   NORMALIZED FREE ENERGY PREDICTED BY IDOCK:   -6.42 KCAL/MOL
REMARK 922        TOTAL FREE ENERGY PREDICTED BY IDOCK:   -8.58 KCAL/MOL
REMARK 923 INTER-LIGAND FREE ENERGY PREDICTED BY IDOCK:   -8.47 KCAL/MOL
REMARK 924 INTRA-LIGAND FREE ENERGY PREDICTED BY IDOCK:   -0.10 KCAL/MOL
REMARK 927      BINDING AFFINITY PREDICTED BY RF-SCORE:    0.00 PKD
ROOT
HETATM    1  C   UNL     1      -9.962  11.089  68.917  1.00  0.00    -0.201 C  
HETATM    2  C   UNL     1     -11.131  10.899  69.834  1.00  0.00    -0.311 A  
HETATM    3  C   UNL     1     -11.343   9.544  70.184  1.00  0.00    -0.241 A  
HETATM    4  C   UNL     1     -12.313   9.155  71.097  1.00  0.00    -0.330 A  
HETATM    5  C   UNL     1     -13.081  10.134  71.706  1.00  0.00    -0.568 A  
HETATM    6  C   UNL     1     -12.481   7.761  71.411  1.00  0.00    -0.320 C  
HETATM    7  N   UNL     1     -12.586   6.634  71.636  1.00  0.00    -0.324 NA 
HETATM    8  C   UNL     1     -12.913  11.496  71.369  1.00  0.00    -0.450 A  
HETATM    9  C   UNL     1     -11.963  11.902  70.380  1.00  0.00    -0.311 A  
HETATM   10  C   UNL     1     -13.769  12.488  72.121  1.00  0.00    -0.338 C  
ENDROOT
BRANCH   9  11
HETATM   11  O   UNL     1     -12.113  13.226  69.988  1.00  0.00    -0.322 OA 
BRANCH  11  12
HETATM   12  C   UNL     1     -11.753  13.786  68.761  1.00  0.00    -0.356 A  
HETATM   13  C   UNL     1     -11.345  15.107  68.743  1.00  0.00    -0.300 A  
HETATM   14  C   UNL     1     -10.972  15.603  67.503  1.00  0.00    -0.309 A  
HETATM   15 BR   UNL     1     -11.305  16.190  70.294  1.00  0.00    -0.316 Br 
HETATM   16  N   UNL     1     -10.448  16.883  67.313  1.00  0.00    -0.315 NA 
HETATM   17  N   UNL     1     -11.008  14.865  66.383  1.00  0.00    -0.332 NA 
HETATM   18  H1  UNL     1     -10.174  17.248  66.402  1.00  0.00     0.000 HD 
HETATM   19  H2  UNL     1      -9.641  16.975  67.931  1.00  0.00     0.000 HD 
HETATM   20  C   UNL     1     -11.466  13.615  66.465  1.00  0.00    -0.335 A  
HETATM   21  N   UNL     1     -11.888  13.086  67.625  1.00  0.00    -0.362 NA 
BRANCH  20  22
HETATM   22  N   UNL     1     -11.477  12.759  65.357  1.00  0.00    -0.314 NA 
HETATM   23  H   UNL     1     -12.362  12.726  64.850  1.00  0.00     0.000 HD 
BRANCH  22  24
HETATM   24  C   UNL     1     -10.465  11.938  64.831  1.00  0.00    -0.287 A  
HETATM   25  C   UNL     1      -9.351  11.530  65.572  1.00  0.00    -0.203 A  
HETATM   26  C   UNL     1      -8.378  10.688  65.022  1.00  0.00    -0.106 A  
HETATM   27  C   UNL     1      -8.490  10.241  63.706  1.00  0.00    -0.179 A  
HETATM   28  C   UNL     1      -7.507   9.348  63.160  1.00  0.00    -0.107 C  
HETATM   29  C   UNL     1      -9.577  10.664  62.939  1.00  0.00    -0.358 A  
HETATM   30  C   UNL     1     -10.547  11.514  63.494  1.00  0.00    -0.487 A  
HETATM   31  N   UNL     1      -6.714   8.620  62.726  1.00  0.00    -0.091 NA 
ENDBRANCH  22  24
ENDBRANCH  20  22
ENDBRANCH  11  12
ENDBRANCH   9  11
TORSDOF 4
ENDMDL
MODEL       63
REMARK 921   NORMALIZED FREE ENERGY PREDICTED BY IDOCK:   -6.41 KCAL/MOL
REMARK 922        TOTAL FREE ENERGY PREDICTED BY IDOCK:   -8.56 KCAL/MOL
REMARK 923 INTER-LIGAND FREE ENERGY PREDICTED BY IDOCK:   -7.65 KCAL/MOL
REMARK 924 INTRA-LIGAND FREE ENERGY PREDICTED BY IDOCK:   -0.91 KCAL/MOL
REMARK 927      BINDING AFFINITY PREDICTED BY RF-SCORE:    0.00 PKD
ROOT
HETATM    1  C   UNL     1     -10.431  18.454  67.695  1.00  0.00    -0.445 C  
HETATM    2  C   UNL     1      -8.995  18.069  67.871  1.00  0.00    -0.265 A  
HETATM    3  C   UNL     1      -8.242  19.049  68.561  1.00  0.00    -0.390 A  
HETATM    4  C   UNL     1      -6.913  18.854  68.913  1.00  0.00    -0.342 A  
HETATM    5  C   UNL     1      -6.316  17.644  68.601  1.00  0.00    -0.192 A  
HETATM    6  C   UNL     1      -6.201  19.888  69.614  1.00  0.00    -0.342 C  
HETATM    7  N   UNL     1      -5.663  20.741  70.174  1.00  0.00    -0.513 NA 
HETATM    8  C   UNL     1      -7.028  16.648  67.894  1.00  0.00    -0.157 A  
HETATM    9  C   UNL     1      -8.375  16.865  67.467  1.00  0.00    -0.189 A  
HETATM   10  C   UNL     1      -6.300  15.348  67.641  1.00  0.00    -0.177 C  
ENDROOT
BRANCH   9  11
HETATM   11  O   UNL     1      -8.826  15.904  66.571  1.00  0.00    -0.246 OA 
BRANCH  11  12
HETATM   12  C   UNL     1      -9.807  14.937  66.798  1.00  0.00    -0.246 A  
HETATM   13  C   UNL     1     -10.919  14.932  65.975  1.00  0.00    -0.334 A  
HETATM   14  C   UNL     1     -11.848  13.934  66.226  1.00  0.00    -0.408 A  
HETATM   15 BR   UNL     1     -11.184  16.205  64.600  1.00  0.00    -0.141 Br 
HETATM   16  N   UNL     1     -12.981  13.723  65.440  1.00  0.00    -0.727 NA 
HETATM   17  N   UNL     1     -11.697  13.030  67.206  1.00  0.00    -0.361 NA 
HETATM   18  H1  UNL     1     -13.664  12.989  65.625  1.00  0.00     0.000 HD 
HETATM   19  H2  UNL     1     -12.664  13.605  64.478  1.00  0.00     0.000 HD 
HETATM   20  C   UNL     1     -10.627  13.129  67.997  1.00  0.00    -0.236 A  
HETATM   21  N   UNL     1      -9.712  14.099  67.840  1.00  0.00    -0.218 NA 
BRANCH  20  22
HETATM   22  N   UNL     1     -10.363  12.189  69.002  1.00  0.00    -0.421 NA 
HETATM   23  H   UNL     1     -10.498  12.530  69.953  1.00  0.00     0.000 HD 
BRANCH  22  24
HETATM   24  C   UNL     1      -9.940  10.853  68.909  1.00  0.00    -0.196 A  
HETATM   25  C   UNL     1      -8.604  10.462  69.051  1.00  0.00    -0.158 A  
HETATM   26  C   UNL     1      -8.225   9.117  68.980  1.00  0.00    -0.115 A  
HETATM   27  C   UNL     1      -9.177   8.124  68.752  1.00  0.00    -0.144 A  
HETATM   28  C   UNL     1      -8.787   6.743  68.717  1.00  0.00    -0.131 C  
HETATM   29  C   UNL     1     -10.511   8.496  68.573  1.00  0.00    -0.205 A  
HETATM   30  C   UNL     1     -10.884   9.847  68.639  1.00  0.00    -0.244 A  
HETATM   31  N   UNL     1      -8.467   5.627  68.697  1.00  0.00    -0.105 NA 
ENDBRANCH  22  24
ENDBRANCH  20  22
ENDBRANCH  11  12
ENDBRANCH   9  11
TORSDOF 4
ENDMDL
MODEL       64
REMARK 921   NORMALIZED FREE ENERGY PREDICTED BY IDOCK:   -6.30 KCAL/MOL
REMARK 922        TOTAL FREE ENERGY PREDICTED BY IDOCK:   -8.43 KCAL/MOL
REMARK 923 INTER-LIGAND FREE ENERGY PREDICTED BY IDOCK:   -7.96 KCAL/MOL
REMARK 924 INTRA-LIGAND FREE ENERGY PREDICTED BY IDOCK:   -0.47 KCAL/MOL
REMARK 927      BINDING AFFINITY PREDICTED BY RF-SCORE:    0.00 PKD
ROOT
HETATM    1  C   UNL     1     -11.437  12.765  68.910  1.00  0.00    -0.352 C  
HETATM    2  C   UNL     1     -11.314  12.472  67.447  1.00  0.00    -0.371 A  
HETATM    3  C   UNL     1     -11.807  13.517  66.631  1.00  0.00    -0.450 A  
HETATM    4  C   UNL     1     -11.704  13.492  65.247  1.00  0.00    -0.341 A  
HETATM    5  C   UNL     1     -11.068  12.416  64.649  1.00  0.00    -0.348 A  
HETATM    6  C   UNL     1     -12.226  14.586  64.472  1.00  0.00    -0.465 C  
HETATM    7  N   UNL     1     -12.657  15.480  63.885  1.00  0.00    -0.592 NA 
HETATM    8  C   UNL     1     -10.580  11.343  65.428  1.00  0.00    -0.333 A  
HETATM    9  C   UNL     1     -10.741  11.327  66.849  1.00  0.00    -0.273 A  
HETATM   10  C   UNL     1      -9.865  10.239  64.684  1.00  0.00    -0.396 C  
ENDROOT
BRANCH   9  11
HETATM   11  O   UNL     1     -10.444  10.095  67.419  1.00  0.00    -0.221 OA 
BRANCH  11  12
HETATM   12  C   UNL     1      -9.854   9.864  68.663  1.00  0.00    -0.158 A  
HETATM   13  C   UNL     1      -8.553  10.291  68.854  1.00  0.00    -0.150 A  
HETATM   14  C   UNL     1      -8.025  10.063  70.115  1.00  0.00    -0.101 A  
HETATM   15 BR   UNL     1      -7.534  11.122  67.493  1.00  0.00    -0.109 Br 
HETATM   16  N   UNL     1      -6.764  10.508  70.513  1.00  0.00    -0.378 NA 
HETATM   17  N   UNL     1      -8.715   9.459  71.094  1.00  0.00    -0.275 NA 
HETATM   18  H1  UNL     1      -6.375  10.339  71.441  1.00  0.00     0.000 HD 
HETATM   19  H2  UNL     1      -6.732  11.514  70.350  1.00  0.00     0.000 HD 
HETATM   20  C   UNL     1      -9.946   9.022  70.822  1.00  0.00    -0.245 A  
HETATM   21  N   UNL     1     -10.502   9.168  69.609  1.00  0.00    -0.217 NA 
BRANCH  20  22
HETATM   22  N   UNL     1     -10.756   8.439  71.804  1.00  0.00    -0.262 NA 
HETATM   23  H   UNL     1     -11.494   9.043  72.165  1.00  0.00     0.000 HD 
BRANCH  22  24
HETATM   24  C   UNL     1     -10.716   7.154  72.371  1.00  0.00    -0.241 A  
HETATM   25  C   UNL     1     -10.376   6.919  73.708  1.00  0.00    -0.409 A  
HETATM   26  C   UNL     1     -10.374   5.627  74.244  1.00  0.00    -0.289 A  
HETATM   27  C   UNL     1     -10.703   4.529  73.450  1.00  0.00    -0.320 A  
HETATM   28  C   UNL     1     -10.735   3.210  74.016  1.00  0.00    -0.201 C  
HETATM   29  C   UNL     1     -11.013   4.738  72.104  1.00  0.00    -0.008 A  
HETATM   30  C   UNL     1     -11.006   6.036  71.570  1.00  0.00    -0.335 A  
HETATM   31  N   UNL     1     -10.767   2.147  74.481  1.00  0.00    -0.119 NA 
ENDBRANCH  22  24
ENDBRANCH  20  22
ENDBRANCH  11  12
ENDBRANCH   9  11
TORSDOF 4
ENDMDL
MODEL       65
REMARK 921   NORMALIZED FREE ENERGY PREDICTED BY IDOCK:   -6.30 KCAL/MOL
REMARK 922        TOTAL FREE ENERGY PREDICTED BY IDOCK:   -8.43 KCAL/MOL
REMARK 923 INTER-LIGAND FREE ENERGY PREDICTED BY IDOCK:   -8.00 KCAL/MOL
REMARK 924 INTRA-LIGAND FREE ENERGY PREDICTED BY IDOCK:   -0.42 KCAL/MOL
REMARK 927      BINDING AFFINITY PREDICTED BY RF-SCORE:    0.00 PKD
ROOT
HETATM    1  C   UNL     1      -7.970   9.600  70.151  1.00  0.00    -0.189 C  
HETATM    2  C   UNL     1      -9.313   9.306  70.744  1.00  0.00    -0.322 A  
HETATM    3  C   UNL     1      -9.253   8.390  71.822  1.00  0.00    -0.287 A  
HETATM    4  C   UNL     1     -10.369   8.052  72.574  1.00  0.00    -0.374 A  
HETATM    5  C   UNL     1     -11.579   8.656  72.273  1.00  0.00    -0.424 A  
HETATM    6  C   UNL     1     -10.243   7.114  73.657  1.00  0.00    -0.359 C  
HETATM    7  N   UNL     1     -10.102   6.357  74.516  1.00  0.00    -0.350 NA 
HETATM    8  C   UNL     1     -11.685   9.560  71.192  1.00  0.00    -0.438 A  
HETATM    9  C   UNL     1     -10.556   9.864  70.368  1.00  0.00    -0.302 A  
HETATM   10  C   UNL     1     -13.038  10.197  70.975  1.00  0.00    -0.458 C  
ENDROOT
BRANCH   9  11
HETATM   11  O   UNL     1     -10.894  10.554  69.210  1.00  0.00    -0.210 OA 
BRANCH  11  12
HETATM   12  C   UNL     1     -10.092  10.750  68.085  1.00  0.00    -0.164 A  
HETATM   13  C   UNL     1      -9.917   9.687  67.218  1.00  0.00    -0.197 A  
HETATM   14  C   UNL     1      -9.135   9.945  66.102  1.00  0.00    -0.158 A  
HETATM   15 BR   UNL     1     -10.673   7.979  67.521  1.00  0.00    -0.155 Br 
HETATM   16  N   UNL     1      -8.928   9.020  65.078  1.00  0.00    -0.352 NA 
HETATM   17  N   UNL     1      -8.570  11.139  65.870  1.00  0.00    -0.164 NA 
HETATM   18  H1  UNL     1      -8.352   9.209  64.258  1.00  0.00     0.000 HD 
HETATM   19  H2  UNL     1      -9.846   8.728  64.743  1.00  0.00     0.000 HD 
HETATM   20  C   UNL     1      -8.735  12.103  66.777  1.00  0.00    -0.183 A  
HETATM   21  N   UNL     1      -9.441  11.908  67.903  1.00  0.00    -0.187 NA 
BRANCH  20  22
HETATM   22  N   UNL     1      -8.232  13.395  66.582  1.00  0.00    -0.370 NA 
HETATM   23  H   UNL     1      -7.279  13.434  66.221  1.00  0.00     0.000 HD 
BRANCH  22  24
HETATM   24  C   UNL     1      -8.830  14.647  66.804  1.00  0.00    -0.241 A  
HETATM   25  C   UNL     1      -8.647  15.384  67.979  1.00  0.00    -0.151 A  
HETATM   26  C   UNL     1      -9.237  16.640  68.152  1.00  0.00    -0.220 A  
HETATM   27  C   UNL     1     -10.039  17.190  67.153  1.00  0.00    -0.295 A  
HETATM   28  C   UNL     1     -10.612  18.496  67.321  1.00  0.00    -0.413 C  
HETATM   29  C   UNL     1     -10.262  16.457  65.986  1.00  0.00    -0.373 A  
HETATM   30  C   UNL     1      -9.673  15.193  65.821  1.00  0.00    -0.379 A  
HETATM   31  N   UNL     1     -11.065  19.555  67.460  1.00  0.00    -0.285 NA 
ENDBRANCH  22  24
ENDBRANCH  20  22
ENDBRANCH  11  12
ENDBRANCH   9  11
TORSDOF 4
ENDMDL
MODEL       66
REMARK 921   NORMALIZED FREE ENERGY PREDICTED BY IDOCK:   -6.29 KCAL/MOL
REMARK 922        TOTAL FREE ENERGY PREDICTED BY IDOCK:   -8.42 KCAL/MOL
REMARK 923 INTER-LIGAND FREE ENERGY PREDICTED BY IDOCK:   -7.59 KCAL/MOL
REMARK 924 INTRA-LIGAND FREE ENERGY PREDICTED BY IDOCK:   -0.82 KCAL/MOL
REMARK 927      BINDING AFFINITY PREDICTED BY RF-SCORE:    0.00 PKD
ROOT
HETATM    1  C   UNL     1      -7.992  13.483  67.350  1.00  0.00    -0.165 C  
HETATM    2  C   UNL     1      -9.477  13.578  67.184  1.00  0.00    -0.244 A  
HETATM    3  C   UNL     1     -10.099  14.343  68.200  1.00  0.00    -0.226 A  
HETATM    4  C   UNL     1     -11.455  14.635  68.186  1.00  0.00    -0.346 A  
HETATM    5  C   UNL     1     -12.220  14.184  67.122  1.00  0.00    -0.348 A  
HETATM    6  C   UNL     1     -12.029  15.417  69.248  1.00  0.00    -0.310 C  
HETATM    7  N   UNL     1     -12.451  16.046  70.118  1.00  0.00    -0.185 NA 
HETATM    8  C   UNL     1     -11.641  13.400  66.098  1.00  0.00    -0.378 A  
HETATM    9  C   UNL     1     -10.258  13.036  66.138  1.00  0.00    -0.284 A  
HETATM   10  C   UNL     1     -12.551  12.995  64.962  1.00  0.00    -0.515 C  
ENDROOT
BRANCH   9  11
HETATM   11  O   UNL     1      -9.923  12.059  65.208  1.00  0.00    -0.251 OA 
BRANCH  11  12
HETATM   12  C   UNL     1      -9.558  10.738  65.471  1.00  0.00    -0.222 A  
HETATM   13  C   UNL     1      -9.211   9.934  64.402  1.00  0.00    -0.264 A  
HETATM   14  C   UNL     1      -8.830   8.640  64.722  1.00  0.00     0.008 A  
HETATM   15 BR   UNL     1      -9.260  10.533  62.607  1.00  0.00    -0.358 Br 
HETATM   16  N   UNL     1      -8.361   7.721  63.782  1.00  0.00    -0.374 NA 
HETATM   17  N   UNL     1      -8.804   8.180  65.982  1.00  0.00    -0.165 NA 
HETATM   18  H1  UNL     1      -8.081   6.769  64.017  1.00  0.00     0.000 HD 
HETATM   19  H2  UNL     1      -7.575   8.157  63.299  1.00  0.00     0.000 HD 
HETATM   20  C   UNL     1      -9.206   8.994  66.959  1.00  0.00    -0.136 A  
HETATM   21  N   UNL     1      -9.632  10.244  66.716  1.00  0.00    -0.167 NA 
BRANCH  20  22
HETATM   22  N   UNL     1      -9.151   8.614  68.306  1.00  0.00    -0.141 NA 
HETATM   23  H   UNL     1      -8.267   8.195  68.597  1.00  0.00     0.000 HD 
BRANCH  22  24
HETATM   24  C   UNL     1     -10.117   8.718  69.321  1.00  0.00    -0.204 A  
HETATM   25  C   UNL     1     -10.557   9.942  69.834  1.00  0.00    -0.312 A  
HETATM   26  C   UNL     1     -11.542  10.006  70.826  1.00  0.00    -0.444 A  
HETATM   27  C   UNL     1     -12.107   8.840  71.340  1.00  0.00    -0.361 A  
HETATM   28  C   UNL     1     -13.143   8.913  72.331  1.00  0.00    -0.418 C  
HETATM   29  C   UNL     1     -11.657   7.606  70.866  1.00  0.00    -0.299 A  
HETATM   30  C   UNL     1     -10.663   7.548  69.876  1.00  0.00    -0.254 A  
HETATM   31  N   UNL     1     -13.986   8.979  73.126  1.00  0.00    -0.230 NA 
ENDBRANCH  22  24
ENDBRANCH  20  22
ENDBRANCH  11  12
ENDBRANCH   9  11
TORSDOF 4
ENDMDL
MODEL       67
REMARK 921   NORMALIZED FREE ENERGY PREDICTED BY IDOCK:   -6.28 KCAL/MOL
REMARK 922        TOTAL FREE ENERGY PREDICTED BY IDOCK:   -8.40 KCAL/MOL
REMARK 923 INTER-LIGAND FREE ENERGY PREDICTED BY IDOCK:   -7.76 KCAL/MOL
REMARK 924 INTRA-LIGAND FREE ENERGY PREDICTED BY IDOCK:   -0.64 KCAL/MOL
REMARK 927      BINDING AFFINITY PREDICTED BY RF-SCORE:    0.00 PKD
ROOT
HETATM    1  C   UNL     1     -12.262  13.677  66.016  1.00  0.00    -0.492 C  
HETATM    2  C   UNL     1     -11.615  14.527  67.065  1.00  0.00    -0.402 A  
HETATM    3  C   UNL     1     -10.720  15.482  66.527  1.00  0.00    -0.304 A  
HETATM    4  C   UNL     1     -10.085  16.432  67.315  1.00  0.00    -0.270 A  
HETATM    5  C   UNL     1     -10.362  16.462  68.672  1.00  0.00    -0.273 A  
HETATM    6  C   UNL     1      -9.184  17.376  66.708  1.00  0.00    -0.260 C  
HETATM    7  N   UNL     1      -8.468  18.114  66.186  1.00  0.00    -0.490 NA 
HETATM    8  C   UNL     1     -11.235  15.512  69.250  1.00  0.00    -0.312 A  
HETATM    9  C   UNL     1     -11.842  14.487  68.460  1.00  0.00    -0.320 A  
HETATM   10  C   UNL     1     -11.505  15.658  70.730  1.00  0.00    -0.409 C  
ENDROOT
BRANCH   9  11
HETATM   11  O   UNL     1     -12.450  13.497  69.222  1.00  0.00    -0.179 OA 
BRANCH  11  12
HETATM   12  C   UNL     1     -11.983  12.200  69.442  1.00  0.00    -0.270 A  
HETATM   13  C   UNL     1     -12.334  11.573  70.623  1.00  0.00    -0.364 A  
HETATM   14  C   UNL     1     -11.867  10.277  70.778  1.00  0.00    -0.365 A  
HETATM   15 BR   UNL     1     -13.371  12.416  71.963  1.00  0.00    -0.359 Br 
HETATM   16  N   UNL     1     -12.200   9.465  71.863  1.00  0.00    -0.374 NA 
HETATM   17  N   UNL     1     -11.114   9.661  69.855  1.00  0.00    -0.241 NA 
HETATM   18  H1  UNL     1     -11.856   8.511  71.977  1.00  0.00     0.000 HD 
HETATM   19  H2  UNL     1     -13.218   9.427  71.912  1.00  0.00     0.000 HD 
HETATM   20  C   UNL     1     -10.766  10.345  68.764  1.00  0.00    -0.225 A  
HETATM   21  N   UNL     1     -11.144  11.619  68.571  1.00  0.00    -0.216 NA 
BRANCH  20  22
HETATM   22  N   UNL     1     -10.035   9.756  67.725  1.00  0.00    -0.160 NA 
HETATM   23  H   UNL     1      -9.585  10.415  67.090  1.00  0.00     0.000 HD 
BRANCH  22  24
HETATM   24  C   UNL     1      -9.823   8.401  67.416  1.00  0.00    -0.191 A  
HETATM   25  C   UNL     1      -8.549   7.832  67.312  1.00  0.00    -0.128 A  
HETATM   26  C   UNL     1      -8.378   6.473  67.030  1.00  0.00    -0.113 A  
HETATM   27  C   UNL     1      -9.482   5.645  66.833  1.00  0.00    -0.142 A  
HETATM   28  C   UNL     1      -9.301   4.244  66.581  1.00  0.00    -0.169 C  
HETATM   29  C   UNL     1     -10.762   6.200  66.900  1.00  0.00    -0.413 A  
HETATM   30  C   UNL     1     -10.928   7.567  67.176  1.00  0.00    -0.164 A  
HETATM   31  N   UNL     1      -9.148   3.110  66.386  1.00  0.00    -0.153 NA 
ENDBRANCH  22  24
ENDBRANCH  20  22
ENDBRANCH  11  12
ENDBRANCH   9  11
TORSDOF 4
ENDMDL
MODEL       68
REMARK 921   NORMALIZED FREE ENERGY PREDICTED BY IDOCK:   -6.28 KCAL/MOL
REMARK 922        TOTAL FREE ENERGY PREDICTED BY IDOCK:   -8.40 KCAL/MOL
REMARK 923 INTER-LIGAND FREE ENERGY PREDICTED BY IDOCK:   -8.60 KCAL/MOL
REMARK 924 INTRA-LIGAND FREE ENERGY PREDICTED BY IDOCK:    0.20 KCAL/MOL
REMARK 927      BINDING AFFINITY PREDICTED BY RF-SCORE:    0.00 PKD
ROOT
HETATM    1  C   UNL     1     -12.122  13.929  69.436  1.00  0.00    -0.384 C  
HETATM    2  C   UNL     1     -11.785  12.835  68.471  1.00  0.00    -0.371 A  
HETATM    3  C   UNL     1     -12.153  13.141  67.139  1.00  0.00    -0.343 A  
HETATM    4  C   UNL     1     -11.847  12.306  66.073  1.00  0.00    -0.409 A  
HETATM    5  C   UNL     1     -11.130  11.148  66.322  1.00  0.00    -0.176 A  
HETATM    6  C   UNL     1     -12.250  12.672  64.741  1.00  0.00    -0.465 C  
HETATM    7  N   UNL     1     -12.591  12.999  63.689  1.00  0.00    -0.731 NA 
HETATM    8  C   UNL     1     -10.761  10.797  67.641  1.00  0.00    -0.305 A  
HETATM    9  C   UNL     1     -11.130  11.615  68.754  1.00  0.00    -0.230 A  
HETATM   10  C   UNL     1      -9.944   9.536  67.800  1.00  0.00    -0.216 C  
ENDROOT
BRANCH   9  11
HETATM   11  O   UNL     1     -10.920  10.996  69.981  1.00  0.00    -0.216 OA 
BRANCH  11  12
HETATM   12  C   UNL     1     -11.624   9.913  70.507  1.00  0.00    -0.309 A  
HETATM   13  C   UNL     1     -12.626  10.172  71.424  1.00  0.00    -0.422 A  
HETATM   14  C   UNL     1     -13.312   9.062  71.894  1.00  0.00    -0.417 A  
HETATM   15 BR   UNL     1     -13.041  11.917  72.027  1.00  0.00    -0.255 Br 
HETATM   16  N   UNL     1     -14.410   9.143  72.751  1.00  0.00    -0.975 NA 
HETATM   17  N   UNL     1     -13.028   7.811  71.501  1.00  0.00    -0.335 NA 
HETATM   18  H1  UNL     1     -14.915   8.327  73.097  1.00  0.00     0.000 HD 
HETATM   19  H2  UNL     1     -15.095   9.757  72.309  1.00  0.00     0.000 HD 
HETATM   20  C   UNL     1     -12.012   7.630  70.656  1.00  0.00    -0.099 A  
HETATM   21  N   UNL     1     -11.275   8.655  70.198  1.00  0.00    -0.200 NA 
BRANCH  20  22
HETATM   22  N   UNL     1     -11.690   6.366  70.148  1.00  0.00    -0.470 NA 
HETATM   23  H   UNL     1     -12.355   5.994  69.470  1.00  0.00     0.000 HD 
BRANCH  22  24
HETATM   24  C   UNL     1     -10.597   5.526  70.423  1.00  0.00    -0.280 A  
HETATM   25  C   UNL     1     -10.128   5.282  71.719  1.00  0.00    -0.257 A  
HETATM   26  C   UNL     1      -9.054   4.417  71.955  1.00  0.00    -0.159 A  
HETATM   27  C   UNL     1      -8.411   3.779  70.895  1.00  0.00    -0.099 A  
HETATM   28  C   UNL     1      -7.334   2.864  71.147  1.00  0.00    -0.033 C  
HETATM   29  C   UNL     1      -8.842   4.035  69.592  1.00  0.00    -0.139 A  
HETATM   30  C   UNL     1      -9.916   4.909  69.360  1.00  0.00    -0.282 A  
HETATM   31  N   UNL     1      -6.469   2.120  71.358  1.00  0.00    -0.018 NA 
ENDBRANCH  22  24
ENDBRANCH  20  22
ENDBRANCH  11  12
ENDBRANCH   9  11
TORSDOF 4
ENDMDL
MODEL       69
REMARK 921   NORMALIZED FREE ENERGY PREDICTED BY IDOCK:   -6.27 KCAL/MOL
REMARK 922        TOTAL FREE ENERGY PREDICTED BY IDOCK:   -8.39 KCAL/MOL
REMARK 923 INTER-LIGAND FREE ENERGY PREDICTED BY IDOCK:   -7.58 KCAL/MOL
REMARK 924 INTRA-LIGAND FREE ENERGY PREDICTED BY IDOCK:   -0.81 KCAL/MOL
REMARK 927      BINDING AFFINITY PREDICTED BY RF-SCORE:    0.00 PKD
ROOT
HETATM    1  C   UNL     1      -7.684  10.909  69.033  1.00  0.00    -0.135 C  
HETATM    2  C   UNL     1      -8.614  11.230  67.905  1.00  0.00    -0.134 A  
HETATM    3  C   UNL     1      -9.187  12.520  68.012  1.00  0.00    -0.204 A  
HETATM    4  C   UNL     1     -10.004  13.054  67.025  1.00  0.00    -0.242 A  
HETATM    5  C   UNL     1     -10.242  12.306  65.884  1.00  0.00    -0.274 A  
HETATM    6  C   UNL     1     -10.557  14.372  67.192  1.00  0.00    -0.277 C  
HETATM    7  N   UNL     1     -10.983  15.430  67.363  1.00  0.00    -0.311 NA 
HETATM    8  C   UNL     1      -9.704  11.006  65.748  1.00  0.00    -0.268 A  
HETATM    9  C   UNL     1      -8.917  10.419  66.788  1.00  0.00    -0.140 A  
HETATM   10  C   UNL     1      -9.987  10.291  64.447  1.00  0.00    -0.331 C  
ENDROOT
BRANCH   9  11
HETATM   11  O   UNL     1      -8.696   9.059  66.605  1.00  0.00    -0.123 OA 
BRANCH  11  12
HETATM   12  C   UNL     1      -9.378   8.007  67.216  1.00  0.00    -0.144 A  
HETATM   13  C   UNL     1      -9.276   6.749  66.651  1.00  0.00    -0.159 A  
HETATM   14  C   UNL     1      -9.950   5.736  67.314  1.00  0.00    -0.154 A  
HETATM   15 BR   UNL     1      -8.298   6.412  65.066  1.00  0.00    -0.038 Br 
HETATM   16  N   UNL     1      -9.883   4.393  66.939  1.00  0.00    -0.213 NA 
HETATM   17  N   UNL     1     -10.668   5.947  68.428  1.00  0.00    -0.255 NA 
HETATM   18  H1  UNL     1     -10.379   3.648  67.426  1.00  0.00     0.000 HD 
HETATM   19  H2  UNL     1      -8.896   4.135  66.915  1.00  0.00     0.000 HD 
HETATM   20  C   UNL     1     -10.769   7.195  68.886  1.00  0.00    -0.175 A  
HETATM   21  N   UNL     1     -10.181   8.231  68.267  1.00  0.00    -0.203 NA 
BRANCH  20  22
HETATM   22  N   UNL     1     -11.445   7.492  70.076  1.00  0.00    -0.478 NA 
HETATM   23  H   UNL     1     -11.664   6.684  70.658  1.00  0.00     0.000 HD 
BRANCH  22  24
HETATM   24  C   UNL     1     -11.871   8.726  70.597  1.00  0.00    -0.112 A  
HETATM   25  C   UNL     1     -11.458   9.958  70.077  1.00  0.00    -0.274 A  
HETATM   26  C   UNL     1     -11.926  11.166  70.605  1.00  0.00    -0.459 A  
HETATM   27  C   UNL     1     -12.815  11.173  71.679  1.00  0.00    -0.524 A  
HETATM   28  C   UNL     1     -13.320  12.416  72.192  1.00  0.00    -0.403 C  
HETATM   29  C   UNL     1     -13.213   9.956  72.234  1.00  0.00    -0.434 A  
HETATM   30  C   UNL     1     -12.735   8.746  71.705  1.00  0.00    -0.394 A  
HETATM   31  N   UNL     1     -13.730  13.423  72.597  1.00  0.00    -0.722 NA 
ENDBRANCH  22  24
ENDBRANCH  20  22
ENDBRANCH  11  12
ENDBRANCH   9  11
TORSDOF 4
ENDMDL
MODEL       70
REMARK 921   NORMALIZED FREE ENERGY PREDICTED BY IDOCK:   -6.26 KCAL/MOL
REMARK 922        TOTAL FREE ENERGY PREDICTED BY IDOCK:   -8.38 KCAL/MOL
REMARK 923 INTER-LIGAND FREE ENERGY PREDICTED BY IDOCK:   -7.50 KCAL/MOL
REMARK 924 INTRA-LIGAND FREE ENERGY PREDICTED BY IDOCK:   -0.89 KCAL/MOL
REMARK 927      BINDING AFFINITY PREDICTED BY RF-SCORE:    0.00 PKD
ROOT
HETATM    1  C   UNL     1     -11.461  15.958  70.628  1.00  0.00    -0.426 C  
HETATM    2  C   UNL     1     -11.274  15.377  69.261  1.00  0.00    -0.300 A  
HETATM    3  C   UNL     1     -11.440  13.971  69.230  1.00  0.00    -0.344 A  
HETATM    4  C   UNL     1     -11.403  13.244  68.049  1.00  0.00    -0.325 A  
HETATM    5  C   UNL     1     -11.224  13.925  66.856  1.00  0.00    -0.324 A  
HETATM    6  C   UNL     1     -11.578  11.816  68.084  1.00  0.00    -0.323 C  
HETATM    7  N   UNL     1     -11.722  10.674  68.152  1.00  0.00    -0.466 NA 
HETATM    8  C   UNL     1     -11.033  15.325  66.846  1.00  0.00    -0.315 A  
HETATM    9  C   UNL     1     -11.003  16.076  68.063  1.00  0.00    -0.341 A  
HETATM   10  C   UNL     1     -10.890  15.977  65.491  1.00  0.00    -0.301 C  
ENDROOT
BRANCH   9  11
HETATM   11  O   UNL     1     -10.549  17.378  67.891  1.00  0.00    -0.367 OA 
BRANCH  11  12
HETATM   12  C   UNL     1      -9.238  17.785  67.639  1.00  0.00    -0.249 A  
HETATM   13  C   UNL     1      -9.044  18.933  66.893  1.00  0.00    -0.300 A  
HETATM   14  C   UNL     1      -7.724  19.306  66.697  1.00  0.00    -0.255 A  
HETATM   15 BR   UNL     1     -10.473  19.936  66.163  1.00  0.00    -0.533 Br 
HETATM   16  N   UNL     1      -7.345  20.483  66.049  1.00  0.00    -0.491 NA 
HETATM   17  N   UNL     1      -6.689  18.605  67.185  1.00  0.00    -0.196 NA 
HETATM   18  H1  UNL     1      -6.374  20.758  65.904  1.00  0.00     0.000 HD 
HETATM   19  H2  UNL     1      -7.810  21.255  66.527  1.00  0.00     0.000 HD 
HETATM   20  C   UNL     1      -6.948  17.477  67.848  1.00  0.00    -0.181 A  
HETATM   21  N   UNL     1      -8.200  17.031  68.034  1.00  0.00    -0.200 NA 
BRANCH  20  22
HETATM   22  N   UNL     1      -5.930  16.720  68.442  1.00  0.00    -0.124 NA 
HETATM   23  H   UNL     1      -5.036  17.201  68.534  1.00  0.00     0.000 HD 
BRANCH  22  24
HETATM   24  C   UNL     1      -5.945  15.404  68.934  1.00  0.00    -0.101 A  
HETATM   25  C   UNL     1      -5.981  14.279  68.103  1.00  0.00    -0.135 A  
HETATM   26  C   UNL     1      -5.966  12.982  68.628  1.00  0.00    -0.071 A  
HETATM   27  C   UNL     1      -5.925  12.777  70.007  1.00  0.00    -0.142 A  
HETATM   28  C   UNL     1      -5.872  11.445  70.539  1.00  0.00    -0.131 C  
HETATM   29  C   UNL     1      -5.922  13.887  70.855  1.00  0.00    -0.162 A  
HETATM   30  C   UNL     1      -5.945  15.185  70.322  1.00  0.00    -0.139 A  
HETATM   31  N   UNL     1      -5.821  10.366  70.963  1.00  0.00    -0.253 NA 
ENDBRANCH  22  24
ENDBRANCH  20  22
ENDBRANCH  11  12
ENDBRANCH   9  11
TORSDOF 4
ENDMDL
MODEL       71
REMARK 921   NORMALIZED FREE ENERGY PREDICTED BY IDOCK:   -6.25 KCAL/MOL
REMARK 922        TOTAL FREE ENERGY PREDICTED BY IDOCK:   -8.37 KCAL/MOL
REMARK 923 INTER-LIGAND FREE ENERGY PREDICTED BY IDOCK:   -7.77 KCAL/MOL
REMARK 924 INTRA-LIGAND FREE ENERGY PREDICTED BY IDOCK:   -0.60 KCAL/MOL
REMARK 927      BINDING AFFINITY PREDICTED BY RF-SCORE:    0.00 PKD
ROOT
HETATM    1  C   UNL     1     -10.201  10.660  69.381  1.00  0.00    -0.218 C  
HETATM    2  C   UNL     1     -10.727   9.336  69.840  1.00  0.00    -0.253 A  
HETATM    3  C   UNL     1     -11.787   9.455  70.769  1.00  0.00    -0.323 A  
HETATM    4  C   UNL     1     -12.482   8.354  71.251  1.00  0.00    -0.264 A  
HETATM    5  C   UNL     1     -12.139   7.097  70.780  1.00  0.00    -0.331 A  
HETATM    6  C   UNL     1     -13.550   8.540  72.195  1.00  0.00    -0.364 C  
HETATM    7  N   UNL     1     -14.400   8.730  72.952  1.00  0.00    -0.433 NA 
HETATM    8  C   UNL     1     -11.072   6.934  69.867  1.00  0.00    -0.333 A  
HETATM    9  C   UNL     1     -10.307   8.054  69.417  1.00  0.00    -0.217 A  
HETATM   10  C   UNL     1     -10.808   5.527  69.383  1.00  0.00    -0.236 C  
ENDROOT
BRANCH   9  11
HETATM   11  O   UNL     1      -9.149   7.689  68.741  1.00  0.00    -0.140 OA 
BRANCH  11  12
HETATM   12  C   UNL     1      -8.774   8.067  67.450  1.00  0.00    -0.124 A  
HETATM   13  C   UNL     1      -7.526   7.682  66.996  1.00  0.00    -0.095 A  
HETATM   14  C   UNL     1      -7.216   8.059  65.699  1.00  0.00    -0.071 A  
HETATM   15 BR   UNL     1      -6.297   6.718  68.065  1.00  0.00    -0.047 Br 
HETATM   16  N   UNL     1      -6.042   7.680  65.047  1.00  0.00    -0.038 NA 
HETATM   17  N   UNL     1      -8.058   8.761  64.924  1.00  0.00    -0.138 NA 
HETATM   18  H1  UNL     1      -5.814   7.958  64.093  1.00  0.00     0.000 HD 
HETATM   19  H2  UNL     1      -5.989   6.662  65.087  1.00  0.00     0.000 HD 
HETATM   20  C   UNL     1      -9.223   9.146  65.447  1.00  0.00    -0.202 A  
HETATM   21  N   UNL     1      -9.568   8.856  66.711  1.00  0.00    -0.183 NA 
BRANCH  20  22
HETATM   22  N   UNL     1     -10.184   9.826  64.687  1.00  0.00    -0.239 NA 
HETATM   23  H   UNL     1     -10.752   9.231  64.084  1.00  0.00     0.000 HD 
BRANCH  22  24
HETATM   24  C   UNL     1     -10.491  11.196  64.623  1.00  0.00    -0.335 A  
HETATM   25  C   UNL     1      -9.939  12.143  65.491  1.00  0.00    -0.269 A  
HETATM   26  C   UNL     1     -10.247  13.503  65.378  1.00  0.00    -0.316 A  
HETATM   27  C   UNL     1     -11.129  13.951  64.395  1.00  0.00    -0.332 A  
HETATM   28  C   UNL     1     -11.412  15.352  64.261  1.00  0.00    -0.171 C  
HETATM   29  C   UNL     1     -11.716  13.017  63.539  1.00  0.00    -0.532 A  
HETATM   30  C   UNL     1     -11.409  11.653  63.662  1.00  0.00    -0.485 A  
HETATM   31  N   UNL     1     -11.631  16.486  64.152  1.00  0.00    -1.080 NA 
ENDBRANCH  22  24
ENDBRANCH  20  22
ENDBRANCH  11  12
ENDBRANCH   9  11
TORSDOF 4
ENDMDL
MODEL       72
REMARK 921   NORMALIZED FREE ENERGY PREDICTED BY IDOCK:   -6.22 KCAL/MOL
REMARK 922        TOTAL FREE ENERGY PREDICTED BY IDOCK:   -8.33 KCAL/MOL
REMARK 923 INTER-LIGAND FREE ENERGY PREDICTED BY IDOCK:   -7.80 KCAL/MOL
REMARK 924 INTRA-LIGAND FREE ENERGY PREDICTED BY IDOCK:   -0.53 KCAL/MOL
REMARK 927      BINDING AFFINITY PREDICTED BY RF-SCORE:    0.00 PKD
ROOT
HETATM    1  C   UNL     1     -11.542  10.819  70.436  1.00  0.00    -0.431 C  
HETATM    2  C   UNL     1     -11.088   9.393  70.462  1.00  0.00    -0.330 A  
HETATM    3  C   UNL     1     -10.873   8.906  71.773  1.00  0.00    -0.436 A  
HETATM    4  C   UNL     1     -10.540   7.583  72.029  1.00  0.00    -0.248 A  
HETATM    5  C   UNL     1     -10.443   6.705  70.962  1.00  0.00    -0.246 A  
HETATM    6  C   UNL     1     -10.334   7.148  73.385  1.00  0.00    -0.349 C  
HETATM    7  N   UNL     1     -10.175   6.838  74.485  1.00  0.00    -0.227 NA 
HETATM    8  C   UNL     1     -10.630   7.157  69.636  1.00  0.00    -0.249 A  
HETATM    9  C   UNL     1     -10.907   8.532  69.356  1.00  0.00    -0.091 A  
HETATM   10  C   UNL     1     -10.546   6.112  68.548  1.00  0.00    -0.327 C  
ENDROOT
BRANCH   9  11
HETATM   11  O   UNL     1     -10.801   8.847  68.007  1.00  0.00    -0.148 OA 
BRANCH  11  12
HETATM   12  C   UNL     1     -10.210   9.983  67.453  1.00  0.00    -0.219 A  
HETATM   13  C   UNL     1      -8.870   9.922  67.117  1.00  0.00    -0.138 A  
HETATM   14  C   UNL     1      -8.341  11.068  66.545  1.00  0.00    -0.163 A  
HETATM   15 BR   UNL     1      -7.804   8.388  67.422  1.00  0.00    -0.099 Br 
HETATM   16  N   UNL     1      -7.035  11.154  66.061  1.00  0.00    -0.357 NA 
HETATM   17  N   UNL     1      -9.066  12.177  66.334  1.00  0.00    -0.204 NA 
HETATM   18  H1  UNL     1      -6.645  11.998  65.641  1.00  0.00     0.000 HD 
HETATM   19  H2  UNL     1      -6.910  10.397  65.390  1.00  0.00     0.000 HD 
HETATM   20  C   UNL     1     -10.338  12.185  66.734  1.00  0.00    -0.213 A  
HETATM   21  N   UNL     1     -10.902  11.126  67.337  1.00  0.00    -0.249 NA 
BRANCH  20  22
HETATM   22  N   UNL     1     -11.181  13.278  66.495  1.00  0.00    -0.298 NA 
HETATM   23  H   UNL     1     -12.099  13.038  66.122  1.00  0.00     0.000 HD 
BRANCH  22  24
HETATM   24  C   UNL     1     -10.964  14.653  66.687  1.00  0.00    -0.323 A  
HETATM   25  C   UNL     1     -10.565  15.514  65.659  1.00  0.00    -0.389 A  
HETATM   26  C   UNL     1     -10.386  16.884  65.883  1.00  0.00    -0.327 A  
HETATM   27  C   UNL     1     -10.592  17.428  67.150  1.00  0.00    -0.264 A  
HETATM   28  C   UNL     1     -10.443  18.840  67.364  1.00  0.00    -0.431 C  
HETATM   29  C   UNL     1     -10.958  16.580  68.197  1.00  0.00    -0.336 A  
HETATM   30  C   UNL     1     -11.130  15.206  67.969  1.00  0.00    -0.310 A  
HETATM   31  N   UNL     1     -10.329  19.983  67.529  1.00  0.00    -0.397 NA 
ENDBRANCH  22  24
ENDBRANCH  20  22
ENDBRANCH  11  12
ENDBRANCH   9  11
TORSDOF 4
ENDMDL
MODEL       73
REMARK 921   NORMALIZED FREE ENERGY PREDICTED BY IDOCK:   -6.21 KCAL/MOL
REMARK 922        TOTAL FREE ENERGY PREDICTED BY IDOCK:   -8.32 KCAL/MOL
REMARK 923 INTER-LIGAND FREE ENERGY PREDICTED BY IDOCK:   -7.38 KCAL/MOL
REMARK 924 INTRA-LIGAND FREE ENERGY PREDICTED BY IDOCK:   -0.94 KCAL/MOL
REMARK 927      BINDING AFFINITY PREDICTED BY RF-SCORE:    0.00 PKD
ROOT
HETATM    1  C   UNL     1      -9.940  15.738  70.325  1.00  0.00     0.138 C  
HETATM    2  C   UNL     1     -10.134  15.708  68.841  1.00  0.00    -0.217 A  
HETATM    3  C   UNL     1      -9.175  16.479  68.143  1.00  0.00    -0.217 A  
HETATM    4  C   UNL     1      -9.114  16.514  66.756  1.00  0.00    -0.262 A  
HETATM    5  C   UNL     1     -10.009  15.742  66.034  1.00  0.00    -0.358 A  
HETATM    6  C   UNL     1      -8.116  17.319  66.105  1.00  0.00    -0.237 C  
HETATM    7  N   UNL     1      -7.302  17.977  65.619  1.00  0.00    -0.541 NA 
HETATM    8  C   UNL     1     -10.995  14.973  66.694  1.00  0.00    -0.325 A  
HETATM    9  C   UNL     1     -11.110  14.983  68.119  1.00  0.00    -0.291 A  
HETATM   10  C   UNL     1     -11.894  14.133  65.817  1.00  0.00    -0.385 C  
ENDROOT
BRANCH   9  11
HETATM   11  O   UNL     1     -12.280  14.391  68.578  1.00  0.00    -0.268 OA 
BRANCH  11  12
HETATM   12  C   UNL     1     -12.389  13.326  69.473  1.00  0.00    -0.068 A  
HETATM   13  C   UNL     1     -12.950  13.573  70.713  1.00  0.00    -0.098 A  
HETATM   14  C   UNL     1     -13.059  12.475  71.552  1.00  0.00    -0.277 A  
HETATM   15 BR   UNL     1     -13.524  15.292  71.256  1.00  0.00    -0.597 Br 
HETATM   16  N   UNL     1     -13.682  12.520  72.800  1.00  0.00    -0.602 NA 
HETATM   17  N   UNL     1     -12.643  11.248  71.203  1.00  0.00    -0.403 NA 
HETATM   18  H1  UNL     1     -13.762  11.712  73.418  1.00  0.00     0.000 HD 
HETATM   19  H2  UNL     1     -14.624  12.885  72.656  1.00  0.00     0.000 HD 
HETATM   20  C   UNL     1     -12.060  11.094  70.013  1.00  0.00    -0.359 A  
HETATM   21  N   UNL     1     -11.879  12.123  69.170  1.00  0.00    -0.312 NA 
BRANCH  20  22
HETATM   22  N   UNL     1     -11.655   9.838  69.546  1.00  0.00    -0.453 NA 
HETATM   23  H   UNL     1     -12.380   9.305  69.066  1.00  0.00     0.000 HD 
BRANCH  22  24
HETATM   24  C   UNL     1     -10.409   9.193  69.633  1.00  0.00    -0.219 A  
HETATM   25  C   UNL     1      -9.821   8.520  68.557  1.00  0.00    -0.186 A  
HETATM   26  C   UNL     1      -8.565   7.914  68.674  1.00  0.00    -0.128 A  
HETATM   27  C   UNL     1      -7.868   7.956  69.881  1.00  0.00    -0.103 A  
HETATM   28  C   UNL     1      -6.564   7.363  69.985  1.00  0.00    -0.046 C  
HETATM   29  C   UNL     1      -8.453   8.593  70.977  1.00  0.00    -0.199 A  
HETATM   30  C   UNL     1      -9.716   9.193  70.856  1.00  0.00    -0.352 A  
HETATM   31  N   UNL     1      -5.507   6.890  70.060  1.00  0.00    -0.018 NA 
ENDBRANCH  22  24
ENDBRANCH  20  22
ENDBRANCH  11  12
ENDBRANCH   9  11
TORSDOF 4
ENDMDL
MODEL       74
REMARK 921   NORMALIZED FREE ENERGY PREDICTED BY IDOCK:   -6.19 KCAL/MOL
REMARK 922        TOTAL FREE ENERGY PREDICTED BY IDOCK:   -8.30 KCAL/MOL
REMARK 923 INTER-LIGAND FREE ENERGY PREDICTED BY IDOCK:   -7.75 KCAL/MOL
REMARK 924 INTRA-LIGAND FREE ENERGY PREDICTED BY IDOCK:   -0.55 KCAL/MOL
REMARK 927      BINDING AFFINITY PREDICTED BY RF-SCORE:    0.00 PKD
ROOT
HETATM    1  C   UNL     1      -8.296  10.072  69.687  1.00  0.00    -0.188 C  
HETATM    2  C   UNL     1      -9.220   9.358  70.625  1.00  0.00    -0.303 A  
HETATM    3  C   UNL     1      -8.536   8.662  71.651  1.00  0.00    -0.230 A  
HETATM    4  C   UNL     1      -9.202   8.012  72.680  1.00  0.00    -0.304 A  
HETATM    5  C   UNL     1     -10.586   8.071  72.716  1.00  0.00    -0.420 A  
HETATM    6  C   UNL     1      -8.450   7.322  73.693  1.00  0.00    -0.149 C  
HETATM    7  N   UNL     1      -7.813   6.778  74.486  1.00  0.00    -0.118 NA 
HETATM    8  C   UNL     1     -11.306   8.739  71.699  1.00  0.00    -0.390 A  
HETATM    9  C   UNL     1     -10.633   9.354  70.598  1.00  0.00    -0.290 A  
HETATM   10  C   UNL     1     -12.808   8.783  71.854  1.00  0.00    -0.423 C  
ENDROOT
BRANCH   9  11
HETATM   11  O   UNL     1     -11.491   9.728  69.571  1.00  0.00    -0.144 OA 
BRANCH  11  12
HETATM   12  C   UNL     1     -11.244  10.665  68.567  1.00  0.00    -0.282 A  
HETATM   13  C   UNL     1     -10.800  10.204  67.342  1.00  0.00    -0.261 A  
HETATM   14  C   UNL     1     -10.596  11.174  66.373  1.00  0.00    -0.261 A  
HETATM   15 BR   UNL     1     -10.468   8.374  66.992  1.00  0.00    -0.322 Br 
HETATM   16  N   UNL     1     -10.239  10.882  65.056  1.00  0.00    -0.289 NA 
HETATM   17  N   UNL     1     -10.803  12.481  66.596  1.00  0.00    -0.240 NA 
HETATM   18  H1  UNL     1     -10.089  11.596  64.343  1.00  0.00     0.000 HD 
HETATM   19  H2  UNL     1     -10.934  10.231  64.690  1.00  0.00     0.000 HD 
HETATM   20  C   UNL     1     -11.178  12.860  67.819  1.00  0.00    -0.280 A  
HETATM   21  N   UNL     1     -11.348  11.979  68.818  1.00  0.00    -0.253 NA 
BRANCH  20  22
HETATM   22  N   UNL     1     -11.475  14.195  68.119  1.00  0.00    -0.292 NA 
HETATM   23  H   UNL     1     -12.467  14.395  68.247  1.00  0.00     0.000 HD 
BRANCH  22  24
HETATM   24  C   UNL     1     -10.626  15.304  68.273  1.00  0.00    -0.244 A  
HETATM   25  C   UNL     1      -9.275  15.190  68.616  1.00  0.00    -0.196 A  
HETATM   26  C   UNL     1      -8.454  16.316  68.732  1.00  0.00    -0.240 A  
HETATM   27  C   UNL     1      -8.969  17.594  68.517  1.00  0.00    -0.289 A  
HETATM   28  C   UNL     1      -8.112  18.744  68.602  1.00  0.00    -0.333 C  
HETATM   29  C   UNL     1     -10.323  17.733  68.207  1.00  0.00    -0.387 A  
HETATM   30  C   UNL     1     -11.144  16.599  68.098  1.00  0.00    -0.285 A  
HETATM   31  N   UNL     1      -7.413  19.668  68.663  1.00  0.00    -0.339 NA 
ENDBRANCH  22  24
ENDBRANCH  20  22
ENDBRANCH  11  12
ENDBRANCH   9  11
TORSDOF 4
ENDMDL
MODEL       75
REMARK 921   NORMALIZED FREE ENERGY PREDICTED BY IDOCK:   -6.19 KCAL/MOL
REMARK 922        TOTAL FREE ENERGY PREDICTED BY IDOCK:   -8.29 KCAL/MOL
REMARK 923 INTER-LIGAND FREE ENERGY PREDICTED BY IDOCK:   -7.43 KCAL/MOL
REMARK 924 INTRA-LIGAND FREE ENERGY PREDICTED BY IDOCK:   -0.86 KCAL/MOL
REMARK 927      BINDING AFFINITY PREDICTED BY RF-SCORE:    0.00 PKD
ROOT
HETATM    1  C   UNL     1      -9.753  15.822  70.167  1.00  0.00     0.202 C  
HETATM    2  C   UNL     1      -9.953  15.836  68.684  1.00  0.00    -0.208 A  
HETATM    3  C   UNL     1      -9.004  16.638  68.006  1.00  0.00    -0.211 A  
HETATM    4  C   UNL     1      -8.950  16.716  66.621  1.00  0.00    -0.285 A  
HETATM    5  C   UNL     1      -9.840  15.957  65.879  1.00  0.00    -0.383 A  
HETATM    6  C   UNL     1      -7.962  17.550  65.991  1.00  0.00    -0.157 C  
HETATM    7  N   UNL     1      -7.157  18.231  65.523  1.00  0.00    -0.545 NA 
HETATM    8  C   UNL     1     -10.816  15.159  66.519  1.00  0.00    -0.317 A  
HETATM    9  C   UNL     1     -10.924  15.124  67.944  1.00  0.00    -0.302 A  
HETATM   10  C   UNL     1     -11.710  14.337  65.619  1.00  0.00    -0.358 C  
ENDROOT
BRANCH   9  11
HETATM   11  O   UNL     1     -12.087  14.507  68.389  1.00  0.00    -0.302 OA 
BRANCH  11  12
HETATM   12  C   UNL     1     -12.182  13.430  69.272  1.00  0.00    -0.176 A  
HETATM   13  C   UNL     1     -12.720  13.662  70.525  1.00  0.00    -0.190 A  
HETATM   14  C   UNL     1     -12.817  12.553  71.351  1.00  0.00    -0.260 A  
HETATM   15 BR   UNL     1     -13.278  15.376  71.101  1.00  0.00    -0.577 Br 
HETATM   16  N   UNL     1     -13.416  12.583  72.611  1.00  0.00    -0.560 NA 
HETATM   17  N   UNL     1     -12.412  11.330  70.978  1.00  0.00    -0.402 NA 
HETATM   18  H1  UNL     1     -13.487  11.768  73.219  1.00  0.00     0.000 HD 
HETATM   19  H2  UNL     1     -14.359  12.953  72.489  1.00  0.00     0.000 HD 
HETATM   20  C   UNL     1     -11.851  11.190  69.776  1.00  0.00    -0.349 A  
HETATM   21  N   UNL     1     -11.683  12.230  68.943  1.00  0.00    -0.313 NA 
BRANCH  20  22
HETATM   22  N   UNL     1     -11.459   9.938  69.285  1.00  0.00    -0.452 NA 
HETATM   23  H   UNL     1     -11.912   9.141  69.732  1.00  0.00     0.000 HD 
BRANCH  22  24
HETATM   24  C   UNL     1     -10.541   9.604  68.274  1.00  0.00    -0.225 A  
HETATM   25  C   UNL     1      -9.257   9.118  68.540  1.00  0.00    -0.136 A  
HETATM   26  C   UNL     1      -8.380   8.770  67.506  1.00  0.00    -0.109 A  
HETATM   27  C   UNL     1      -8.765   8.910  66.173  1.00  0.00    -0.177 A  
HETATM   28  C   UNL     1      -7.876   8.516  65.118  1.00  0.00    -0.116 C  
HETATM   29  C   UNL     1     -10.031   9.425  65.887  1.00  0.00    -0.327 A  
HETATM   30  C   UNL     1     -10.904   9.780  66.928  1.00  0.00    -0.120 A  
HETATM   31  N   UNL     1      -7.155   8.188  64.269  1.00  0.00    -0.076 NA 
ENDBRANCH  22  24
ENDBRANCH  20  22
ENDBRANCH  11  12
ENDBRANCH   9  11
TORSDOF 4
ENDMDL
MODEL       76
REMARK 921   NORMALIZED FREE ENERGY PREDICTED BY IDOCK:   -6.19 KCAL/MOL
REMARK 922        TOTAL FREE ENERGY PREDICTED BY IDOCK:   -8.29 KCAL/MOL
REMARK 923 INTER-LIGAND FREE ENERGY PREDICTED BY IDOCK:   -7.74 KCAL/MOL
REMARK 924 INTRA-LIGAND FREE ENERGY PREDICTED BY IDOCK:   -0.55 KCAL/MOL
REMARK 927      BINDING AFFINITY PREDICTED BY RF-SCORE:    0.00 PKD
ROOT
HETATM    1  C   UNL     1     -14.110   9.074  71.251  1.00  0.00    -0.164 C  
HETATM    2  C   UNL     1     -12.695   8.642  71.480  1.00  0.00    -0.351 A  
HETATM    3  C   UNL     1     -12.599   7.354  72.060  1.00  0.00    -0.262 A  
HETATM    4  C   UNL     1     -11.381   6.723  72.271  1.00  0.00    -0.310 A  
HETATM    5  C   UNL     1     -10.222   7.368  71.872  1.00  0.00    -0.213 A  
HETATM    6  C   UNL     1     -11.348   5.414  72.865  1.00  0.00    -0.303 C  
HETATM    7  N   UNL     1     -11.363   4.365  73.346  1.00  0.00    -0.300 NA 
HETATM    8  C   UNL     1     -10.275   8.663  71.307  1.00  0.00    -0.308 A  
HETATM    9  C   UNL     1     -11.519   9.350  71.148  1.00  0.00    -0.352 A  
HETATM   10  C   UNL     1      -8.959   9.261  70.866  1.00  0.00    -0.273 C  
ENDROOT
BRANCH   9  11
HETATM   11  O   UNL     1     -11.364  10.694  70.829  1.00  0.00    -0.301 OA 
BRANCH  11  12
HETATM   12  C   UNL     1     -11.407  11.266  69.557  1.00  0.00    -0.294 A  
HETATM   13  C   UNL     1     -11.890  12.557  69.440  1.00  0.00    -0.308 A  
HETATM   14  C   UNL     1     -11.885  13.086  68.159  1.00  0.00    -0.340 A  
HETATM   15 BR   UNL     1     -12.538  13.549  70.916  1.00  0.00    -0.383 Br 
HETATM   16  N   UNL     1     -12.250  14.402  67.868  1.00  0.00    -0.620 NA 
HETATM   17  N   UNL     1     -11.451  12.401  67.090  1.00  0.00    -0.335 NA 
HETATM   18  H1  UNL     1     -12.246  14.791  66.926  1.00  0.00     0.000 HD 
HETATM   19  H2  UNL     1     -11.674  15.011  68.450  1.00  0.00     0.000 HD 
HETATM   20  C   UNL     1     -11.051  11.141  67.268  1.00  0.00    -0.302 A  
HETATM   21  N   UNL     1     -11.074  10.550  68.473  1.00  0.00    -0.259 NA 
BRANCH  20  22
HETATM   22  N   UNL     1     -10.525  10.378  66.218  1.00  0.00    -0.197 NA 
HETATM   23  H   UNL     1     -10.530  10.839  65.308  1.00  0.00     0.000 HD 
BRANCH  22  24
HETATM   24  C   UNL     1      -9.992   9.078  66.217  1.00  0.00    -0.281 A  
HETATM   25  C   UNL     1     -10.602   8.001  66.869  1.00  0.00    -0.324 A  
HETATM   26  C   UNL     1     -10.055   6.714  66.822  1.00  0.00    -0.240 A  
HETATM   27  C   UNL     1      -8.871   6.472  66.126  1.00  0.00    -0.160 A  
HETATM   28  C   UNL     1      -8.335   5.143  66.050  1.00  0.00    -0.116 C  
HETATM   29  C   UNL     1      -8.229   7.540  65.496  1.00  0.00    -0.135 A  
HETATM   30  C   UNL     1      -8.778   8.830  65.552  1.00  0.00    -0.217 A  
HETATM   31  N   UNL     1      -7.911   4.064  65.986  1.00  0.00    -0.090 NA 
ENDBRANCH  22  24
ENDBRANCH  20  22
ENDBRANCH  11  12
ENDBRANCH   9  11
TORSDOF 4
ENDMDL
MODEL       77
REMARK 921   NORMALIZED FREE ENERGY PREDICTED BY IDOCK:   -6.19 KCAL/MOL
REMARK 922        TOTAL FREE ENERGY PREDICTED BY IDOCK:   -8.29 KCAL/MOL
REMARK 923 INTER-LIGAND FREE ENERGY PREDICTED BY IDOCK:   -7.36 KCAL/MOL
REMARK 924 INTRA-LIGAND FREE ENERGY PREDICTED BY IDOCK:   -0.93 KCAL/MOL
REMARK 927      BINDING AFFINITY PREDICTED BY RF-SCORE:    0.00 PKD
ROOT
HETATM    1  C   UNL     1     -10.556   6.179  69.268  1.00  0.00    -0.348 C  
HETATM    2  C   UNL     1      -9.205   6.760  68.988  1.00  0.00    -0.136 A  
HETATM    3  C   UNL     1      -8.407   5.930  68.165  1.00  0.00    -0.115 A  
HETATM    4  C   UNL     1      -7.156   6.319  67.706  1.00  0.00    -0.081 A  
HETATM    5  C   UNL     1      -6.688   7.578  68.046  1.00  0.00    -0.059 A  
HETATM    6  C   UNL     1      -6.392   5.430  66.872  1.00  0.00    -0.039 C  
HETATM    7  N   UNL     1      -5.810   4.689  66.207  1.00  0.00    -0.022 NA 
HETATM    8  C   UNL     1      -7.446   8.429  68.882  1.00  0.00    -0.091 A  
HETATM    9  C   UNL     1      -8.705   8.011  69.415  1.00  0.00    -0.137 A  
HETATM   10  C   UNL     1      -6.866   9.797  69.158  1.00  0.00    -0.054 C  
ENDROOT
BRANCH   9  11
HETATM   11  O   UNL     1      -9.182   8.851  70.414  1.00  0.00    -0.165 OA 
BRANCH  11  12
HETATM   12  C   UNL     1     -10.398   9.536  70.427  1.00  0.00    -0.276 A  
HETATM   13  C   UNL     1     -11.297   9.247  71.437  1.00  0.00    -0.364 A  
HETATM   14  C   UNL     1     -12.476   9.977  71.418  1.00  0.00    -0.411 A  
HETATM   15 BR   UNL     1     -10.969   7.935  72.760  1.00  0.00    -0.443 Br 
HETATM   16  N   UNL     1     -13.454   9.882  72.409  1.00  0.00    -0.625 NA 
HETATM   17  N   UNL     1     -12.746  10.899  70.482  1.00  0.00    -0.308 NA 
HETATM   18  H1  UNL     1     -14.322  10.418  72.395  1.00  0.00     0.000 HD 
HETATM   19  H2  UNL     1     -12.999  10.067  73.303  1.00  0.00     0.000 HD 
HETATM   20  C   UNL     1     -11.857  11.087  69.506  1.00  0.00    -0.333 A  
HETATM   21  N   UNL     1     -10.716  10.382  69.436  1.00  0.00    -0.227 NA 
BRANCH  20  22
HETATM   22  N   UNL     1     -12.032  12.073  68.527  1.00  0.00    -0.382 NA 
HETATM   23  H   UNL     1     -12.487  11.752  67.672  1.00  0.00     0.000 HD 
BRANCH  22  24
HETATM   24  C   UNL     1     -11.681  13.434  68.533  1.00  0.00    -0.357 A  
HETATM   25  C   UNL     1     -12.012  14.303  69.578  1.00  0.00    -0.384 A  
HETATM   26  C   UNL     1     -11.621  15.646  69.562  1.00  0.00    -0.366 A  
HETATM   27  C   UNL     1     -10.895  16.159  68.489  1.00  0.00    -0.313 A  
HETATM   28  C   UNL     1     -10.464  17.529  68.495  1.00  0.00    -0.361 C  
HETATM   29  C   UNL     1     -10.583  15.317  67.420  1.00  0.00    -0.282 A  
HETATM   30  C   UNL     1     -10.984  13.972  67.438  1.00  0.00    -0.302 A  
HETATM   31  N   UNL     1     -10.113  18.635  68.510  1.00  0.00    -0.381 NA 
ENDBRANCH  22  24
ENDBRANCH  20  22
ENDBRANCH  11  12
ENDBRANCH   9  11
TORSDOF 4
ENDMDL
MODEL       78
REMARK 921   NORMALIZED FREE ENERGY PREDICTED BY IDOCK:   -6.16 KCAL/MOL
REMARK 922        TOTAL FREE ENERGY PREDICTED BY IDOCK:   -8.26 KCAL/MOL
REMARK 923 INTER-LIGAND FREE ENERGY PREDICTED BY IDOCK:   -7.43 KCAL/MOL
REMARK 924 INTRA-LIGAND FREE ENERGY PREDICTED BY IDOCK:   -0.83 KCAL/MOL
REMARK 927      BINDING AFFINITY PREDICTED BY RF-SCORE:    0.00 PKD
ROOT
HETATM    1  C   UNL     1     -12.411  10.518  70.425  1.00  0.00    -0.409 C  
HETATM    2  C   UNL     1     -11.048  10.044  70.025  1.00  0.00    -0.350 A  
HETATM    3  C   UNL     1     -10.306   9.519  71.110  1.00  0.00    -0.330 A  
HETATM    4  C   UNL     1      -9.056   8.939  70.945  1.00  0.00    -0.283 A  
HETATM    5  C   UNL     1      -8.531   8.848  69.666  1.00  0.00    -0.129 A  
HETATM    6  C   UNL     1      -8.351   8.423  72.087  1.00  0.00    -0.164 C  
HETATM    7  N   UNL     1      -7.816   8.023  73.028  1.00  0.00    -0.138 NA 
HETATM    8  C   UNL     1      -9.232   9.378  68.559  1.00  0.00    -0.131 A  
HETATM    9  C   UNL     1     -10.490  10.038  68.727  1.00  0.00    -0.208 A  
HETATM   10  C   UNL     1      -8.594   9.189  67.202  1.00  0.00    -0.122 C  
ENDROOT
BRANCH   9  11
HETATM   11  O   UNL     1     -10.905  10.721  67.591  1.00  0.00    -0.236 OA 
BRANCH  11  12
HETATM   12  C   UNL     1     -10.535  12.009  67.202  1.00  0.00    -0.220 A  
HETATM   13  C   UNL     1     -10.445  12.280  65.849  1.00  0.00    -0.256 A  
HETATM   14  C   UNL     1     -10.101  13.582  65.518  1.00  0.00    -0.268 A  
HETATM   15 BR   UNL     1     -10.750  10.971  64.517  1.00  0.00    -0.239 Br 
HETATM   16  N   UNL     1     -10.053  14.055  64.207  1.00  0.00    -0.632 NA 
HETATM   17  N   UNL     1      -9.859  14.527  66.440  1.00  0.00    -0.278 NA 
HETATM   18  H1  UNL     1      -9.800  15.013  63.963  1.00  0.00     0.000 HD 
HETATM   19  H2  UNL     1     -10.962  13.866  63.783  1.00  0.00     0.000 HD 
HETATM   20  C   UNL     1      -9.909  14.181  67.727  1.00  0.00    -0.231 A  
HETATM   21  N   UNL     1     -10.190  12.927  68.117  1.00  0.00    -0.233 NA 
BRANCH  20  22
HETATM   22  N   UNL     1      -9.732  15.119  68.751  1.00  0.00    -0.213 NA 
HETATM   23  H   UNL     1     -10.246  14.919  69.609  1.00  0.00     0.000 HD 
BRANCH  22  24
HETATM   24  C   UNL     1      -8.959  16.292  68.787  1.00  0.00    -0.243 A  
HETATM   25  C   UNL     1      -9.477  17.557  68.491  1.00  0.00    -0.296 A  
HETATM   26  C   UNL     1      -8.683  18.707  68.565  1.00  0.00    -0.362 A  
HETATM   27  C   UNL     1      -7.339  18.618  68.927  1.00  0.00    -0.301 A  
HETATM   28  C   UNL     1      -6.539  19.805  69.036  1.00  0.00    -0.333 C  
HETATM   29  C   UNL     1      -6.794  17.360  69.193  1.00  0.00    -0.228 A  
HETATM   30  C   UNL     1      -7.594  16.210  69.111  1.00  0.00    -0.230 A  
HETATM   31  N   UNL     1      -5.900  20.769  69.130  1.00  0.00    -0.366 NA 
ENDBRANCH  22  24
ENDBRANCH  20  22
ENDBRANCH  11  12
ENDBRANCH   9  11
TORSDOF 4
ENDMDL
MODEL       79
REMARK 921   NORMALIZED FREE ENERGY PREDICTED BY IDOCK:   -6.15 KCAL/MOL
REMARK 922        TOTAL FREE ENERGY PREDICTED BY IDOCK:   -8.25 KCAL/MOL
REMARK 923 INTER-LIGAND FREE ENERGY PREDICTED BY IDOCK:   -8.94 KCAL/MOL
REMARK 924 INTRA-LIGAND FREE ENERGY PREDICTED BY IDOCK:    0.70 KCAL/MOL
REMARK 927      BINDING AFFINITY PREDICTED BY RF-SCORE:    0.00 PKD
ROOT
HETATM    1  C   UNL     1     -10.753  19.164  66.580  1.00  0.00    -0.467 C  
HETATM    2  C   UNL     1      -9.726  18.131  66.925  1.00  0.00    -0.318 A  
HETATM    3  C   UNL     1      -8.476  18.367  66.304  1.00  0.00    -0.218 A  
HETATM    4  C   UNL     1      -7.358  17.585  66.560  1.00  0.00    -0.306 A  
HETATM    5  C   UNL     1      -7.468  16.555  67.480  1.00  0.00    -0.170 A  
HETATM    6  C   UNL     1      -6.116  17.875  65.897  1.00  0.00    -0.222 C  
HETATM    7  N   UNL     1      -5.138  18.138  65.344  1.00  0.00    -0.174 NA 
HETATM    8  C   UNL     1      -8.704  16.274  68.106  1.00  0.00    -0.182 A  
HETATM    9  C   UNL     1      -9.877  17.031  67.798  1.00  0.00    -0.271 A  
HETATM   10  C   UNL     1      -8.706  15.158  69.125  1.00  0.00    -0.216 C  
ENDROOT
BRANCH   9  11
HETATM   11  O   UNL     1     -11.042  16.460  68.297  1.00  0.00    -0.347 OA 
BRANCH  11  12
HETATM   12  C   UNL     1     -11.410  15.115  68.240  1.00  0.00    -0.327 A  
HETATM   13  C   UNL     1     -11.540  14.529  66.994  1.00  0.00    -0.386 A  
HETATM   14  C   UNL     1     -11.880  13.185  66.996  1.00  0.00    -0.379 A  
HETATM   15 BR   UNL     1     -11.291  15.482  65.379  1.00  0.00    -0.067 Br 
HETATM   16  N   UNL     1     -11.964  12.411  65.838  1.00  0.00    -0.587 NA 
HETATM   17  N   UNL     1     -12.083  12.487  68.124  1.00  0.00    -0.303 NA 
HETATM   18  H1  UNL     1     -12.214  11.423  65.838  1.00  0.00     0.000 HD 
HETATM   19  H2  UNL     1     -11.071  12.496  65.351  1.00  0.00     0.000 HD 
HETATM   20  C   UNL     1     -11.995  13.131  69.289  1.00  0.00    -0.292 A  
HETATM   21  N   UNL     1     -11.716  14.442  69.359  1.00  0.00    -0.297 NA 
BRANCH  20  22
HETATM   22  N   UNL     1     -12.130  12.464  70.513  1.00  0.00    -0.484 NA 
HETATM   23  H   UNL     1     -12.319  13.069  71.312  1.00  0.00     0.000 HD 
BRANCH  22  24
HETATM   24  C   UNL     1     -12.047  11.095  70.817  1.00  0.00    -0.357 A  
HETATM   25  C   UNL     1     -10.929  10.311  70.511  1.00  0.00    -0.343 A  
HETATM   26  C   UNL     1     -10.871   8.956  70.855  1.00  0.00    -0.308 A  
HETATM   27  C   UNL     1     -11.940   8.345  71.508  1.00  0.00    -0.344 A  
HETATM   28  C   UNL     1     -11.860   6.963  71.891  1.00  0.00    -0.315 C  
HETATM   29  C   UNL     1     -13.079   9.101  71.793  1.00  0.00    -0.456 A  
HETATM   30  C   UNL     1     -13.134  10.458  71.439  1.00  0.00    -0.512 A  
HETATM   31  N   UNL     1     -11.786   5.849  72.206  1.00  0.00    -0.294 NA 
ENDBRANCH  22  24
ENDBRANCH  20  22
ENDBRANCH  11  12
ENDBRANCH   9  11
TORSDOF 4
ENDMDL
MODEL       80
REMARK 921   NORMALIZED FREE ENERGY PREDICTED BY IDOCK:   -6.11 KCAL/MOL
REMARK 922        TOTAL FREE ENERGY PREDICTED BY IDOCK:   -8.19 KCAL/MOL
REMARK 923 INTER-LIGAND FREE ENERGY PREDICTED BY IDOCK:   -7.52 KCAL/MOL
REMARK 924 INTRA-LIGAND FREE ENERGY PREDICTED BY IDOCK:   -0.67 KCAL/MOL
REMARK 927      BINDING AFFINITY PREDICTED BY RF-SCORE:    0.00 PKD
ROOT
HETATM    1  C   UNL     1      -7.498   9.758  69.675  1.00  0.00    -0.113 C  
HETATM    2  C   UNL     1      -8.125   8.432  69.373  1.00  0.00    -0.114 A  
HETATM    3  C   UNL     1      -7.647   7.393  70.206  1.00  0.00    -0.088 A  
HETATM    4  C   UNL     1      -8.163   6.105  70.158  1.00  0.00    -0.120 A  
HETATM    5  C   UNL     1      -9.202   5.839  69.282  1.00  0.00    -0.135 A  
HETATM    6  C   UNL     1      -7.634   5.091  71.031  1.00  0.00    -0.082 C  
HETATM    7  N   UNL     1      -7.182   4.305  71.745  1.00  0.00    -0.053 NA 
HETATM    8  C   UNL     1      -9.694   6.845  68.419  1.00  0.00    -0.137 A  
HETATM    9  C   UNL     1      -9.125   8.156  68.412  1.00  0.00    -0.136 A  
HETATM   10  C   UNL     1     -10.857   6.464  67.533  1.00  0.00    -0.438 C  
ENDROOT
BRANCH   9  11
HETATM   11  O   UNL     1      -9.544   8.928  67.336  1.00  0.00    -0.147 OA 
BRANCH  11  12
HETATM   12  C   UNL     1     -10.388  10.039  67.376  1.00  0.00    -0.238 A  
HETATM   13  C   UNL     1     -10.479  10.828  66.244  1.00  0.00    -0.226 A  
HETATM   14  C   UNL     1     -11.353  11.901  66.329  1.00  0.00    -0.334 A  
HETATM   15 BR   UNL     1      -9.474  10.494  64.676  1.00  0.00    -0.347 Br 
HETATM   16  N   UNL     1     -11.639  12.747  65.257  1.00  0.00    -0.328 NA 
HETATM   17  N   UNL     1     -12.063  12.175  67.434  1.00  0.00    -0.515 NA 
HETATM   18  H1  UNL     1     -12.281  13.537  65.319  1.00  0.00     0.000 HD 
HETATM   19  H2  UNL     1     -11.955  12.160  64.484  1.00  0.00     0.000 HD 
HETATM   20  C   UNL     1     -11.884  11.405  68.507  1.00  0.00    -0.294 A  
HETATM   21  N   UNL     1     -11.019  10.377  68.510  1.00  0.00    -0.238 NA 
BRANCH  20  22
HETATM   22  N   UNL     1     -12.631  11.583  69.678  1.00  0.00    -0.001 NA 
HETATM   23  H   UNL     1     -13.292  10.834  69.883  1.00  0.00     0.000 HD 
BRANCH  22  24
HETATM   24  C   UNL     1     -12.617  12.630  70.616  1.00  0.00    -0.160 A  
HETATM   25  C   UNL     1     -13.293  12.569  71.839  1.00  0.00    -0.467 A  
HETATM   26  C   UNL     1     -13.233  13.621  72.760  1.00  0.00    -0.431 A  
HETATM   27  C   UNL     1     -12.499  14.771  72.474  1.00  0.00    -0.414 A  
HETATM   28  C   UNL     1     -12.410  15.831  73.438  1.00  0.00    -0.528 C  
HETATM   29  C   UNL     1     -11.844  14.866  71.244  1.00  0.00    -0.391 A  
HETATM   30  C   UNL     1     -11.914  13.810  70.321  1.00  0.00    -0.397 A  
HETATM   31  N   UNL     1     -12.336  16.681  74.225  1.00  0.00    -0.647 NA 
ENDBRANCH  22  24
ENDBRANCH  20  22
ENDBRANCH  11  12
ENDBRANCH   9  11
TORSDOF 4
ENDMDL
MODEL       81
REMARK 921   NORMALIZED FREE ENERGY PREDICTED BY IDOCK:   -6.04 KCAL/MOL
REMARK 922        TOTAL FREE ENERGY PREDICTED BY IDOCK:   -8.10 KCAL/MOL
REMARK 923 INTER-LIGAND FREE ENERGY PREDICTED BY IDOCK:   -7.27 KCAL/MOL
REMARK 924 INTRA-LIGAND FREE ENERGY PREDICTED BY IDOCK:   -0.83 KCAL/MOL
REMARK 927      BINDING AFFINITY PREDICTED BY RF-SCORE:    0.00 PKD
ROOT
HETATM    1  C   UNL     1      -7.716   8.371  69.898  1.00  0.00    -0.092 C  
HETATM    2  C   UNL     1      -8.645   7.975  68.793  1.00  0.00    -0.128 A  
HETATM    3  C   UNL     1      -8.930   9.039  67.903  1.00  0.00    -0.135 A  
HETATM    4  C   UNL     1      -9.694   8.866  66.758  1.00  0.00    -0.282 A  
HETATM    5  C   UNL     1     -10.169   7.598  66.463  1.00  0.00    -0.178 A  
HETATM    6  C   UNL     1      -9.949   9.986  65.893  1.00  0.00    -0.269 C  
HETATM    7  N   UNL     1     -10.133  10.909  65.226  1.00  0.00    -0.264 NA 
HETATM    8  C   UNL     1      -9.923   6.514  67.336  1.00  0.00    -0.180 A  
HETATM    9  C   UNL     1      -9.195   6.696  68.554  1.00  0.00    -0.127 A  
HETATM   10  C   UNL     1     -10.447   5.165  66.902  1.00  0.00    -0.280 C  
ENDROOT
BRANCH   9  11
HETATM   11  O   UNL     1      -9.273   5.601  69.406  1.00  0.00    -0.119 OA 
BRANCH  11  12
HETATM   12  C   UNL     1     -10.048   5.489  70.561  1.00  0.00    -0.226 A  
HETATM   13  C   UNL     1      -9.836   4.398  71.384  1.00  0.00    -0.192 A  
HETATM   14  C   UNL     1     -10.613   4.351  72.531  1.00  0.00    -0.132 A  
HETATM   15 BR   UNL     1      -8.583   3.038  70.983  1.00  0.00    -0.120 Br 
HETATM   16  N   UNL     1     -10.469   3.375  73.518  1.00  0.00    -0.158 NA 
HETATM   17  N   UNL     1     -11.523   5.289  72.832  1.00  0.00    -0.307 NA 
HETATM   18  H1  UNL     1     -11.041   3.339  74.361  1.00  0.00     0.000 HD 
HETATM   19  H2  UNL     1      -9.493   3.385  73.814  1.00  0.00     0.000 HD 
HETATM   20  C   UNL     1     -11.715   6.284  71.965  1.00  0.00    -0.322 A  
HETATM   21  N   UNL     1     -11.031   6.367  70.813  1.00  0.00    -0.272 NA 
BRANCH  20  22
HETATM   22  N   UNL     1     -12.599   7.337  72.232  1.00  0.00    -0.512 NA 
HETATM   23  H   UNL     1     -13.383   7.095  72.839  1.00  0.00     0.000 HD 
BRANCH  22  24
HETATM   24  C   UNL     1     -12.581   8.673  71.798  1.00  0.00    -0.349 A  
HETATM   25  C   UNL     1     -13.559   9.607  72.157  1.00  0.00    -0.471 A  
HETATM   26  C   UNL     1     -13.491  10.937  71.727  1.00  0.00    -0.283 A  
HETATM   27  C   UNL     1     -12.443  11.366  70.914  1.00  0.00    -0.478 A  
HETATM   28  C   UNL     1     -12.360  12.740  70.507  1.00  0.00    -0.275 C  
HETATM   29  C   UNL     1     -11.475  10.442  70.516  1.00  0.00    -0.431 A  
HETATM   30  C   UNL     1     -11.552   9.107  70.944  1.00  0.00    -0.350 A  
HETATM   31  N   UNL     1     -12.293  13.854  70.187  1.00  0.00    -0.342 NA 
ENDBRANCH  22  24
ENDBRANCH  20  22
ENDBRANCH  11  12
ENDBRANCH   9  11
TORSDOF 4
ENDMDL
MODEL       82
REMARK 921   NORMALIZED FREE ENERGY PREDICTED BY IDOCK:   -6.03 KCAL/MOL
REMARK 922        TOTAL FREE ENERGY PREDICTED BY IDOCK:   -8.09 KCAL/MOL
REMARK 923 INTER-LIGAND FREE ENERGY PREDICTED BY IDOCK:   -7.33 KCAL/MOL
REMARK 924 INTRA-LIGAND FREE ENERGY PREDICTED BY IDOCK:   -0.76 KCAL/MOL
REMARK 927      BINDING AFFINITY PREDICTED BY RF-SCORE:    0.00 PKD
ROOT
HETATM    1  C   UNL     1      -9.380   8.705  72.043  1.00  0.00    -0.362 C  
HETATM    2  C   UNL     1      -9.511   7.320  71.488  1.00  0.00    -0.160 A  
HETATM    3  C   UNL     1      -9.802   6.353  72.479  1.00  0.00    -0.175 A  
HETATM    4  C   UNL     1     -10.056   5.024  72.170  1.00  0.00    -0.252 A  
HETATM    5  C   UNL     1     -10.051   4.641  70.839  1.00  0.00    -0.257 A  
HETATM    6  C   UNL     1     -10.346   4.089  73.223  1.00  0.00    -0.162 C  
HETATM    7  N   UNL     1     -10.573   3.368  74.095  1.00  0.00    -0.192 NA 
HETATM    8  C   UNL     1      -9.744   5.572  69.821  1.00  0.00    -0.236 A  
HETATM    9  C   UNL     1      -9.415   6.928  70.133  1.00  0.00    -0.162 A  
HETATM   10  C   UNL     1      -9.807   5.063  68.399  1.00  0.00    -0.209 C  
ENDROOT
BRANCH   9  11
HETATM   11  O   UNL     1      -8.890   7.627  69.053  1.00  0.00    -0.135 OA 
BRANCH  11  12
HETATM   12  C   UNL     1      -9.483   8.691  68.373  1.00  0.00    -0.138 A  
HETATM   13  C   UNL     1      -8.910   9.103  67.183  1.00  0.00    -0.119 A  
HETATM   14  C   UNL     1      -9.555  10.145  66.535  1.00  0.00    -0.187 A  
HETATM   15 BR   UNL     1      -7.339   8.321  66.475  1.00  0.00    -0.081 Br 
HETATM   16  N   UNL     1      -9.171  10.627  65.283  1.00  0.00    -0.186 NA 
HETATM   17  N   UNL     1     -10.659  10.733  67.022  1.00  0.00    -0.248 NA 
HETATM   18  H1  UNL     1      -9.645  11.394  64.806  1.00  0.00     0.000 HD 
HETATM   19  H2  UNL     1      -9.162   9.833  64.643  1.00  0.00     0.000 HD 
HETATM   20  C   UNL     1     -11.124  10.322  68.203  1.00  0.00    -0.264 A  
HETATM   21  N   UNL     1     -10.522   9.350  68.906  1.00  0.00    -0.213 NA 
BRANCH  20  22
HETATM   22  N   UNL     1     -12.305  10.839  68.751  1.00  0.00    -0.792 NA 
HETATM   23  H   UNL     1     -13.164  10.461  68.352  1.00  0.00     0.000 HD 
BRANCH  22  24
HETATM   24  C   UNL     1     -12.495  11.794  69.764  1.00  0.00     0.012 A  
HETATM   25  C   UNL     1     -13.012  11.479  71.024  1.00  0.00    -0.252 A  
HETATM   26  C   UNL     1     -13.162  12.453  72.017  1.00  0.00    -0.514 A  
HETATM   27  C   UNL     1     -12.806  13.778  71.768  1.00  0.00    -0.415 A  
HETATM   28  C   UNL     1     -12.927  14.767  72.803  1.00  0.00    -0.459 C  
HETATM   29  C   UNL     1     -12.320  14.121  70.505  1.00  0.00    -0.434 A  
HETATM   30  C   UNL     1     -12.179  13.140  69.511  1.00  0.00    -0.214 A  
HETATM   31  N   UNL     1     -13.020  15.559  73.645  1.00  0.00    -0.525 NA 
ENDBRANCH  22  24
ENDBRANCH  20  22
ENDBRANCH  11  12
ENDBRANCH   9  11
TORSDOF 4
ENDMDL
MODEL       83
REMARK 921   NORMALIZED FREE ENERGY PREDICTED BY IDOCK:   -6.00 KCAL/MOL
REMARK 922        TOTAL FREE ENERGY PREDICTED BY IDOCK:   -8.06 KCAL/MOL
REMARK 923 INTER-LIGAND FREE ENERGY PREDICTED BY IDOCK:   -9.08 KCAL/MOL
REMARK 924 INTRA-LIGAND FREE ENERGY PREDICTED BY IDOCK:    1.02 KCAL/MOL
REMARK 927      BINDING AFFINITY PREDICTED BY RF-SCORE:    0.00 PKD
ROOT
HETATM    1  C   UNL     1     -10.640  16.562  67.797  1.00  0.00    -0.332 C  
HETATM    2  C   UNL     1     -11.071  15.380  68.609  1.00  0.00    -0.290 A  
HETATM    3  C   UNL     1     -11.850  15.739  69.735  1.00  0.00    -0.352 A  
HETATM    4  C   UNL     1     -12.431  14.794  70.569  1.00  0.00    -0.411 A  
HETATM    5  C   UNL     1     -12.263  13.452  70.269  1.00  0.00    -0.405 A  
HETATM    6  C   UNL     1     -13.212  15.222  71.698  1.00  0.00    -0.446 C  
HETATM    7  N   UNL     1     -13.830  15.604  72.595  1.00  0.00    -0.581 NA 
HETATM    8  C   UNL     1     -11.475  13.053  69.165  1.00  0.00    -0.353 A  
HETATM    9  C   UNL     1     -10.817  14.017  68.339  1.00  0.00    -0.249 A  
HETATM   10  C   UNL     1     -11.390  11.568  68.899  1.00  0.00    -0.331 C  
ENDROOT
BRANCH   9  11
HETATM   11  O   UNL     1      -9.886  13.452  67.476  1.00  0.00    -0.219 OA 
BRANCH  11  12
HETATM   12  C   UNL     1     -10.141  12.569  66.425  1.00  0.00    -0.243 A  
HETATM   13  C   UNL     1     -10.717  13.076  65.275  1.00  0.00    -0.299 A  
HETATM   14  C   UNL     1     -10.922  12.162  64.253  1.00  0.00    -0.339 A  
HETATM   15 BR   UNL     1     -11.215  14.892  65.090  1.00  0.00    -0.407 Br 
HETATM   16  N   UNL     1     -11.407  12.514  62.992  1.00  0.00    -0.706 NA 
HETATM   17  N   UNL     1     -10.598  10.865  64.361  1.00  0.00    -0.339 NA 
HETATM   18  H1  UNL     1     -11.558  11.842  62.241  1.00  0.00     0.000 HD 
HETATM   19  H2  UNL     1     -10.796  13.244  62.626  1.00  0.00     0.000 HD 
HETATM   20  C   UNL     1     -10.097  10.434  65.520  1.00  0.00    -0.283 A  
HETATM   21  N   UNL     1      -9.916  11.255  66.567  1.00  0.00    -0.206 NA 
BRANCH  20  22
HETATM   22  N   UNL     1      -9.675   9.110  65.695  1.00  0.00    -0.447 NA 
HETATM   23  H   UNL     1      -9.167   8.714  64.904  1.00  0.00     0.000 HD 
BRANCH  22  24
HETATM   24  C   UNL     1      -9.837   8.240  66.786  1.00  0.00    -0.263 A  
HETATM   25  C   UNL     1     -10.884   7.316  66.877  1.00  0.00    -0.265 A  
HETATM   26  C   UNL     1     -10.997   6.446  67.967  1.00  0.00    -0.400 A  
HETATM   27  C   UNL     1     -10.067   6.487  69.005  1.00  0.00    -0.186 A  
HETATM   28  C   UNL     1     -10.167   5.567  70.103  1.00  0.00    -0.263 C  
HETATM   29  C   UNL     1      -9.033   7.424  68.950  1.00  0.00    -0.130 A  
HETATM   30  C   UNL     1      -8.929   8.299  67.858  1.00  0.00    -0.134 A  
HETATM   31  N   UNL     1     -10.249   4.815  70.983  1.00  0.00    -0.200 NA 
ENDBRANCH  22  24
ENDBRANCH  20  22
ENDBRANCH  11  12
ENDBRANCH   9  11
TORSDOF 4
ENDMDL
MODEL       84
REMARK 921   NORMALIZED FREE ENERGY PREDICTED BY IDOCK:   -5.99 KCAL/MOL
REMARK 922        TOTAL FREE ENERGY PREDICTED BY IDOCK:   -8.05 KCAL/MOL
REMARK 923 INTER-LIGAND FREE ENERGY PREDICTED BY IDOCK:   -7.00 KCAL/MOL
REMARK 924 INTRA-LIGAND FREE ENERGY PREDICTED BY IDOCK:   -1.04 KCAL/MOL
REMARK 927      BINDING AFFINITY PREDICTED BY RF-SCORE:    0.00 PKD
ROOT
HETATM    1  C   UNL     1     -11.940  13.791  69.101  1.00  0.00    -0.403 C  
HETATM    2  C   UNL     1     -11.563  14.310  67.748  1.00  0.00    -0.383 A  
HETATM    3  C   UNL     1     -12.008  13.477  66.694  1.00  0.00    -0.452 A  
HETATM    4  C   UNL     1     -11.848  13.818  65.358  1.00  0.00    -0.371 A  
HETATM    5  C   UNL     1     -11.256  15.032  65.051  1.00  0.00    -0.413 A  
HETATM    6  C   UNL     1     -12.321  12.929  64.332  1.00  0.00    -0.398 C  
HETATM    7  N   UNL     1     -12.712  12.188  63.538  1.00  0.00    -0.776 NA 
HETATM    8  C   UNL     1     -10.780  15.883  66.074  1.00  0.00    -0.289 A  
HETATM    9  C   UNL     1     -10.879  15.511  67.451  1.00  0.00    -0.312 A  
HETATM   10  C   UNL     1     -10.190  17.203  65.635  1.00  0.00    -0.162 C  
ENDROOT
BRANCH   9  11
HETATM   11  O   UNL     1     -10.136  16.328  68.294  1.00  0.00    -0.233 OA 
BRANCH  11  12
HETATM   12  C   UNL     1      -8.834  16.107  68.746  1.00  0.00    -0.233 A  
HETATM   13  C   UNL     1      -8.016  17.206  68.936  1.00  0.00    -0.208 A  
HETATM   14  C   UNL     1      -6.743  16.932  69.412  1.00  0.00    -0.220 A  
HETATM   15 BR   UNL     1      -8.570  18.976  68.561  1.00  0.00    -0.392 Br 
HETATM   16  N   UNL     1      -5.818  17.921  69.747  1.00  0.00    -0.237 NA 
HETATM   17  N   UNL     1      -6.315  15.686  69.668  1.00  0.00    -0.164 NA 
HETATM   18  H1  UNL     1      -4.882  17.720  70.097  1.00  0.00     0.000 HD 
HETATM   19  H2  UNL     1      -6.267  18.539  70.423  1.00  0.00     0.000 HD 
HETATM   20  C   UNL     1      -7.138  14.670  69.409  1.00  0.00    -0.157 A  
HETATM   21  N   UNL     1      -8.367  14.859  68.903  1.00  0.00    -0.172 NA 
BRANCH  20  22
HETATM   22  N   UNL     1      -6.793  13.345  69.706  1.00  0.00    -0.339 NA 
HETATM   23  H   UNL     1      -6.359  13.210  70.619  1.00  0.00     0.000 HD 
BRANCH  22  24
HETATM   24  C   UNL     1      -6.949  12.172  68.948  1.00  0.00    -0.102 A  
HETATM   25  C   UNL     1      -6.634  12.095  67.587  1.00  0.00    -0.116 A  
HETATM   26  C   UNL     1      -6.777  10.901  66.872  1.00  0.00    -0.106 A  
HETATM   27  C   UNL     1      -7.251   9.751  67.501  1.00  0.00    -0.089 A  
HETATM   28  C   UNL     1      -7.360   8.519  66.770  1.00  0.00    -0.082 C  
HETATM   29  C   UNL     1      -7.603   9.815  68.850  1.00  0.00    -0.081 A  
HETATM   30  C   UNL     1      -7.465  11.018  69.561  1.00  0.00    -0.031 A  
HETATM   31  N   UNL     1      -7.438   7.525  66.177  1.00  0.00    -0.081 NA 
ENDBRANCH  22  24
ENDBRANCH  20  22
ENDBRANCH  11  12
ENDBRANCH   9  11
TORSDOF 4
ENDMDL
MODEL       85
REMARK 921   NORMALIZED FREE ENERGY PREDICTED BY IDOCK:   -5.98 KCAL/MOL
REMARK 922        TOTAL FREE ENERGY PREDICTED BY IDOCK:   -8.04 KCAL/MOL
REMARK 923 INTER-LIGAND FREE ENERGY PREDICTED BY IDOCK:   -7.18 KCAL/MOL
REMARK 924 INTRA-LIGAND FREE ENERGY PREDICTED BY IDOCK:   -0.86 KCAL/MOL
REMARK 927      BINDING AFFINITY PREDICTED BY RF-SCORE:    0.00 PKD
ROOT
HETATM    1  C   UNL     1     -10.925   5.603  69.473  1.00  0.00    -0.266 C  
HETATM    2  C   UNL     1      -9.700   6.031  68.726  1.00  0.00    -0.156 A  
HETATM    3  C   UNL     1      -9.163   5.005  67.913  1.00  0.00    -0.135 A  
HETATM    4  C   UNL     1      -8.084   5.215  67.065  1.00  0.00    -0.104 A  
HETATM    5  C   UNL     1      -7.535   6.485  66.994  1.00  0.00    -0.087 A  
HETATM    6  C   UNL     1      -7.583   4.131  66.263  1.00  0.00    -0.089 C  
HETATM    7  N   UNL     1      -7.209   3.237  65.638  1.00  0.00    -0.069 NA 
HETATM    8  C   UNL     1      -8.030   7.532  67.805  1.00  0.00    -0.118 A  
HETATM    9  C   UNL     1      -9.096   7.309  68.731  1.00  0.00    -0.127 A  
HETATM   10  C   UNL     1      -7.390   8.889  67.620  1.00  0.00    -0.085 C  
ENDROOT
BRANCH   9  11
HETATM   11  O   UNL     1      -9.276   8.360  69.621  1.00  0.00    -0.158 OA 
BRANCH  11  12
HETATM   12  C   UNL     1     -10.352   9.248  69.667  1.00  0.00    -0.217 A  
HETATM   13  C   UNL     1     -11.100   9.305  70.829  1.00  0.00    -0.285 A  
HETATM   14  C   UNL     1     -12.139  10.223  70.831  1.00  0.00    -0.368 A  
HETATM   15 BR   UNL     1     -10.756   8.200  72.326  1.00  0.00    -0.408 Br 
HETATM   16  N   UNL     1     -12.936  10.480  71.946  1.00  0.00    -0.466 NA 
HETATM   17  N   UNL     1     -12.419  11.006  69.778  1.00  0.00    -0.254 NA 
HETATM   18  H1  UNL     1     -13.701  11.155  71.948  1.00  0.00     0.000 HD 
HETATM   19  H2  UNL     1     -12.312  10.728  72.714  1.00  0.00     0.000 HD 
HETATM   20  C   UNL     1     -11.692  10.858  68.670  1.00  0.00    -0.263 A  
HETATM   21  N   UNL     1     -10.701   9.956  68.583  1.00  0.00    -0.223 NA 
BRANCH  20  22
HETATM   22  N   UNL     1     -11.877  11.678  67.549  1.00  0.00    -0.624 NA 
HETATM   23  H   UNL     1     -12.618  11.377  66.916  1.00  0.00     0.000 HD 
BRANCH  22  24
HETATM   24  C   UNL     1     -11.207  12.849  67.158  1.00  0.00    -0.289 A  
HETATM   25  C   UNL     1     -11.856  13.943  66.576  1.00  0.00    -0.440 A  
HETATM   26  C   UNL     1     -11.158  15.104  66.225  1.00  0.00    -0.309 A  
HETATM   27  C   UNL     1      -9.783  15.195  66.437  1.00  0.00    -0.300 A  
HETATM   28  C   UNL     1      -9.079  16.403  66.108  1.00  0.00    -0.326 C  
HETATM   29  C   UNL     1      -9.110  14.102  66.985  1.00  0.00    -0.255 A  
HETATM   30  C   UNL     1      -9.814  12.937  67.329  1.00  0.00    -0.218 A  
HETATM   31  N   UNL     1      -8.517  17.384  65.848  1.00  0.00    -0.541 NA 
ENDBRANCH  22  24
ENDBRANCH  20  22
ENDBRANCH  11  12
ENDBRANCH   9  11
TORSDOF 4
ENDMDL
MODEL       86
REMARK 921   NORMALIZED FREE ENERGY PREDICTED BY IDOCK:   -5.96 KCAL/MOL
REMARK 922        TOTAL FREE ENERGY PREDICTED BY IDOCK:   -8.01 KCAL/MOL
REMARK 923 INTER-LIGAND FREE ENERGY PREDICTED BY IDOCK:   -7.84 KCAL/MOL
REMARK 924 INTRA-LIGAND FREE ENERGY PREDICTED BY IDOCK:   -0.17 KCAL/MOL
REMARK 927      BINDING AFFINITY PREDICTED BY RF-SCORE:    0.00 PKD
ROOT
HETATM    1  C   UNL     1     -13.938   9.194  71.388  1.00  0.00    -0.245 C  
HETATM    2  C   UNL     1     -12.492   8.958  71.080  1.00  0.00    -0.260 A  
HETATM    3  C   UNL     1     -12.105   7.607  71.248  1.00  0.00    -0.337 A  
HETATM    4  C   UNL     1     -10.833   7.152  70.927  1.00  0.00    -0.266 A  
HETATM    5  C   UNL     1      -9.922   8.051  70.396  1.00  0.00    -0.188 A  
HETATM    6  C   UNL     1     -10.500   5.767  71.120  1.00  0.00    -0.239 C  
HETATM    7  N   UNL     1     -10.271   4.649  71.292  1.00  0.00    -0.172 NA 
HETATM    8  C   UNL     1     -10.264   9.413  70.232  1.00  0.00    -0.295 A  
HETATM    9  C   UNL     1     -11.548   9.906  70.623  1.00  0.00    -0.335 A  
HETATM   10  C   UNL     1      -9.214  10.301  69.606  1.00  0.00    -0.155 C  
ENDROOT
BRANCH   9  11
HETATM   11  O   UNL     1     -11.620  11.293  70.638  1.00  0.00    -0.262 OA 
BRANCH  11  12
HETATM   12  C   UNL     1     -11.799  12.138  69.542  1.00  0.00    -0.321 A  
HETATM   13  C   UNL     1     -12.056  13.475  69.785  1.00  0.00    -0.318 A  
HETATM   14  C   UNL     1     -12.197  14.274  68.661  1.00  0.00    -0.170 A  
HETATM   15 BR   UNL     1     -12.225  14.187  71.530  1.00  0.00    -0.258 Br 
HETATM   16  N   UNL     1     -12.368  15.657  68.717  1.00  0.00    -0.509 NA 
HETATM   17  N   UNL     1     -12.102  13.794  67.411  1.00  0.00    -0.379 NA 
HETATM   18  H1  UNL     1     -12.472  16.245  67.891  1.00  0.00     0.000 HD 
HETATM   19  H2  UNL     1     -11.593  16.036  69.262  1.00  0.00     0.000 HD 
HETATM   20  C   UNL     1     -11.908  12.484  67.251  1.00  0.00    -0.311 A  
HETATM   21  N   UNL     1     -11.810  11.645  68.294  1.00  0.00    -0.516 NA 
BRANCH  20  22
HETATM   22  N   UNL     1     -11.735  11.914  65.983  1.00  0.00    -0.466 NA 
HETATM   23  H   UNL     1     -12.577  11.884  65.408  1.00  0.00     0.000 HD 
BRANCH  22  24
HETATM   24  C   UNL     1     -10.588  11.375  65.377  1.00  0.00    -0.275 A  
HETATM   25  C   UNL     1      -9.468  10.954  66.102  1.00  0.00    -0.230 A  
HETATM   26  C   UNL     1      -8.354  10.396  65.465  1.00  0.00    -0.168 A  
HETATM   27  C   UNL     1      -8.328  10.255  64.078  1.00  0.00    -0.165 A  
HETATM   28  C   UNL     1      -7.198   9.648  63.433  1.00  0.00    -0.113 C  
HETATM   29  C   UNL     1      -9.422  10.700  63.333  1.00  0.00    -0.352 A  
HETATM   30  C   UNL     1     -10.534  11.265  63.977  1.00  0.00    -0.440 A  
HETATM   31  N   UNL     1      -6.285   9.149  62.919  1.00  0.00    -0.094 NA 
ENDBRANCH  22  24
ENDBRANCH  20  22
ENDBRANCH  11  12
ENDBRANCH   9  11
TORSDOF 4
ENDMDL
MODEL       87
REMARK 921   NORMALIZED FREE ENERGY PREDICTED BY IDOCK:   -5.96 KCAL/MOL
REMARK 922        TOTAL FREE ENERGY PREDICTED BY IDOCK:   -8.01 KCAL/MOL
REMARK 923 INTER-LIGAND FREE ENERGY PREDICTED BY IDOCK:   -7.51 KCAL/MOL
REMARK 924 INTRA-LIGAND FREE ENERGY PREDICTED BY IDOCK:   -0.50 KCAL/MOL
REMARK 927      BINDING AFFINITY PREDICTED BY RF-SCORE:    0.00 PKD
ROOT
HETATM    1  C   UNL     1      -6.609  15.737  69.236  1.00  0.00    -0.160 C  
HETATM    2  C   UNL     1      -6.743  17.155  68.773  1.00  0.00    -0.200 A  
HETATM    3  C   UNL     1      -6.218  18.089  69.697  1.00  0.00    -0.205 A  
HETATM    4  C   UNL     1      -6.155  19.449  69.425  1.00  0.00    -0.314 A  
HETATM    5  C   UNL     1      -6.596  19.899  68.191  1.00  0.00    -0.302 A  
HETATM    6  C   UNL     1      -5.611  20.349  70.406  1.00  0.00    -0.322 C  
HETATM    7  N   UNL     1      -5.170  21.039  71.218  1.00  0.00    -0.541 NA 
HETATM    8  C   UNL     1      -7.145  19.000  67.249  1.00  0.00    -0.219 A  
HETATM    9  C   UNL     1      -7.277  17.607  67.546  1.00  0.00    -0.181 A  
HETATM   10  C   UNL     1      -7.557  19.585  65.918  1.00  0.00    -0.306 C  
ENDROOT
BRANCH   9  11
HETATM   11  O   UNL     1      -8.067  16.925  66.628  1.00  0.00    -0.208 OA 
BRANCH  11  12
HETATM   12  C   UNL     1      -8.932  15.862  66.890  1.00  0.00    -0.231 A  
HETATM   13  C   UNL     1     -10.128  16.138  67.526  1.00  0.00    -0.256 A  
HETATM   14  C   UNL     1     -10.962  15.050  67.736  1.00  0.00    -0.298 A  
HETATM   15 BR   UNL     1     -10.611  17.876  68.096  1.00  0.00    -0.299 Br 
HETATM   16  N   UNL     1     -12.242  15.156  68.280  1.00  0.00    -0.523 NA 
HETATM   17  N   UNL     1     -10.639  13.803  67.361  1.00  0.00    -0.259 NA 
HETATM   18  H1  UNL     1     -12.855  14.356  68.435  1.00  0.00     0.000 HD 
HETATM   19  H2  UNL     1     -12.759  15.827  67.710  1.00  0.00     0.000 HD 
HETATM   20  C   UNL     1      -9.444  13.601  66.803  1.00  0.00    -0.270 A  
HETATM   21  N   UNL     1      -8.569  14.601  66.612  1.00  0.00    -0.167 NA 
BRANCH  20  22
HETATM   22  N   UNL     1      -9.055  12.343  66.326  1.00  0.00    -0.393 NA 
HETATM   23  H   UNL     1      -8.441  12.364  65.513  1.00  0.00     0.000 HD 
BRANCH  22  24
HETATM   24  C   UNL     1      -9.375  11.055  66.790  1.00  0.00    -0.181 A  
HETATM   25  C   UNL     1      -9.428  10.724  68.148  1.00  0.00    -0.161 A  
HETATM   26  C   UNL     1      -9.778   9.437  68.572  1.00  0.00    -0.160 A  
HETATM   27  C   UNL     1     -10.075   8.441  67.642  1.00  0.00    -0.268 A  
HETATM   28  C   UNL     1     -10.470   7.133  68.084  1.00  0.00    -0.200 C  
HETATM   29  C   UNL     1      -9.996   8.743  66.281  1.00  0.00    -0.315 A  
HETATM   30  C   UNL     1      -9.637  10.033  65.862  1.00  0.00    -0.283 A  
HETATM   31  N   UNL     1     -10.796   6.081  68.448  1.00  0.00    -0.285 NA 
ENDBRANCH  22  24
ENDBRANCH  20  22
ENDBRANCH  11  12
ENDBRANCH   9  11
TORSDOF 4
ENDMDL
MODEL       88
REMARK 921   NORMALIZED FREE ENERGY PREDICTED BY IDOCK:   -5.96 KCAL/MOL
REMARK 922        TOTAL FREE ENERGY PREDICTED BY IDOCK:   -8.01 KCAL/MOL
REMARK 923 INTER-LIGAND FREE ENERGY PREDICTED BY IDOCK:   -7.53 KCAL/MOL
REMARK 924 INTRA-LIGAND FREE ENERGY PREDICTED BY IDOCK:   -0.47 KCAL/MOL
REMARK 927      BINDING AFFINITY PREDICTED BY RF-SCORE:    0.00 PKD
ROOT
HETATM    1  C   UNL     1      -9.989  13.445  66.559  1.00  0.00    -0.286 C  
HETATM    2  C   UNL     1      -8.633  12.975  66.985  1.00  0.00    -0.165 A  
HETATM    3  C   UNL     1      -8.391  11.619  66.660  1.00  0.00    -0.154 A  
HETATM    4  C   UNL     1      -7.164  11.009  66.880  1.00  0.00    -0.133 A  
HETATM    5  C   UNL     1      -6.133  11.766  67.412  1.00  0.00    -0.108 A  
HETATM    6  C   UNL     1      -6.980   9.626  66.529  1.00  0.00    -0.085 C  
HETATM    7  N   UNL     1      -6.873   8.516  66.235  1.00  0.00    -0.072 NA 
HETATM    8  C   UNL     1      -6.340  13.118  67.768  1.00  0.00    -0.156 A  
HETATM    9  C   UNL     1      -7.619  13.738  67.608  1.00  0.00    -0.181 A  
HETATM   10  C   UNL     1      -5.140  13.868  68.299  1.00  0.00    -0.109 C  
ENDROOT
BRANCH   9  11
HETATM   11  O   UNL     1      -7.714  14.969  68.245  1.00  0.00    -0.104 OA 
BRANCH  11  12
HETATM   12  C   UNL     1      -8.869  15.728  68.440  1.00  0.00    -0.185 A  
HETATM   13  C   UNL     1      -9.052  16.850  67.653  1.00  0.00    -0.223 A  
HETATM   14  C   UNL     1     -10.229  17.550  67.869  1.00  0.00    -0.350 A  
HETATM   15 BR   UNL     1      -7.784  17.421  66.369  1.00  0.00    -0.355 Br 
HETATM   16  N   UNL     1     -10.620  18.651  67.106  1.00  0.00    -0.421 NA 
HETATM   17  N   UNL     1     -11.137  17.182  68.786  1.00  0.00    -0.119 NA 
HETATM   18  H1  UNL     1     -11.485  19.166  67.265  1.00  0.00     0.000 HD 
HETATM   19  H2  UNL     1     -10.618  18.357  66.128  1.00  0.00     0.000 HD 
HETATM   20  C   UNL     1     -10.869  16.121  69.548  1.00  0.00    -0.329 A  
HETATM   21  N   UNL     1      -9.728  15.424  69.425  1.00  0.00    -0.261 NA 
BRANCH  20  22
HETATM   22  N   UNL     1     -11.790  15.633  70.484  1.00  0.00    -0.342 NA 
HETATM   23  H   UNL     1     -12.258  16.349  71.038  1.00  0.00     0.000 HD 
BRANCH  22  24
HETATM   24  C   UNL     1     -12.172  14.313  70.781  1.00  0.00    -0.353 A  
HETATM   25  C   UNL     1     -11.707  13.204  70.068  1.00  0.00    -0.291 A  
HETATM   26  C   UNL     1     -12.088  11.903  70.412  1.00  0.00    -0.421 A  
HETATM   27  C   UNL     1     -12.959  11.678  71.477  1.00  0.00    -0.463 A  
HETATM   28  C   UNL     1     -13.318  10.338  71.848  1.00  0.00    -0.383 C  
HETATM   29  C   UNL     1     -13.462  12.774  72.181  1.00  0.00    -0.591 A  
HETATM   30  C   UNL     1     -13.081  14.078  71.827  1.00  0.00    -0.449 A  
HETATM   31  N   UNL     1     -13.597   9.252  72.148  1.00  0.00    -0.447 NA 
ENDBRANCH  22  24
ENDBRANCH  20  22
ENDBRANCH  11  12
ENDBRANCH   9  11
TORSDOF 4
ENDMDL
MODEL       89
REMARK 921   NORMALIZED FREE ENERGY PREDICTED BY IDOCK:   -5.96 KCAL/MOL
REMARK 922        TOTAL FREE ENERGY PREDICTED BY IDOCK:   -8.00 KCAL/MOL
REMARK 923 INTER-LIGAND FREE ENERGY PREDICTED BY IDOCK:   -7.22 KCAL/MOL
REMARK 924 INTRA-LIGAND FREE ENERGY PREDICTED BY IDOCK:   -0.79 KCAL/MOL
REMARK 927      BINDING AFFINITY PREDICTED BY RF-SCORE:    0.00 PKD
ROOT
HETATM    1  C   UNL     1      -8.319  10.468  69.316  1.00  0.00    -0.144 C  
HETATM    2  C   UNL     1      -9.087   9.185  69.405  1.00  0.00    -0.148 A  
HETATM    3  C   UNL     1      -9.451   8.850  70.731  1.00  0.00    -0.280 A  
HETATM    4  C   UNL     1     -10.246   7.752  71.029  1.00  0.00    -0.210 A  
HETATM    5  C   UNL     1     -10.721   6.975  69.986  1.00  0.00    -0.267 A  
HETATM    6  C   UNL     1     -10.581   7.464  72.398  1.00  0.00    -0.244 C  
HETATM    7  N   UNL     1     -10.827   7.264  73.507  1.00  0.00    -0.338 NA 
HETATM    8  C   UNL     1     -10.364   7.265  68.649  1.00  0.00    -0.208 A  
HETATM    9  C   UNL     1      -9.490   8.353  68.336  1.00  0.00    -0.139 A  
HETATM   10  C   UNL     1     -10.970   6.383  67.582  1.00  0.00    -0.441 C  
ENDROOT
BRANCH   9  11
HETATM   11  O   UNL     1      -9.040   8.332  67.022  1.00  0.00    -0.137 OA 
BRANCH  11  12
HETATM   12  C   UNL     1      -9.390   9.215  65.999  1.00  0.00    -0.238 A  
HETATM   13  C   UNL     1      -8.925   8.951  64.724  1.00  0.00    -0.036 A  
HETATM   14  C   UNL     1      -9.325   9.843  63.742  1.00  0.00    -0.197 A  
HETATM   15 BR   UNL     1      -7.801   7.481  64.325  1.00  0.00    -0.114 Br 
HETATM   16  N   UNL     1      -9.027   9.682  62.388  1.00  0.00    -0.254 NA 
HETATM   17  N   UNL     1     -10.105  10.905  63.998  1.00  0.00    -0.332 NA 
HETATM   18  H1  UNL     1      -9.321  10.338  61.666  1.00  0.00     0.000 HD 
HETATM   19  H2  UNL     1      -9.363   8.758  62.113  1.00  0.00     0.000 HD 
HETATM   20  C   UNL     1     -10.470  11.131  65.260  1.00  0.00    -0.263 A  
HETATM   21  N   UNL     1     -10.080  10.334  66.268  1.00  0.00    -0.232 NA 
BRANCH  20  22
HETATM   22  N   UNL     1     -11.333  12.179  65.604  1.00  0.00    -0.340 NA 
HETATM   23  H   UNL     1     -12.316  11.918  65.675  1.00  0.00     0.000 HD 
BRANCH  22  24
HETATM   24  C   UNL     1     -11.061  13.532  65.865  1.00  0.00    -0.284 A  
HETATM   25  C   UNL     1     -10.585  13.991  67.098  1.00  0.00    -0.274 A  
HETATM   26  C   UNL     1     -10.299  15.344  67.313  1.00  0.00    -0.271 A  
HETATM   27  C   UNL     1     -10.494  16.279  66.296  1.00  0.00    -0.314 A  
HETATM   28  C   UNL     1     -10.164  17.660  66.511  1.00  0.00    -0.355 C  
HETATM   29  C   UNL     1     -11.000  15.847  65.069  1.00  0.00    -0.426 A  
HETATM   30  C   UNL     1     -11.292  14.489  64.862  1.00  0.00    -0.394 A  
HETATM   31  N   UNL     1      -9.888  18.773  66.687  1.00  0.00    -0.336 NA 
ENDBRANCH  22  24
ENDBRANCH  20  22
ENDBRANCH  11  12
ENDBRANCH   9  11
TORSDOF 4
ENDMDL
MODEL       90
REMARK 921   NORMALIZED FREE ENERGY PREDICTED BY IDOCK:   -5.90 KCAL/MOL
REMARK 922        TOTAL FREE ENERGY PREDICTED BY IDOCK:   -7.94 KCAL/MOL
REMARK 923 INTER-LIGAND FREE ENERGY PREDICTED BY IDOCK:   -7.04 KCAL/MOL
REMARK 924 INTRA-LIGAND FREE ENERGY PREDICTED BY IDOCK:   -0.90 KCAL/MOL
REMARK 927      BINDING AFFINITY PREDICTED BY RF-SCORE:    0.00 PKD
ROOT
HETATM    1  C   UNL     1      -9.639   9.881  64.876  1.00  0.00    -0.356 C  
HETATM    2  C   UNL     1     -10.387  10.887  65.696  1.00  0.00    -0.305 A  
HETATM    3  C   UNL     1     -10.877  11.970  64.928  1.00  0.00    -0.349 A  
HETATM    4  C   UNL     1     -11.677  12.965  65.473  1.00  0.00    -0.423 A  
HETATM    5  C   UNL     1     -12.030  12.875  66.810  1.00  0.00    -0.418 A  
HETATM    6  C   UNL     1     -12.144  14.042  64.641  1.00  0.00    -0.440 C  
HETATM    7  N   UNL     1     -12.497  14.889  63.942  1.00  0.00    -0.769 NA 
HETATM    8  C   UNL     1     -11.544  11.819  67.614  1.00  0.00    -0.364 A  
HETATM    9  C   UNL     1     -10.665  10.826  67.080  1.00  0.00    -0.272 A  
HETATM   10  C   UNL     1     -12.022  11.789  69.048  1.00  0.00    -0.341 C  
ENDROOT
BRANCH   9  11
HETATM   11  O   UNL     1     -10.083  10.028  68.058  1.00  0.00    -0.156 OA 
BRANCH  11  12
HETATM   12  C   UNL     1      -8.935  10.310  68.799  1.00  0.00    -0.155 A  
HETATM   13  C   UNL     1      -8.632   9.487  69.868  1.00  0.00    -0.204 A  
HETATM   14  C   UNL     1      -7.466   9.795  70.552  1.00  0.00    -0.101 A  
HETATM   15 BR   UNL     1      -9.730   8.037  70.390  1.00  0.00    -0.181 Br 
HETATM   16  N   UNL     1      -6.959   9.019  71.595  1.00  0.00    -0.265 NA 
HETATM   17  N   UNL     1      -6.678  10.828  70.218  1.00  0.00    -0.265 NA 
HETATM   18  H1  UNL     1      -6.102   9.246  72.099  1.00  0.00     0.000 HD 
HETATM   19  H2  UNL     1      -6.860   8.066  71.244  1.00  0.00     0.000 HD 
HETATM   20  C   UNL     1      -7.061  11.614  69.211  1.00  0.00    -0.055 A  
HETATM   21  N   UNL     1      -8.201  11.402  68.535  1.00  0.00    -0.149 NA 
BRANCH  20  22
HETATM   22  N   UNL     1      -6.266  12.675  68.758  1.00  0.00    -0.070 NA 
HETATM   23  H   UNL     1      -5.322  12.412  68.475  1.00  0.00     0.000 HD 
BRANCH  22  24
HETATM   24  C   UNL     1      -6.560  14.043  68.632  1.00  0.00    -0.093 A  
HETATM   25  C   UNL     1      -7.481  14.705  69.450  1.00  0.00    -0.112 A  
HETATM   26  C   UNL     1      -7.727  16.075  69.312  1.00  0.00    -0.223 A  
HETATM   27  C   UNL     1      -7.062  16.820  68.339  1.00  0.00    -0.173 A  
HETATM   28  C   UNL     1      -7.291  18.233  68.226  1.00  0.00    -0.269 C  
HETATM   29  C   UNL     1      -6.162  16.172  67.490  1.00  0.00    -0.191 A  
HETATM   30  C   UNL     1      -5.925  14.795  67.628  1.00  0.00    -0.060 A  
HETATM   31  N   UNL     1      -7.475  19.376  68.146  1.00  0.00    -0.282 NA 
ENDBRANCH  22  24
ENDBRANCH  20  22
ENDBRANCH  11  12
ENDBRANCH   9  11
TORSDOF 4
ENDMDL
MODEL       91
REMARK 921   NORMALIZED FREE ENERGY PREDICTED BY IDOCK:   -5.90 KCAL/MOL
REMARK 922        TOTAL FREE ENERGY PREDICTED BY IDOCK:   -7.93 KCAL/MOL
REMARK 923 INTER-LIGAND FREE ENERGY PREDICTED BY IDOCK:   -7.11 KCAL/MOL
REMARK 924 INTRA-LIGAND FREE ENERGY PREDICTED BY IDOCK:   -0.82 KCAL/MOL
REMARK 927      BINDING AFFINITY PREDICTED BY RF-SCORE:    0.00 PKD
ROOT
HETATM    1  C   UNL     1      -7.833  15.280  68.597  1.00  0.00    -0.142 C  
HETATM    2  C   UNL     1      -9.296  14.962  68.634  1.00  0.00    -0.194 A  
HETATM    3  C   UNL     1      -9.931  15.421  69.812  1.00  0.00    -0.251 A  
HETATM    4  C   UNL     1     -11.301  15.314  70.009  1.00  0.00    -0.311 A  
HETATM    5  C   UNL     1     -12.074  14.763  69.000  1.00  0.00    -0.256 A  
HETATM    6  C   UNL     1     -11.888  15.799  71.229  1.00  0.00    -0.437 C  
HETATM    7  N   UNL     1     -12.321  16.197  72.221  1.00  0.00    -0.483 NA 
HETATM    8  C   UNL     1     -11.475  14.274  67.816  1.00  0.00    -0.354 A  
HETATM    9  C   UNL     1     -10.058  14.318  67.633  1.00  0.00    -0.229 A  
HETATM   10  C   UNL     1     -12.410  13.732  66.761  1.00  0.00    -0.365 C  
ENDROOT
BRANCH   9  11
HETATM   11  O   UNL     1      -9.624  13.567  66.547  1.00  0.00    -0.269 OA 
BRANCH  11  12
HETATM   12  C   UNL     1      -9.469  12.181  66.491  1.00  0.00    -0.231 A  
HETATM   13  C   UNL     1      -9.727  11.545  65.291  1.00  0.00    -0.238 A  
HETATM   14  C   UNL     1      -9.530  10.173  65.284  1.00  0.00    -0.248 A  
HETATM   15 BR   UNL     1     -10.327  12.465  63.750  1.00  0.00    -0.418 Br 
HETATM   16  N   UNL     1      -9.654   9.384  64.139  1.00  0.00    -0.329 NA 
HETATM   17  N   UNL     1      -9.125   9.491  66.366  1.00  0.00    -0.152 NA 
HETATM   18  H1  UNL     1      -9.510   8.375  64.134  1.00  0.00     0.000 HD 
HETATM   19  H2  UNL     1      -9.038   9.782  63.430  1.00  0.00     0.000 HD 
HETATM   20  C   UNL     1      -8.949  10.161  67.505  1.00  0.00    -0.131 A  
HETATM   21  N   UNL     1      -9.166  11.483  67.596  1.00  0.00    -0.168 NA 
BRANCH  20  22
HETATM   22  N   UNL     1      -8.467   9.536  68.662  1.00  0.00    -0.117 NA 
HETATM   23  H   UNL     1      -7.512   9.787  68.920  1.00  0.00     0.000 HD 
BRANCH  22  24
HETATM   24  C   UNL     1      -9.088   8.618  69.526  1.00  0.00    -0.146 A  
HETATM   25  C   UNL     1      -8.867   7.238  69.462  1.00  0.00    -0.137 A  
HETATM   26  C   UNL     1      -9.482   6.357  70.358  1.00  0.00    -0.172 A  
HETATM   27  C   UNL     1     -10.348   6.837  71.340  1.00  0.00    -0.223 A  
HETATM   28  C   UNL     1     -10.948   5.932  72.280  1.00  0.00    -0.265 C  
HETATM   29  C   UNL     1     -10.609   8.207  71.400  1.00  0.00    -0.269 A  
HETATM   30  C   UNL     1      -9.994   9.085  70.494  1.00  0.00    -0.263 A  
HETATM   31  N   UNL     1     -11.423   5.197  73.041  1.00  0.00    -0.314 NA 
ENDBRANCH  22  24
ENDBRANCH  20  22
ENDBRANCH  11  12
ENDBRANCH   9  11
TORSDOF 4
ENDMDL
MODEL       92
REMARK 921   NORMALIZED FREE ENERGY PREDICTED BY IDOCK:   -5.90 KCAL/MOL
REMARK 922        TOTAL FREE ENERGY PREDICTED BY IDOCK:   -7.93 KCAL/MOL
REMARK 923 INTER-LIGAND FREE ENERGY PREDICTED BY IDOCK:   -7.40 KCAL/MOL
REMARK 924 INTRA-LIGAND FREE ENERGY PREDICTED BY IDOCK:   -0.53 KCAL/MOL
REMARK 927      BINDING AFFINITY PREDICTED BY RF-SCORE:    0.00 PKD
ROOT
HETATM    1  C   UNL     1      -7.333  11.477  68.143  1.00  0.00    -0.094 C  
HETATM    2  C   UNL     1      -8.174  10.993  67.004  1.00  0.00    -0.138 A  
HETATM    3  C   UNL     1      -7.851   9.675  66.599  1.00  0.00    -0.105 A  
HETATM    4  C   UNL     1      -8.570   8.999  65.624  1.00  0.00    -0.187 A  
HETATM    5  C   UNL     1      -9.661   9.630  65.048  1.00  0.00    -0.234 A  
HETATM    6  C   UNL     1      -8.192   7.661  65.255  1.00  0.00    -0.135 C  
HETATM    7  N   UNL     1      -7.857   6.591  64.986  1.00  0.00    -0.107 NA 
HETATM    8  C   UNL     1     -10.004  10.953  65.410  1.00  0.00    -0.319 A  
HETATM    9  C   UNL     1      -9.229  11.683  66.365  1.00  0.00    -0.212 A  
HETATM   10  C   UNL     1     -11.236  11.534  64.756  1.00  0.00    -0.258 C  
ENDROOT
BRANCH   9  11
HETATM   11  O   UNL     1      -9.544  13.036  66.405  1.00  0.00    -0.262 OA 
BRANCH  11  12
HETATM   12  C   UNL     1     -10.224  13.711  67.419  1.00  0.00    -0.241 A  
HETATM   13  C   UNL     1     -10.260  15.092  67.371  1.00  0.00    -0.235 A  
HETATM   14  C   UNL     1     -10.972  15.710  68.387  1.00  0.00    -0.308 A  
HETATM   15 BR   UNL     1      -9.387  16.096  66.025  1.00  0.00    -0.332 Br 
HETATM   16  N   UNL     1     -11.190  17.087  68.446  1.00  0.00    -0.168 NA 
HETATM   17  N   UNL     1     -11.584  15.027  69.367  1.00  0.00    -0.296 NA 
HETATM   18  H1  UNL     1     -11.713  17.543  69.194  1.00  0.00     0.000 HD 
HETATM   19  H2  UNL     1     -11.621  17.364  67.564  1.00  0.00     0.000 HD 
HETATM   20  C   UNL     1     -11.461  13.699  69.382  1.00  0.00    -0.286 A  
HETATM   21  N   UNL     1     -10.747  13.039  68.456  1.00  0.00    -0.250 NA 
BRANCH  20  22
HETATM   22  N   UNL     1     -12.119  12.908  70.331  1.00  0.00    -0.471 NA 
HETATM   23  H   UNL     1     -12.777  13.410  70.927  1.00  0.00     0.000 HD 
BRANCH  22  24
HETATM   24  C   UNL     1     -12.019  11.531  70.594  1.00  0.00    -0.292 A  
HETATM   25  C   UNL     1     -12.924  10.841  71.409  1.00  0.00    -0.535 A  
HETATM   26  C   UNL     1     -12.808   9.464  71.625  1.00  0.00    -0.461 A  
HETATM   27  C   UNL     1     -11.771   8.739  71.038  1.00  0.00    -0.329 A  
HETATM   28  C   UNL     1     -11.679   7.320  71.234  1.00  0.00    -0.296 C  
HETATM   29  C   UNL     1     -10.838   9.415  70.249  1.00  0.00    -0.303 A  
HETATM   30  C   UNL     1     -10.956  10.798  70.041  1.00  0.00    -0.280 A  
HETATM   31  N   UNL     1     -11.615   6.172  71.389  1.00  0.00    -0.266 NA 
ENDBRANCH  22  24
ENDBRANCH  20  22
ENDBRANCH  11  12
ENDBRANCH   9  11
TORSDOF 4
ENDMDL
MODEL       93
REMARK 921   NORMALIZED FREE ENERGY PREDICTED BY IDOCK:   -5.90 KCAL/MOL
REMARK 922        TOTAL FREE ENERGY PREDICTED BY IDOCK:   -7.93 KCAL/MOL
REMARK 923 INTER-LIGAND FREE ENERGY PREDICTED BY IDOCK:   -7.34 KCAL/MOL
REMARK 924 INTRA-LIGAND FREE ENERGY PREDICTED BY IDOCK:   -0.59 KCAL/MOL
REMARK 927      BINDING AFFINITY PREDICTED BY RF-SCORE:    0.00 PKD
ROOT
HETATM    1  C   UNL     1      -9.792   9.771  67.871  1.00  0.00    -0.176 C  
HETATM    2  C   UNL     1     -10.661  10.712  68.645  1.00  0.00    -0.239 A  
HETATM    3  C   UNL     1     -11.394  10.070  69.671  1.00  0.00    -0.253 A  
HETATM    4  C   UNL     1     -12.189  10.771  70.567  1.00  0.00    -0.457 A  
HETATM    5  C   UNL     1     -12.242  12.152  70.467  1.00  0.00    -0.392 A  
HETATM    6  C   UNL     1     -12.911  10.061  71.589  1.00  0.00    -0.440 C  
HETATM    7  N   UNL     1     -13.475   9.456  72.393  1.00  0.00    -0.462 NA 
HETATM    8  C   UNL     1     -11.540  12.829  69.443  1.00  0.00    -0.361 A  
HETATM    9  C   UNL     1     -10.773  12.111  68.474  1.00  0.00    -0.232 A  
HETATM   10  C   UNL     1     -11.629  14.337  69.448  1.00  0.00    -0.354 C  
ENDROOT
BRANCH   9  11
HETATM   11  O   UNL     1     -10.373  12.898  67.401  1.00  0.00    -0.230 OA 
BRANCH  11  12
HETATM   12  C   UNL     1     -10.395  12.551  66.049  1.00  0.00    -0.256 A  
HETATM   13  C   UNL     1     -11.402  13.076  65.259  1.00  0.00    -0.295 A  
HETATM   14  C   UNL     1     -11.361  12.721  63.920  1.00  0.00    -0.442 A  
HETATM   15 BR   UNL     1     -12.767  14.193  65.944  1.00  0.00    -0.244 Br 
HETATM   16  N   UNL     1     -12.240  13.229  62.963  1.00  0.00    -0.882 NA 
HETATM   17  N   UNL     1     -10.417  11.915  63.409  1.00  0.00    -0.437 NA 
HETATM   18  H1  UNL     1     -12.210  12.968  61.977  1.00  0.00     0.000 HD 
HETATM   19  H2  UNL     1     -12.182  14.247  63.008  1.00  0.00     0.000 HD 
HETATM   20  C   UNL     1      -9.510  11.401  64.240  1.00  0.00    -0.133 A  
HETATM   21  N   UNL     1      -9.518  11.664  65.557  1.00  0.00    -0.221 NA 
BRANCH  20  22
HETATM   22  N   UNL     1      -8.455  10.602  63.779  1.00  0.00    -0.319 NA 
HETATM   23  H   UNL     1      -8.082  10.869  62.869  1.00  0.00     0.000 HD 
BRANCH  22  24
HETATM   24  C   UNL     1      -7.829   9.492  64.371  1.00  0.00    -0.128 A  
HETATM   25  C   UNL     1      -6.675   9.594  65.155  1.00  0.00    -0.094 A  
HETATM   26  C   UNL     1      -6.096   8.468  65.751  1.00  0.00    -0.048 A  
HETATM   27  C   UNL     1      -6.654   7.203  65.567  1.00  0.00    -0.048 A  
HETATM   28  C   UNL     1      -6.076   6.057  66.211  1.00  0.00    -0.032 C  
HETATM   29  C   UNL     1      -7.786   7.075  64.761  1.00  0.00    -0.126 A  
HETATM   30  C   UNL     1      -8.359   8.207  64.160  1.00  0.00    -0.025 A  
HETATM   31  N   UNL     1      -5.609   5.136  66.741  1.00  0.00    -0.016 NA 
ENDBRANCH  22  24
ENDBRANCH  20  22
ENDBRANCH  11  12
ENDBRANCH   9  11
TORSDOF 4
ENDMDL
MODEL       94
REMARK 921   NORMALIZED FREE ENERGY PREDICTED BY IDOCK:   -5.87 KCAL/MOL
REMARK 922        TOTAL FREE ENERGY PREDICTED BY IDOCK:   -7.90 KCAL/MOL
REMARK 923 INTER-LIGAND FREE ENERGY PREDICTED BY IDOCK:   -7.34 KCAL/MOL
REMARK 924 INTRA-LIGAND FREE ENERGY PREDICTED BY IDOCK:   -0.56 KCAL/MOL
REMARK 927      BINDING AFFINITY PREDICTED BY RF-SCORE:    0.00 PKD
ROOT
HETATM    1  C   UNL     1     -10.520   4.786  71.781  1.00  0.00    -0.182 C  
HETATM    2  C   UNL     1     -10.603   6.257  71.515  1.00  0.00    -0.282 A  
HETATM    3  C   UNL     1     -11.811   6.834  71.977  1.00  0.00    -0.351 A  
HETATM    4  C   UNL     1     -12.054   8.199  71.916  1.00  0.00    -0.368 A  
HETATM    5  C   UNL     1     -11.064   9.027  71.412  1.00  0.00    -0.399 A  
HETATM    6  C   UNL     1     -13.302   8.724  72.401  1.00  0.00    -0.399 C  
HETATM    7  N   UNL     1     -14.315   9.107  72.798  1.00  0.00    -0.473 NA 
HETATM    8  C   UNL     1      -9.852   8.488  70.923  1.00  0.00    -0.234 A  
HETATM    9  C   UNL     1      -9.619   7.077  70.918  1.00  0.00    -0.167 A  
HETATM   10  C   UNL     1      -8.822   9.479  70.434  1.00  0.00    -0.279 C  
ENDROOT
BRANCH   9  11
HETATM   11  O   UNL     1      -8.507   6.709  70.171  1.00  0.00    -0.132 OA 
BRANCH  11  12
HETATM   12  C   UNL     1      -8.473   6.395  68.812  1.00  0.00    -0.121 A  
HETATM   13  C   UNL     1      -8.037   5.135  68.446  1.00  0.00    -0.086 A  
HETATM   14  C   UNL     1      -8.050   4.865  67.086  1.00  0.00    -0.107 A  
HETATM   15 BR   UNL     1      -7.440   3.851  69.701  1.00  0.00    -0.052 Br 
HETATM   16  N   UNL     1      -7.731   3.619  66.546  1.00  0.00    -0.084 NA 
HETATM   17  N   UNL     1      -8.449   5.762  66.171  1.00  0.00    -0.125 NA 
HETATM   18  H1  UNL     1      -7.741   3.421  65.546  1.00  0.00     0.000 HD 
HETATM   19  H2  UNL     1      -8.334   2.930  66.996  1.00  0.00     0.000 HD 
HETATM   20  C   UNL     1      -8.804   6.977  66.591  1.00  0.00    -0.132 A  
HETATM   21  N   UNL     1      -8.770   7.321  67.888  1.00  0.00    -0.123 NA 
BRANCH  20  22
HETATM   22  N   UNL     1      -9.292   7.950  65.709  1.00  0.00    -0.411 NA 
HETATM   23  H   UNL     1      -9.222   7.706  64.721  1.00  0.00     0.000 HD 
BRANCH  22  24
HETATM   24  C   UNL     1      -9.862   9.208  65.967  1.00  0.00    -0.272 A  
HETATM   25  C   UNL     1      -9.813  10.269  65.058  1.00  0.00    -0.397 A  
HETATM   26  C   UNL     1     -10.417  11.500  65.339  1.00  0.00    -0.333 A  
HETATM   27  C   UNL     1     -11.080  11.704  66.549  1.00  0.00    -0.357 A  
HETATM   28  C   UNL     1     -11.729  12.956  66.816  1.00  0.00    -0.383 C  
HETATM   29  C   UNL     1     -11.110  10.668  67.485  1.00  0.00    -0.367 A  
HETATM   30  C   UNL     1     -10.496   9.438  67.200  1.00  0.00    -0.315 A  
HETATM   31  N   UNL     1     -12.259  13.967  67.023  1.00  0.00    -0.409 NA 
ENDBRANCH  22  24
ENDBRANCH  20  22
ENDBRANCH  11  12
ENDBRANCH   9  11
TORSDOF 4
ENDMDL
MODEL       95
REMARK 921   NORMALIZED FREE ENERGY PREDICTED BY IDOCK:   -5.87 KCAL/MOL
REMARK 922        TOTAL FREE ENERGY PREDICTED BY IDOCK:   -7.90 KCAL/MOL
REMARK 923 INTER-LIGAND FREE ENERGY PREDICTED BY IDOCK:   -6.83 KCAL/MOL
REMARK 924 INTRA-LIGAND FREE ENERGY PREDICTED BY IDOCK:   -1.07 KCAL/MOL
REMARK 927      BINDING AFFINITY PREDICTED BY RF-SCORE:    0.00 PKD
ROOT
HETATM    1  C   UNL     1     -10.730  10.445  69.503  1.00  0.00    -0.284 C  
HETATM    2  C   UNL     1     -11.194  11.868  69.468  1.00  0.00    -0.237 A  
HETATM    3  C   UNL     1     -12.109  12.177  70.502  1.00  0.00    -0.383 A  
HETATM    4  C   UNL     1     -12.592  13.461  70.710  1.00  0.00    -0.369 A  
HETATM    5  C   UNL     1     -12.137  14.481  69.890  1.00  0.00    -0.389 A  
HETATM    6  C   UNL     1     -13.521  13.711  71.779  1.00  0.00    -0.384 C  
HETATM    7  N   UNL     1     -14.266  13.872  72.645  1.00  0.00    -0.635 NA 
HETATM    8  C   UNL     1     -11.238  14.210  68.833  1.00  0.00    -0.294 A  
HETATM    9  C   UNL     1     -10.788  12.879  68.568  1.00  0.00    -0.257 A  
HETATM   10  C   UNL     1     -10.770  15.398  68.025  1.00  0.00    -0.279 C  
ENDROOT
BRANCH   9  11
HETATM   11  O   UNL     1     -10.129  12.757  67.350  1.00  0.00    -0.216 OA 
BRANCH  11  12
HETATM   12  C   UNL     1      -8.786  12.437  67.149  1.00  0.00    -0.195 A  
HETATM   13  C   UNL     1      -8.489  11.269  66.471  1.00  0.00    -0.171 A  
HETATM   14  C   UNL     1      -7.141  11.014  66.275  1.00  0.00    -0.092 A  
HETATM   15 BR   UNL     1      -9.821  10.073  65.856  1.00  0.00    -0.341 Br 
HETATM   16  N   UNL     1      -6.663   9.933  65.534  1.00  0.00    -0.087 NA 
HETATM   17  N   UNL     1      -6.174  11.833  66.716  1.00  0.00    -0.132 NA 
HETATM   18  H1  UNL     1      -5.671   9.745  65.389  1.00  0.00     0.000 HD 
HETATM   19  H2  UNL     1      -7.099   9.981  64.612  1.00  0.00     0.000 HD 
HETATM   20  C   UNL     1      -6.531  12.914  67.412  1.00  0.00    -0.120 A  
HETATM   21  N   UNL     1      -7.816  13.197  67.679  1.00  0.00    -0.155 NA 
BRANCH  20  22
HETATM   22  N   UNL     1      -5.589  13.852  67.853  1.00  0.00    -0.210 NA 
HETATM   23  H   UNL     1      -4.625  13.519  67.864  1.00  0.00     0.000 HD 
BRANCH  22  24
HETATM   24  C   UNL     1      -5.760  15.178  68.285  1.00  0.00    -0.122 A  
HETATM   25  C   UNL     1      -5.795  15.544  69.634  1.00  0.00    -0.128 A  
HETATM   26  C   UNL     1      -5.938  16.880  70.025  1.00  0.00    -0.184 A  
HETATM   27  C   UNL     1      -6.062  17.888  69.070  1.00  0.00    -0.216 A  
HETATM   28  C   UNL     1      -6.172  19.261  69.476  1.00  0.00    -0.289 C  
HETATM   29  C   UNL     1      -6.063  17.540  67.717  1.00  0.00    -0.161 A  
HETATM   30  C   UNL     1      -5.926  16.198  67.331  1.00  0.00    -0.179 A  
HETATM   31  N   UNL     1      -6.252  20.369  69.811  1.00  0.00    -0.317 NA 
ENDBRANCH  22  24
ENDBRANCH  20  22
ENDBRANCH  11  12
ENDBRANCH   9  11
TORSDOF 4
ENDMDL
MODEL       96
REMARK 921   NORMALIZED FREE ENERGY PREDICTED BY IDOCK:   -5.86 KCAL/MOL
REMARK 922        TOTAL FREE ENERGY PREDICTED BY IDOCK:   -7.88 KCAL/MOL
REMARK 923 INTER-LIGAND FREE ENERGY PREDICTED BY IDOCK:   -7.59 KCAL/MOL
REMARK 924 INTRA-LIGAND FREE ENERGY PREDICTED BY IDOCK:   -0.29 KCAL/MOL
REMARK 927      BINDING AFFINITY PREDICTED BY RF-SCORE:    0.00 PKD
ROOT
HETATM    1  C   UNL     1     -11.727  15.896  69.044  1.00  0.00    -0.377 C  
HETATM    2  C   UNL     1     -10.561  16.480  68.310  1.00  0.00    -0.326 A  
HETATM    3  C   UNL     1     -10.640  17.886  68.176  1.00  0.00    -0.351 A  
HETATM    4  C   UNL     1      -9.620  18.639  67.612  1.00  0.00    -0.325 A  
HETATM    5  C   UNL     1      -8.471  17.988  67.191  1.00  0.00    -0.241 A  
HETATM    6  C   UNL     1      -9.760  20.066  67.504  1.00  0.00    -0.407 C  
HETATM    7  N   UNL     1      -9.911  21.208  67.433  1.00  0.00    -0.108 NA 
HETATM    8  C   UNL     1      -8.361  16.582  67.289  1.00  0.00    -0.197 A  
HETATM    9  C   UNL     1      -9.434  15.791  67.806  1.00  0.00    -0.212 A  
HETATM   10  C   UNL     1      -7.051  15.975  66.843  1.00  0.00    -0.182 C  
ENDROOT
BRANCH   9  11
HETATM   11  O   UNL     1      -9.263  14.429  67.588  1.00  0.00    -0.187 OA 
BRANCH  11  12
HETATM   12  C   UNL     1     -10.245  13.508  67.220  1.00  0.00    -0.242 A  
HETATM   13  C   UNL     1     -10.945  13.736  66.049  1.00  0.00    -0.284 A  
HETATM   14  C   UNL     1     -11.888  12.776  65.716  1.00  0.00    -0.434 A  
HETATM   15 BR   UNL     1     -10.663  15.261  64.964  1.00  0.00    -0.437 Br 
HETATM   16  N   UNL     1     -12.619  12.796  64.528  1.00  0.00    -0.659 NA 
HETATM   17  N   UNL     1     -12.124  11.695  66.475  1.00  0.00    -0.161 NA 
HETATM   18  H1  UNL     1     -13.313  12.090  64.283  1.00  0.00     0.000 HD 
HETATM   19  H2  UNL     1     -11.949  12.840  63.760  1.00  0.00     0.000 HD 
HETATM   20  C   UNL     1     -11.452  11.567  67.619  1.00  0.00    -0.285 A  
HETATM   21  N   UNL     1     -10.558  12.483  68.026  1.00  0.00    -0.217 NA 
BRANCH  20  22
HETATM   22  N   UNL     1     -11.593  10.439  68.437  1.00  0.00    -0.647 NA 
HETATM   23  H   UNL     1     -12.516  10.326  68.856  1.00  0.00     0.000 HD 
BRANCH  22  24
HETATM   24  C   UNL     1     -10.666   9.438  68.774  1.00  0.00    -0.171 A  
HETATM   25  C   UNL     1     -10.001   9.395  70.004  1.00  0.00    -0.253 A  
HETATM   26  C   UNL     1      -9.106   8.365  70.314  1.00  0.00    -0.149 A  
HETATM   27  C   UNL     1      -8.842   7.354  69.391  1.00  0.00    -0.137 A  
HETATM   28  C   UNL     1      -7.951   6.280  69.729  1.00  0.00    -0.118 C  
HETATM   29  C   UNL     1      -9.470   7.397  68.145  1.00  0.00    -0.141 A  
HETATM   30  C   UNL     1     -10.362   8.436  67.837  1.00  0.00    -0.279 A  
HETATM   31  N   UNL     1      -7.235   5.411  70.011  1.00  0.00    -0.062 NA 
ENDBRANCH  22  24
ENDBRANCH  20  22
ENDBRANCH  11  12
ENDBRANCH   9  11
TORSDOF 4
ENDMDL
MODEL       97
REMARK 921   NORMALIZED FREE ENERGY PREDICTED BY IDOCK:   -5.86 KCAL/MOL
REMARK 922        TOTAL FREE ENERGY PREDICTED BY IDOCK:   -7.88 KCAL/MOL
REMARK 923 INTER-LIGAND FREE ENERGY PREDICTED BY IDOCK:   -7.42 KCAL/MOL
REMARK 924 INTRA-LIGAND FREE ENERGY PREDICTED BY IDOCK:   -0.46 KCAL/MOL
REMARK 927      BINDING AFFINITY PREDICTED BY RF-SCORE:    0.00 PKD
ROOT
HETATM    1  C   UNL     1     -11.741  12.102  65.881  1.00  0.00    -0.393 C  
HETATM    2  C   UNL     1     -10.737  11.257  66.602  1.00  0.00    -0.321 A  
HETATM    3  C   UNL     1     -10.204  10.224  65.795  1.00  0.00    -0.289 A  
HETATM    4  C   UNL     1      -9.190   9.384  66.235  1.00  0.00    -0.229 A  
HETATM    5  C   UNL     1      -8.664   9.587  67.500  1.00  0.00    -0.126 A  
HETATM    6  C   UNL     1      -8.691   8.351  65.367  1.00  0.00    -0.141 C  
HETATM    7  N   UNL     1      -8.319   7.534  64.643  1.00  0.00    -0.044 NA 
HETATM    8  C   UNL     1      -9.183  10.595  68.344  1.00  0.00    -0.159 A  
HETATM    9  C   UNL     1     -10.272  11.421  67.926  1.00  0.00    -0.182 A  
HETATM   10  C   UNL     1      -8.511  10.762  69.687  1.00  0.00     0.217 C  
ENDROOT
BRANCH   9  11
HETATM   11  O   UNL     1     -10.820  12.169  68.962  1.00  0.00    -0.216 OA 
BRANCH  11  12
HETATM   12  C   UNL     1     -11.663  11.710  69.975  1.00  0.00    -0.321 A  
HETATM   13  C   UNL     1     -12.347  12.647  70.727  1.00  0.00    -0.283 A  
HETATM   14  C   UNL     1     -13.192  12.137  71.700  1.00  0.00    -0.258 A  
HETATM   15 BR   UNL     1     -12.146  14.512  70.473  1.00  0.00    -0.419 Br 
HETATM   16  N   UNL     1     -14.026  12.931  72.488  1.00  0.00    -0.668 NA 
HETATM   17  N   UNL     1     -13.340  10.821  71.917  1.00  0.00    -0.403 NA 
HETATM   18  H1  UNL     1     -14.647  12.555  73.205  1.00  0.00     0.000 HD 
HETATM   19  H2  UNL     1     -14.598  13.491  71.855  1.00  0.00     0.000 HD 
HETATM   20  C   UNL     1     -12.607   9.975  71.192  1.00  0.00    -0.381 A  
HETATM   21  N   UNL     1     -11.735  10.402  70.265  1.00  0.00    -0.296 NA 
BRANCH  20  22
HETATM   22  N   UNL     1     -12.748   8.587  71.311  1.00  0.00    -0.455 NA 
HETATM   23  H   UNL     1     -13.709   8.248  71.268  1.00  0.00     0.000 HD 
BRANCH  22  24
HETATM   24  C   UNL     1     -11.777   7.585  71.480  1.00  0.00    -0.280 A  
HETATM   25  C   UNL     1     -11.459   6.654  70.487  1.00  0.00    -0.432 A  
HETATM   26  C   UNL     1     -10.465   5.688  70.682  1.00  0.00    -0.340 A  
HETATM   27  C   UNL     1      -9.769   5.623  71.888  1.00  0.00    -0.191 A  
HETATM   28  C   UNL     1      -8.725   4.653  72.069  1.00  0.00    -0.122 C  
HETATM   29  C   UNL     1     -10.094   6.522  72.906  1.00  0.00    -0.197 A  
HETATM   30  C   UNL     1     -11.096   7.484  72.706  1.00  0.00    -0.416 A  
HETATM   31  N   UNL     1      -7.877   3.873  72.206  1.00  0.00    -0.074 NA 
ENDBRANCH  22  24
ENDBRANCH  20  22
ENDBRANCH  11  12
ENDBRANCH   9  11
TORSDOF 4
ENDMDL
MODEL       98
REMARK 921   NORMALIZED FREE ENERGY PREDICTED BY IDOCK:   -5.85 KCAL/MOL
REMARK 922        TOTAL FREE ENERGY PREDICTED BY IDOCK:   -7.88 KCAL/MOL
REMARK 923 INTER-LIGAND FREE ENERGY PREDICTED BY IDOCK:   -7.29 KCAL/MOL
REMARK 924 INTRA-LIGAND FREE ENERGY PREDICTED BY IDOCK:   -0.59 KCAL/MOL
REMARK 927      BINDING AFFINITY PREDICTED BY RF-SCORE:    0.00 PKD
ROOT
HETATM    1  C   UNL     1     -10.826   9.491  67.877  1.00  0.00    -0.240 C  
HETATM    2  C   UNL     1      -9.371   9.395  68.213  1.00  0.00    -0.140 A  
HETATM    3  C   UNL     1      -9.095   8.416  69.197  1.00  0.00    -0.147 A  
HETATM    4  C   UNL     1      -7.801   8.098  69.588  1.00  0.00    -0.103 A  
HETATM    5  C   UNL     1      -6.744   8.744  68.968  1.00  0.00    -0.052 A  
HETATM    6  C   UNL     1      -7.586   7.093  70.594  1.00  0.00    -0.092 C  
HETATM    7  N   UNL     1      -7.454   6.284  71.406  1.00  0.00    -0.088 NA 
HETATM    8  C   UNL     1      -6.979   9.742  67.995  1.00  0.00    -0.077 A  
HETATM    9  C   UNL     1      -8.308  10.125  67.634  1.00  0.00    -0.114 A  
HETATM   10  C   UNL     1      -5.758  10.354  67.349  1.00  0.00    -0.045 C  
ENDROOT
BRANCH   9  11
HETATM   11  O   UNL     1      -8.354  11.285  66.871  1.00  0.00    -0.142 OA 
BRANCH  11  12
HETATM   12  C   UNL     1      -9.480  11.851  66.270  1.00  0.00    -0.227 A  
HETATM   13  C   UNL     1      -9.846  11.397  65.016  1.00  0.00    -0.261 A  
HETATM   14  C   UNL     1     -10.987  11.973  64.478  1.00  0.00    -0.318 A  
HETATM   15 BR   UNL     1      -8.861  10.086  64.071  1.00  0.00    -0.273 Br 
HETATM   16  N   UNL     1     -11.553  11.572  63.267  1.00  0.00    -0.863 NA 
HETATM   17  N   UNL     1     -11.695  12.918  65.115  1.00  0.00    -0.331 NA 
HETATM   18  H1  UNL     1     -12.392  11.995  62.871  1.00  0.00     0.000 HD 
HETATM   19  H2  UNL     1     -11.722  10.568  63.330  1.00  0.00     0.000 HD 
HETATM   20  C   UNL     1     -11.251  13.349  66.297  1.00  0.00    -0.305 A  
HETATM   21  N   UNL     1     -10.129  12.869  66.856  1.00  0.00    -0.237 NA 
BRANCH  20  22
HETATM   22  N   UNL     1     -11.964  14.286  67.056  1.00  0.00    -0.431 NA 
HETATM   23  H   UNL     1     -12.566  14.907  66.515  1.00  0.00     0.000 HD 
BRANCH  22  24
HETATM   24  C   UNL     1     -11.982  14.509  68.443  1.00  0.00    -0.274 A  
HETATM   25  C   UNL     1     -12.301  13.513  69.373  1.00  0.00    -0.162 A  
HETATM   26  C   UNL     1     -12.281  13.766  70.749  1.00  0.00    -0.437 A  
HETATM   27  C   UNL     1     -11.950  15.031  71.232  1.00  0.00    -0.388 A  
HETATM   28  C   UNL     1     -11.895  15.274  72.646  1.00  0.00    -0.429 C  
HETATM   29  C   UNL     1     -11.660  16.048  70.320  1.00  0.00    -0.335 A  
HETATM   30  C   UNL     1     -11.689  15.790  68.940  1.00  0.00    -0.404 A  
HETATM   31  N   UNL     1     -11.844  15.461  73.790  1.00  0.00    -0.371 NA 
ENDBRANCH  22  24
ENDBRANCH  20  22
ENDBRANCH  11  12
ENDBRANCH   9  11
TORSDOF 4
ENDMDL
MODEL       99
REMARK 921   NORMALIZED FREE ENERGY PREDICTED BY IDOCK:   -5.85 KCAL/MOL
REMARK 922        TOTAL FREE ENERGY PREDICTED BY IDOCK:   -7.87 KCAL/MOL
REMARK 923 INTER-LIGAND FREE ENERGY PREDICTED BY IDOCK:   -7.07 KCAL/MOL
REMARK 924 INTRA-LIGAND FREE ENERGY PREDICTED BY IDOCK:   -0.80 KCAL/MOL
REMARK 927      BINDING AFFINITY PREDICTED BY RF-SCORE:    0.00 PKD
ROOT
HETATM    1  C   UNL     1     -10.559   5.790  67.805  1.00  0.00    -0.310 C  
HETATM    2  C   UNL     1      -9.522   6.472  66.968  1.00  0.00    -0.161 A  
HETATM    3  C   UNL     1      -9.055   5.666  65.902  1.00  0.00    -0.158 A  
HETATM    4  C   UNL     1      -8.162   6.136  64.950  1.00  0.00    -0.125 A  
HETATM    5  C   UNL     1      -7.736   7.451  65.033  1.00  0.00    -0.114 A  
HETATM    6  C   UNL     1      -7.725   5.267  63.890  1.00  0.00    -0.081 C  
HETATM    7  N   UNL     1      -7.396   4.540  63.057  1.00  0.00    -0.051 NA 
HETATM    8  C   UNL     1      -8.162   8.283  66.094  1.00  0.00    -0.119 A  
HETATM    9  C   UNL     1      -9.029   7.788  67.118  1.00  0.00    -0.126 A  
HETATM   10  C   UNL     1      -7.674   9.712  66.070  1.00  0.00    -0.102 C  
ENDROOT
BRANCH   9  11
HETATM   11  O   UNL     1      -9.133   8.645  68.207  1.00  0.00    -0.141 OA 
BRANCH  11  12
HETATM   12  C   UNL     1     -10.210   9.475  68.523  1.00  0.00    -0.199 A  
HETATM   13  C   UNL     1     -10.780   9.353  69.777  1.00  0.00    -0.234 A  
HETATM   14  C   UNL     1     -11.826  10.220  70.049  1.00  0.00    -0.228 A  
HETATM   15 BR   UNL     1     -10.197   8.079  71.050  1.00  0.00    -0.225 Br 
HETATM   16  N   UNL     1     -12.457  10.299  71.291  1.00  0.00    -0.372 NA 
HETATM   17  N   UNL     1     -12.275  11.120  69.160  1.00  0.00    -0.442 NA 
HETATM   18  H1  UNL     1     -13.227  10.937  71.491  1.00  0.00     0.000 HD 
HETATM   19  H2  UNL     1     -11.732  10.472  71.988  1.00  0.00     0.000 HD 
HETATM   20  C   UNL     1     -11.715  11.145  67.950  1.00  0.00    -0.182 A  
HETATM   21  N   UNL     1     -10.729  10.302  67.603  1.00  0.00    -0.267 NA 
BRANCH  20  22
HETATM   22  N   UNL     1     -12.081  12.093  66.986  1.00  0.00    -0.546 NA 
HETATM   23  H   UNL     1     -12.827  11.798  66.357  1.00  0.00     0.000 HD 
BRANCH  22  24
HETATM   24  C   UNL     1     -11.584  13.385  66.747  1.00  0.00    -0.365 A  
HETATM   25  C   UNL     1     -11.155  13.818  65.488  1.00  0.00    -0.300 A  
HETATM   26  C   UNL     1     -10.692  15.123  65.283  1.00  0.00    -0.422 A  
HETATM   27  C   UNL     1     -10.636  16.029  66.342  1.00  0.00    -0.284 A  
HETATM   28  C   UNL     1     -10.195  17.377  66.117  1.00  0.00    -0.328 C  
HETATM   29  C   UNL     1     -11.028  15.607  67.614  1.00  0.00    -0.315 A  
HETATM   30  C   UNL     1     -11.485  14.294  67.815  1.00  0.00    -0.354 A  
HETATM   31  N   UNL     1      -9.846  18.467  65.928  1.00  0.00    -0.515 NA 
ENDBRANCH  22  24
ENDBRANCH  20  22
ENDBRANCH  11  12
ENDBRANCH   9  11
TORSDOF 4
ENDMDL
MODEL      100
REMARK 921   NORMALIZED FREE ENERGY PREDICTED BY IDOCK:   -5.82 KCAL/MOL
REMARK 922        TOTAL FREE ENERGY PREDICTED BY IDOCK:   -7.83 KCAL/MOL
REMARK 923 INTER-LIGAND FREE ENERGY PREDICTED BY IDOCK:   -6.92 KCAL/MOL
REMARK 924 INTRA-LIGAND FREE ENERGY PREDICTED BY IDOCK:   -0.91 KCAL/MOL
REMARK 927      BINDING AFFINITY PREDICTED BY RF-SCORE:    0.00 PKD
ROOT
HETATM    1  C   UNL     1      -9.030   4.114  68.276  1.00  0.00    -0.154 C  
HETATM    2  C   UNL     1      -8.700   5.380  67.549  1.00  0.00    -0.107 A  
HETATM    3  C   UNL     1      -8.492   5.183  66.163  1.00  0.00    -0.115 A  
HETATM    4  C   UNL     1      -8.268   6.237  65.287  1.00  0.00    -0.138 A  
HETATM    5  C   UNL     1      -8.277   7.528  65.788  1.00  0.00    -0.137 A  
HETATM    6  C   UNL     1      -8.063   5.971  63.888  1.00  0.00    -0.084 C  
HETATM    7  N   UNL     1      -7.902   5.718  62.774  1.00  0.00    -0.087 NA 
HETATM    8  C   UNL     1      -8.461   7.766  67.169  1.00  0.00    -0.124 A  
HETATM    9  C   UNL     1      -8.625   6.684  68.090  1.00  0.00    -0.115 A  
HETATM   10  C   UNL     1      -8.498   9.211  67.606  1.00  0.00    -0.116 C  
ENDROOT
BRANCH   9  11
HETATM   11  O   UNL     1      -8.529   7.078  69.419  1.00  0.00    -0.131 OA 
BRANCH  11  12
HETATM   12  C   UNL     1      -9.573   7.195  70.338  1.00  0.00    -0.169 A  
HETATM   13  C   UNL     1      -9.511   6.436  71.492  1.00  0.00    -0.154 A  
HETATM   14  C   UNL     1     -10.559   6.611  72.383  1.00  0.00    -0.214 A  
HETATM   15 BR   UNL     1      -8.107   5.217  71.846  1.00  0.00    -0.115 Br 
HETATM   16  N   UNL     1     -10.614   5.998  73.636  1.00  0.00    -0.284 NA 
HETATM   17  N   UNL     1     -11.578   7.452  72.151  1.00  0.00    -0.283 NA 
HETATM   18  H1  UNL     1     -11.385   6.127  74.291  1.00  0.00     0.000 HD 
HETATM   19  H2  UNL     1      -9.754   6.238  74.129  1.00  0.00     0.000 HD 
HETATM   20  C   UNL     1     -11.601   8.111  70.992  1.00  0.00    -0.279 A  
HETATM   21  N   UNL     1     -10.644   7.954  70.063  1.00  0.00    -0.239 NA 
BRANCH  20  22
HETATM   22  N   UNL     1     -12.594   9.054  70.698  1.00  0.00    -0.471 NA 
HETATM   23  H   UNL     1     -13.468   8.661  70.347  1.00  0.00     0.000 HD 
BRANCH  22  24
HETATM   24  C   UNL     1     -12.580  10.455  70.809  1.00  0.00    -0.371 A  
HETATM   25  C   UNL     1     -11.993  11.291  69.854  1.00  0.00    -0.440 A  
HETATM   26  C   UNL     1     -12.023  12.684  69.985  1.00  0.00    -0.377 A  
HETATM   27  C   UNL     1     -12.636  13.278  71.087  1.00  0.00    -0.412 A  
HETATM   28  C   UNL     1     -12.697  14.708  71.198  1.00  0.00    -0.339 C  
HETATM   29  C   UNL     1     -13.199  12.461  72.069  1.00  0.00    -0.514 A  
HETATM   30  C   UNL     1     -13.159  11.064  71.936  1.00  0.00    -0.525 A  
HETATM   31  N   UNL     1     -12.749  15.865  71.277  1.00  0.00    -0.427 NA 
ENDBRANCH  22  24
ENDBRANCH  20  22
ENDBRANCH  11  12
ENDBRANCH   9  11
TORSDOF 4
ENDMDL
MODEL      101
REMARK 921   NORMALIZED FREE ENERGY PREDICTED BY IDOCK:   -5.81 KCAL/MOL
REMARK 922        TOTAL FREE ENERGY PREDICTED BY IDOCK:   -7.82 KCAL/MOL
REMARK 923 INTER-LIGAND FREE ENERGY PREDICTED BY IDOCK:   -7.05 KCAL/MOL
REMARK 924 INTRA-LIGAND FREE ENERGY PREDICTED BY IDOCK:   -0.77 KCAL/MOL
REMARK 927      BINDING AFFINITY PREDICTED BY RF-SCORE:    0.00 PKD
ROOT
HETATM    1  C   UNL     1     -10.397  10.509  65.355  1.00  0.00    -0.292 C  
HETATM    2  C   UNL     1     -10.121  11.943  65.688  1.00  0.00    -0.274 A  
HETATM    3  C   UNL     1     -10.993  12.840  65.027  1.00  0.00    -0.319 A  
HETATM    4  C   UNL     1     -10.973  14.208  65.265  1.00  0.00    -0.339 A  
HETATM    5  C   UNL     1     -10.086  14.704  66.205  1.00  0.00    -0.307 A  
HETATM    6  C   UNL     1     -11.885  15.069  64.560  1.00  0.00    -0.371 C  
HETATM    7  N   UNL     1     -12.630  15.726  63.974  1.00  0.00    -0.562 NA 
HETATM    8  C   UNL     1      -9.185  13.843  66.873  1.00  0.00    -0.269 A  
HETATM    9  C   UNL     1      -9.151  12.442  66.586  1.00  0.00    -0.204 A  
HETATM   10  C   UNL     1      -8.289  14.477  67.911  1.00  0.00    -0.159 C  
ENDROOT
BRANCH   9  11
HETATM   11  O   UNL     1      -8.044  11.800  67.128  1.00  0.00    -0.155 OA 
BRANCH  11  12
HETATM   12  C   UNL     1      -7.981  11.120  68.345  1.00  0.00    -0.137 A  
HETATM   13  C   UNL     1      -6.775  11.111  69.023  1.00  0.00    -0.085 A  
HETATM   14  C   UNL     1      -6.775  10.446  70.239  1.00  0.00    -0.138 A  
HETATM   15 BR   UNL     1      -5.211  11.933  68.346  1.00  0.00    -0.046 Br 
HETATM   16  N   UNL     1      -5.676  10.414  71.098  1.00  0.00    -0.249 NA 
HETATM   17  N   UNL     1      -7.862   9.837  70.736  1.00  0.00    -0.277 NA 
HETATM   18  H1  UNL     1      -5.675   9.924  71.993  1.00  0.00     0.000 HD 
HETATM   19  H2  UNL     1      -5.407  11.381  71.283  1.00  0.00     0.000 HD 
HETATM   20  C   UNL     1      -8.976   9.837  70.002  1.00  0.00    -0.222 A  
HETATM   21  N   UNL     1      -9.034  10.422  68.795  1.00  0.00    -0.149 NA 
BRANCH  20  22
HETATM   22  N   UNL     1     -10.172   9.280  70.474  1.00  0.00    -0.231 NA 
HETATM   23  H   UNL     1     -11.002   9.850  70.316  1.00  0.00     0.000 HD 
BRANCH  22  24
HETATM   24  C   UNL     1     -10.410   8.060  71.129  1.00  0.00    -0.197 A  
HETATM   25  C   UNL     1     -10.513   6.838  70.456  1.00  0.00    -0.238 A  
HETATM   26  C   UNL     1     -10.723   5.640  71.147  1.00  0.00    -0.310 A  
HETATM   27  C   UNL     1     -10.848   5.635  72.535  1.00  0.00    -0.299 A  
HETATM   28  C   UNL     1     -11.027   4.397  73.242  1.00  0.00    -0.273 C  
HETATM   29  C   UNL     1     -10.782   6.848  73.224  1.00  0.00    -0.349 A  
HETATM   30  C   UNL     1     -10.578   8.048  72.525  1.00  0.00    -0.397 A  
HETATM   31  N   UNL     1     -11.163   3.393  73.807  1.00  0.00    -0.199 NA 
ENDBRANCH  22  24
ENDBRANCH  20  22
ENDBRANCH  11  12
ENDBRANCH   9  11
TORSDOF 4
ENDMDL
MODEL      102
REMARK 921   NORMALIZED FREE ENERGY PREDICTED BY IDOCK:   -5.79 KCAL/MOL
REMARK 922        TOTAL FREE ENERGY PREDICTED BY IDOCK:   -7.80 KCAL/MOL
REMARK 923 INTER-LIGAND FREE ENERGY PREDICTED BY IDOCK:   -7.33 KCAL/MOL
REMARK 924 INTRA-LIGAND FREE ENERGY PREDICTED BY IDOCK:   -0.48 KCAL/MOL
REMARK 927      BINDING AFFINITY PREDICTED BY RF-SCORE:    0.00 PKD
ROOT
HETATM    1  C   UNL     1     -11.979  12.582  66.082  1.00  0.00    -0.432 C  
HETATM    2  C   UNL     1     -10.854  13.560  66.219  1.00  0.00    -0.291 A  
HETATM    3  C   UNL     1     -11.190  14.856  65.760  1.00  0.00    -0.334 A  
HETATM    4  C   UNL     1     -10.325  15.935  65.882  1.00  0.00    -0.383 A  
HETATM    5  C   UNL     1      -9.101  15.738  66.500  1.00  0.00    -0.327 A  
HETATM    6  C   UNL     1     -10.725  17.228  65.396  1.00  0.00    -0.066 C  
HETATM    7  N   UNL     1     -11.080  18.249  64.992  1.00  0.00    -0.377 NA 
HETATM    8  C   UNL     1      -8.720  14.454  66.953  1.00  0.00    -0.218 A  
HETATM    9  C   UNL     1      -9.575  13.322  66.772  1.00  0.00    -0.258 A  
HETATM   10  C   UNL     1      -7.384  14.354  67.652  1.00  0.00    -0.197 C  
ENDROOT
BRANCH   9  11
HETATM   11  O   UNL     1      -8.943  12.112  67.033  1.00  0.00    -0.187 OA 
BRANCH  11  12
HETATM   12  C   UNL     1      -9.552  10.876  67.253  1.00  0.00    -0.164 A  
HETATM   13  C   UNL     1      -9.419   9.903  66.279  1.00  0.00    -0.193 A  
HETATM   14  C   UNL     1     -10.019   8.685  66.561  1.00  0.00    -0.282 A  
HETATM   15 BR   UNL     1      -8.496  10.196  64.654  1.00  0.00    -0.189 Br 
HETATM   16  N   UNL     1      -9.909   7.565  65.737  1.00  0.00    -0.096 NA 
HETATM   17  N   UNL     1     -10.697   8.453  67.695  1.00  0.00    -0.181 NA 
HETATM   18  H1  UNL     1     -10.351   6.669  65.944  1.00  0.00     0.000 HD 
HETATM   19  H2  UNL     1      -8.914   7.386  65.599  1.00  0.00     0.000 HD 
HETATM   20  C   UNL     1     -10.833   9.455  68.565  1.00  0.00    -0.105 A  
HETATM   21  N   UNL     1     -10.318  10.674  68.335  1.00  0.00    -0.167 NA 
BRANCH  20  22
HETATM   22  N   UNL     1     -11.471   9.280  69.800  1.00  0.00    -0.437 NA 
HETATM   23  H   UNL     1     -12.148  10.004  70.039  1.00  0.00     0.000 HD 
BRANCH  22  24
HETATM   24  C   UNL     1     -11.326   8.267  70.763  1.00  0.00    -0.266 A  
HETATM   25  C   UNL     1     -11.966   7.026  70.667  1.00  0.00    -0.361 A  
HETATM   26  C   UNL     1     -11.775   6.031  71.632  1.00  0.00    -0.209 A  
HETATM   27  C   UNL     1     -10.944   6.257  72.728  1.00  0.00    -0.291 A  
HETATM   28  C   UNL     1     -10.723   5.219  73.696  1.00  0.00    -0.294 C  
HETATM   29  C   UNL     1     -10.323   7.500  72.860  1.00  0.00    -0.349 A  
HETATM   30  C   UNL     1     -10.523   8.498  71.893  1.00  0.00    -0.387 A  
HETATM   31  N   UNL     1     -10.543   4.373  74.469  1.00  0.00    -0.282 NA 
ENDBRANCH  22  24
ENDBRANCH  20  22
ENDBRANCH  11  12
ENDBRANCH   9  11
TORSDOF 4
ENDMDL
MODEL      103
REMARK 921   NORMALIZED FREE ENERGY PREDICTED BY IDOCK:   -5.79 KCAL/MOL
REMARK 922        TOTAL FREE ENERGY PREDICTED BY IDOCK:   -7.79 KCAL/MOL
REMARK 923 INTER-LIGAND FREE ENERGY PREDICTED BY IDOCK:   -7.29 KCAL/MOL
REMARK 924 INTRA-LIGAND FREE ENERGY PREDICTED BY IDOCK:   -0.50 KCAL/MOL
REMARK 927      BINDING AFFINITY PREDICTED BY RF-SCORE:    0.00 PKD
ROOT
HETATM    1  C   UNL     1     -11.812  12.255  68.979  1.00  0.00    -0.358 C  
HETATM    2  C   UNL     1     -11.576  10.899  69.567  1.00  0.00    -0.384 A  
HETATM    3  C   UNL     1     -12.461  10.596  70.629  1.00  0.00    -0.462 A  
HETATM    4  C   UNL     1     -12.479   9.357  71.253  1.00  0.00    -0.416 A  
HETATM    5  C   UNL     1     -11.616   8.373  70.797  1.00  0.00    -0.252 A  
HETATM    6  C   UNL     1     -13.402   9.111  72.328  1.00  0.00    -0.477 C  
HETATM    7  N   UNL     1     -14.156   8.952  73.187  1.00  0.00    -0.234 NA 
HETATM    8  C   UNL     1     -10.702   8.642  69.752  1.00  0.00    -0.215 A  
HETATM    9  C   UNL     1     -10.630   9.936  69.148  1.00  0.00    -0.220 A  
HETATM   10  C   UNL     1      -9.835   7.490  69.301  1.00  0.00    -0.170 C  
ENDROOT
BRANCH   9  11
HETATM   11  O   UNL     1      -9.515  10.098  68.335  1.00  0.00    -0.139 OA 
BRANCH  11  12
HETATM   12  C   UNL     1      -8.696  11.225  68.245  1.00  0.00    -0.158 A  
HETATM   13  C   UNL     1      -7.550  11.260  69.019  1.00  0.00    -0.106 A  
HETATM   14  C   UNL     1      -6.760  12.389  68.870  1.00  0.00    -0.098 A  
HETATM   15 BR   UNL     1      -7.081   9.876  70.221  1.00  0.00    -0.150 Br 
HETATM   16  N   UNL     1      -5.525  12.551  69.501  1.00  0.00    -0.078 NA 
HETATM   17  N   UNL     1      -7.076  13.395  68.042  1.00  0.00    -0.107 NA 
HETATM   18  H1  UNL     1      -4.944  13.382  69.392  1.00  0.00     0.000 HD 
HETATM   19  H2  UNL     1      -4.951  11.745  69.255  1.00  0.00     0.000 HD 
HETATM   20  C   UNL     1      -8.225  13.320  67.368  1.00  0.00    -0.183 A  
HETATM   21  N   UNL     1      -9.062  12.278  67.499  1.00  0.00    -0.175 NA 
BRANCH  20  22
HETATM   22  N   UNL     1      -8.600  14.296  66.436  1.00  0.00    -0.400 NA 
HETATM   23  H   UNL     1      -8.663  13.968  65.473  1.00  0.00     0.000 HD 
BRANCH  22  24
HETATM   24  C   UNL     1      -8.903  15.657  66.616  1.00  0.00    -0.292 A  
HETATM   25  C   UNL     1     -10.181  16.117  66.950  1.00  0.00    -0.283 A  
HETATM   26  C   UNL     1     -10.438  17.478  67.149  1.00  0.00    -0.312 A  
HETATM   27  C   UNL     1      -9.420  18.419  67.006  1.00  0.00    -0.281 A  
HETATM   28  C   UNL     1      -9.682  19.810  67.247  1.00  0.00    -0.370 C  
HETATM   29  C   UNL     1      -8.145  17.984  66.640  1.00  0.00    -0.285 A  
HETATM   30  C   UNL     1      -7.894  16.618  66.435  1.00  0.00    -0.347 A  
HETATM   31  N   UNL     1      -9.898  20.932  67.451  1.00  0.00    -0.344 NA 
ENDBRANCH  22  24
ENDBRANCH  20  22
ENDBRANCH  11  12
ENDBRANCH   9  11
TORSDOF 4
ENDMDL
MODEL      104
REMARK 921   NORMALIZED FREE ENERGY PREDICTED BY IDOCK:   -5.77 KCAL/MOL
REMARK 922        TOTAL FREE ENERGY PREDICTED BY IDOCK:   -7.77 KCAL/MOL
REMARK 923 INTER-LIGAND FREE ENERGY PREDICTED BY IDOCK:   -6.70 KCAL/MOL
REMARK 924 INTRA-LIGAND FREE ENERGY PREDICTED BY IDOCK:   -1.07 KCAL/MOL
REMARK 927      BINDING AFFINITY PREDICTED BY RF-SCORE:    0.00 PKD
ROOT
HETATM    1  C   UNL     1     -10.321  15.304  69.886  1.00  0.00    -0.258 C  
HETATM    2  C   UNL     1      -9.514  15.688  68.684  1.00  0.00    -0.204 A  
HETATM    3  C   UNL     1     -10.311  16.141  67.606  1.00  0.00    -0.288 A  
HETATM    4  C   UNL     1      -9.760  16.635  66.431  1.00  0.00    -0.306 A  
HETATM    5  C   UNL     1      -8.381  16.710  66.326  1.00  0.00    -0.360 A  
HETATM    6  C   UNL     1     -10.623  17.081  65.371  1.00  0.00    -0.134 C  
HETATM    7  N   UNL     1     -11.348  17.427  64.542  1.00  0.00    -0.696 NA 
HETATM    8  C   UNL     1      -7.551  16.248  67.372  1.00  0.00    -0.183 A  
HETATM    9  C   UNL     1      -8.106  15.676  68.559  1.00  0.00    -0.147 A  
HETATM   10  C   UNL     1      -6.062  16.414  67.176  1.00  0.00    -0.182 C  
ENDROOT
BRANCH   9  11
HETATM   11  O   UNL     1      -7.160  15.042  69.355  1.00  0.00    -0.157 OA 
BRANCH  11  12
HETATM   12  C   UNL     1      -6.926  13.670  69.452  1.00  0.00     0.021 A  
HETATM   13  C   UNL     1      -6.071  13.223  70.443  1.00  0.00    -0.064 A  
HETATM   14  C   UNL     1      -5.896  11.850  70.512  1.00  0.00    -0.125 A  
HETATM   15 BR   UNL     1      -5.175  14.394  71.630  1.00  0.00    -0.178 Br 
HETATM   16  N   UNL     1      -5.144  11.219  71.504  1.00  0.00    -0.257 NA 
HETATM   17  N   UNL     1      -6.502  10.996  69.672  1.00  0.00    -0.108 NA 
HETATM   18  H1  UNL     1      -5.015  10.209  71.554  1.00  0.00     0.000 HD 
HETATM   19  H2  UNL     1      -5.516  11.522  72.404  1.00  0.00     0.000 HD 
HETATM   20  C   UNL     1      -7.269  11.500  68.704  1.00  0.00    -0.102 A  
HETATM   21  N   UNL     1      -7.445  12.822  68.551  1.00  0.00    -0.121 NA 
BRANCH  20  22
HETATM   22  N   UNL     1      -7.986  10.678  67.827  1.00  0.00    -0.109 NA 
HETATM   23  H   UNL     1      -7.719   9.693  67.848  1.00  0.00     0.000 HD 
BRANCH  22  24
HETATM   24  C   UNL     1      -9.014  10.991  66.921  1.00  0.00    -0.157 A  
HETATM   25  C   UNL     1     -10.239  11.539  67.316  1.00  0.00    -0.229 A  
HETATM   26  C   UNL     1     -11.228  11.864  66.381  1.00  0.00    -0.387 A  
HETATM   27  C   UNL     1     -11.020  11.637  65.021  1.00  0.00    -0.334 A  
HETATM   28  C   UNL     1     -12.024  12.007  64.064  1.00  0.00    -0.403 C  
HETATM   29  C   UNL     1      -9.817  11.060  64.609  1.00  0.00    -0.338 A  
HETATM   30  C   UNL     1      -8.831  10.730  65.552  1.00  0.00    -0.203 A  
HETATM   31  N   UNL     1     -12.836  12.316  63.295  1.00  0.00    -0.695 NA 
ENDBRANCH  22  24
ENDBRANCH  20  22
ENDBRANCH  11  12
ENDBRANCH   9  11
TORSDOF 4
ENDMDL
MODEL      105
REMARK 921   NORMALIZED FREE ENERGY PREDICTED BY IDOCK:   -5.75 KCAL/MOL
REMARK 922        TOTAL FREE ENERGY PREDICTED BY IDOCK:   -7.75 KCAL/MOL
REMARK 923 INTER-LIGAND FREE ENERGY PREDICTED BY IDOCK:   -6.96 KCAL/MOL
REMARK 924 INTRA-LIGAND FREE ENERGY PREDICTED BY IDOCK:   -0.80 KCAL/MOL
REMARK 927      BINDING AFFINITY PREDICTED BY RF-SCORE:    0.00 PKD
ROOT
HETATM    1  C   UNL     1      -9.493   8.270  69.446  1.00  0.00    -0.159 C  
HETATM    2  C   UNL     1     -10.583   9.260  69.716  1.00  0.00    -0.244 A  
HETATM    3  C   UNL     1     -11.440   8.863  70.770  1.00  0.00    -0.319 A  
HETATM    4  C   UNL     1     -12.459   9.677  71.246  1.00  0.00    -0.445 A  
HETATM    5  C   UNL     1     -12.621  10.933  70.686  1.00  0.00    -0.435 A  
HETATM    6  C   UNL     1     -13.298   9.216  72.319  1.00  0.00    -0.477 C  
HETATM    7  N   UNL     1     -13.951   8.811  73.180  1.00  0.00    -0.189 NA 
HETATM    8  C   UNL     1     -11.798  11.359  69.618  1.00  0.00    -0.431 A  
HETATM    9  C   UNL     1     -10.789  10.502  69.075  1.00  0.00    -0.232 A  
HETATM   10  C   UNL     1     -12.027  12.762  69.107  1.00  0.00    -0.296 C  
ENDROOT
BRANCH   9  11
HETATM   11  O   UNL     1     -10.261  10.970  67.878  1.00  0.00    -0.175 OA 
BRANCH  11  12
HETATM   12  C   UNL     1      -8.998  11.529  67.678  1.00  0.00    -0.160 A  
HETATM   13  C   UNL     1      -8.154  10.919  66.768  1.00  0.00    -0.142 A  
HETATM   14  C   UNL     1      -6.923  11.530  66.587  1.00  0.00    -0.069 A  
HETATM   15 BR   UNL     1      -8.620   9.342  65.831  1.00  0.00    -0.179 Br 
HETATM   16  N   UNL     1      -5.984  11.106  65.645  1.00  0.00    -0.395 NA 
HETATM   17  N   UNL     1      -6.555  12.637  67.251  1.00  0.00    -0.145 NA 
HETATM   18  H1  UNL     1      -5.079  11.555  65.513  1.00  0.00     0.000 HD 
HETATM   19  H2  UNL     1      -6.451  11.092  64.738  1.00  0.00     0.000 HD 
HETATM   20  C   UNL     1      -7.398  13.139  68.155  1.00  0.00    -0.119 A  
HETATM   21  N   UNL     1      -8.587  12.571  68.414  1.00  0.00    -0.157 NA 
BRANCH  20  22
HETATM   22  N   UNL     1      -7.119  14.326  68.845  1.00  0.00    -0.109 NA 
HETATM   23  H   UNL     1      -6.382  14.251  69.546  1.00  0.00     0.000 HD 
BRANCH  22  24
HETATM   24  C   UNL     1      -7.693  15.603  68.727  1.00  0.00    -0.165 A  
HETATM   25  C   UNL     1      -6.945  16.754  68.455  1.00  0.00    -0.170 A  
HETATM   26  C   UNL     1      -7.555  18.005  68.316  1.00  0.00    -0.278 A  
HETATM   27  C   UNL     1      -8.936  18.139  68.458  1.00  0.00    -0.309 A  
HETATM   28  C   UNL     1      -9.561  19.420  68.279  1.00  0.00    -0.378 C  
HETATM   29  C   UNL     1      -9.697  17.009  68.763  1.00  0.00    -0.273 A  
HETATM   30  C   UNL     1      -9.078  15.757  68.908  1.00  0.00    -0.225 A  
HETATM   31  N   UNL     1     -10.060  20.456  68.124  1.00  0.00    -0.281 NA 
ENDBRANCH  22  24
ENDBRANCH  20  22
ENDBRANCH  11  12
ENDBRANCH   9  11
TORSDOF 4
ENDMDL
MODEL      106
REMARK 921   NORMALIZED FREE ENERGY PREDICTED BY IDOCK:   -5.75 KCAL/MOL
REMARK 922        TOTAL FREE ENERGY PREDICTED BY IDOCK:   -7.75 KCAL/MOL
REMARK 923 INTER-LIGAND FREE ENERGY PREDICTED BY IDOCK:   -6.93 KCAL/MOL
REMARK 924 INTRA-LIGAND FREE ENERGY PREDICTED BY IDOCK:   -0.82 KCAL/MOL
REMARK 927      BINDING AFFINITY PREDICTED BY RF-SCORE:    0.00 PKD
ROOT
HETATM    1  C   UNL     1     -11.036   7.059  68.071  1.00  0.00    -0.185 C  
HETATM    2  C   UNL     1      -9.954   7.944  67.535  1.00  0.00    -0.250 A  
HETATM    3  C   UNL     1      -9.401   7.469  66.322  1.00  0.00    -0.176 A  
HETATM    4  C   UNL     1      -8.452   8.184  65.606  1.00  0.00    -0.170 A  
HETATM    5  C   UNL     1      -8.054   9.422  66.086  1.00  0.00    -0.111 A  
HETATM    6  C   UNL     1      -7.927   7.647  64.380  1.00  0.00    -0.123 C  
HETATM    7  N   UNL     1      -7.529   7.182  63.402  1.00  0.00    -0.089 NA 
HETATM    8  C   UNL     1      -8.567   9.923  67.304  1.00  0.00    -0.125 A  
HETATM    9  C   UNL     1      -9.495   9.164  68.083  1.00  0.00    -0.142 A  
HETATM   10  C   UNL     1      -8.102  11.300  67.716  1.00  0.00    -0.119 C  
ENDROOT
BRANCH   9  11
HETATM   11  O   UNL     1      -9.689   9.680  69.358  1.00  0.00    -0.173 OA 
BRANCH  11  12
HETATM   12  C   UNL     1     -10.747  10.484  69.788  1.00  0.00    -0.264 A  
HETATM   13  C   UNL     1     -11.483  10.061  70.879  1.00  0.00    -0.371 A  
HETATM   14  C   UNL     1     -12.503  10.909  71.281  1.00  0.00    -0.388 A  
HETATM   15 BR   UNL     1     -11.150   8.426  71.772  1.00  0.00    -0.385 Br 
HETATM   16  N   UNL     1     -13.287  10.688  72.414  1.00  0.00    -0.524 NA 
HETATM   17  N   UNL     1     -12.777  12.065  70.656  1.00  0.00    -0.146 NA 
HETATM   18  H1  UNL     1     -14.037  11.312  72.709  1.00  0.00     0.000 HD 
HETATM   19  H2  UNL     1     -12.651  10.583  73.205  1.00  0.00     0.000 HD 
HETATM   20  C   UNL     1     -12.061  12.383  69.576  1.00  0.00    -0.189 A  
HETATM   21  N   UNL     1     -11.090  11.585  69.104  1.00  0.00    -0.246 NA 
BRANCH  20  22
HETATM   22  N   UNL     1     -12.240  13.599  68.904  1.00  0.00    -0.350 NA 
HETATM   23  H   UNL     1     -13.208  13.912  68.834  1.00  0.00     0.000 HD 
BRANCH  22  24
HETATM   24  C   UNL     1     -11.299  14.457  68.310  1.00  0.00    -0.287 A  
HETATM   25  C   UNL     1     -10.190  14.965  68.995  1.00  0.00    -0.243 A  
HETATM   26  C   UNL     1      -9.258  15.795  68.361  1.00  0.00    -0.192 A  
HETATM   27  C   UNL     1      -9.420  16.148  67.022  1.00  0.00    -0.233 A  
HETATM   28  C   UNL     1      -8.441  16.970  66.367  1.00  0.00    -0.283 C  
HETATM   29  C   UNL     1     -10.538  15.678  66.330  1.00  0.00    -0.310 A  
HETATM   30  C   UNL     1     -11.473  14.852  66.972  1.00  0.00    -0.333 A  
HETATM   31  N   UNL     1      -7.642  17.628  65.842  1.00  0.00    -0.527 NA 
ENDBRANCH  22  24
ENDBRANCH  20  22
ENDBRANCH  11  12
ENDBRANCH   9  11
TORSDOF 4
ENDMDL
MODEL      107
REMARK 921   NORMALIZED FREE ENERGY PREDICTED BY IDOCK:   -5.74 KCAL/MOL
REMARK 922        TOTAL FREE ENERGY PREDICTED BY IDOCK:   -7.74 KCAL/MOL
REMARK 923 INTER-LIGAND FREE ENERGY PREDICTED BY IDOCK:   -6.83 KCAL/MOL
REMARK 924 INTRA-LIGAND FREE ENERGY PREDICTED BY IDOCK:   -0.91 KCAL/MOL
REMARK 927      BINDING AFFINITY PREDICTED BY RF-SCORE:    0.00 PKD
ROOT
HETATM    1  C   UNL     1     -10.255   5.290  66.897  1.00  0.00    -0.279 C  
HETATM    2  C   UNL     1     -10.109   6.361  67.933  1.00  0.00    -0.170 A  
HETATM    3  C   UNL     1     -11.132   6.326  68.911  1.00  0.00    -0.434 A  
HETATM    4  C   UNL     1     -11.136   7.170  70.013  1.00  0.00    -0.288 A  
HETATM    5  C   UNL     1     -10.084   8.057  70.173  1.00  0.00    -0.194 A  
HETATM    6  C   UNL     1     -12.205   7.086  70.972  1.00  0.00    -0.374 C  
HETATM    7  N   UNL     1     -13.079   6.990  71.719  1.00  0.00    -0.343 NA 
HETATM    8  C   UNL     1      -9.054   8.136  69.208  1.00  0.00    -0.151 A  
HETATM    9  C   UNL     1      -9.076   7.319  68.035  1.00  0.00    -0.133 A  
HETATM   10  C   UNL     1      -7.932   9.105  69.498  1.00  0.00    -0.098 C  
ENDROOT
BRANCH   9  11
HETATM   11  O   UNL     1      -8.143   7.709  67.081  1.00  0.00    -0.114 OA 
BRANCH  11  12
HETATM   12  C   UNL     1      -8.393   8.403  65.896  1.00  0.00    -0.134 A  
HETATM   13  C   UNL     1      -7.701   8.023  64.761  1.00  0.00    -0.120 A  
HETATM   14  C   UNL     1      -8.007   8.726  63.606  1.00  0.00    -0.158 A  
HETATM   15 BR   UNL     1      -6.403   6.645  64.763  1.00  0.00    -0.039 Br 
HETATM   16  N   UNL     1      -7.475   8.418  62.354  1.00  0.00    -0.100 NA 
HETATM   17  N   UNL     1      -8.908   9.720  63.578  1.00  0.00    -0.226 NA 
HETATM   18  H1  UNL     1      -7.700   8.936  61.504  1.00  0.00     0.000 HD 
HETATM   19  H2  UNL     1      -7.678   7.435  62.171  1.00  0.00     0.000 HD 
HETATM   20  C   UNL     1      -9.497  10.072  64.722  1.00  0.00    -0.304 A  
HETATM   21  N   UNL     1      -9.213   9.464  65.885  1.00  0.00    -0.195 NA 
BRANCH  20  22
HETATM   22  N   UNL     1     -10.493  11.055  64.768  1.00  0.00    -0.325 NA 
HETATM   23  H   UNL     1     -11.222  10.960  64.062  1.00  0.00     0.000 HD 
BRANCH  22  24
HETATM   24  C   UNL     1     -10.648  12.153  65.632  1.00  0.00    -0.262 A  
HETATM   25  C   UNL     1      -9.571  12.795  66.252  1.00  0.00    -0.242 A  
HETATM   26  C   UNL     1      -9.762  13.903  67.084  1.00  0.00    -0.244 A  
HETATM   27  C   UNL     1     -11.045  14.393  67.326  1.00  0.00    -0.318 A  
HETATM   28  C   UNL     1     -11.232  15.554  68.151  1.00  0.00    -0.343 C  
HETATM   29  C   UNL     1     -12.137  13.747  66.743  1.00  0.00    -0.460 A  
HETATM   30  C   UNL     1     -11.939  12.631  65.915  1.00  0.00    -0.497 A  
HETATM   31  N   UNL     1     -11.376  16.496  68.812  1.00  0.00    -0.283 NA 
ENDBRANCH  22  24
ENDBRANCH  20  22
ENDBRANCH  11  12
ENDBRANCH   9  11
TORSDOF 4
ENDMDL
MODEL      108
REMARK 921   NORMALIZED FREE ENERGY PREDICTED BY IDOCK:   -5.73 KCAL/MOL
REMARK 922        TOTAL FREE ENERGY PREDICTED BY IDOCK:   -7.72 KCAL/MOL
REMARK 923 INTER-LIGAND FREE ENERGY PREDICTED BY IDOCK:   -7.21 KCAL/MOL
REMARK 924 INTRA-LIGAND FREE ENERGY PREDICTED BY IDOCK:   -0.51 KCAL/MOL
REMARK 927      BINDING AFFINITY PREDICTED BY RF-SCORE:    0.00 PKD
ROOT
HETATM    1  C   UNL     1      -8.331   7.300  70.320  1.00  0.00    -0.135 C  
HETATM    2  C   UNL     1      -9.583   6.788  70.962  1.00  0.00    -0.175 A  
HETATM    3  C   UNL     1      -9.340   5.759  71.903  1.00  0.00    -0.165 A  
HETATM    4  C   UNL     1     -10.349   5.208  72.680  1.00  0.00    -0.248 A  
HETATM    5  C   UNL     1     -11.635   5.707  72.548  1.00  0.00    -0.303 A  
HETATM    6  C   UNL     1     -10.038   4.163  73.619  1.00  0.00    -0.144 C  
HETATM    7  N   UNL     1      -9.750   3.327  74.359  1.00  0.00    -0.106 NA 
HETATM    8  C   UNL     1     -11.922   6.720  71.605  1.00  0.00    -0.391 A  
HETATM    9  C   UNL     1     -10.903   7.247  70.752  1.00  0.00    -0.241 A  
HETATM   10  C   UNL     1     -13.346   7.225  71.570  1.00  0.00    -0.435 C  
ENDROOT
BRANCH   9  11
HETATM   11  O   UNL     1     -11.405   8.033  69.722  1.00  0.00    -0.062 OA 
BRANCH  11  12
HETATM   12  C   UNL     1     -10.671   8.795  68.812  1.00  0.00    -0.077 A  
HETATM   13  C   UNL     1     -10.381   8.237  67.580  1.00  0.00    -0.265 A  
HETATM   14  C   UNL     1      -9.675   9.047  66.704  1.00  0.00    -0.230 A  
HETATM   15 BR   UNL     1     -10.893   6.478  67.103  1.00  0.00    -0.480 Br 
HETATM   16  N   UNL     1      -9.376   8.684  65.391  1.00  0.00    -0.440 NA 
HETATM   17  N   UNL     1      -9.281  10.290  67.021  1.00  0.00    -0.149 NA 
HETATM   18  H1  UNL     1      -8.856   9.279  64.747  1.00  0.00     0.000 HD 
HETATM   19  H2  UNL     1     -10.257   8.443  64.936  1.00  0.00     0.000 HD 
HETATM   20  C   UNL     1      -9.546  10.744  68.247  1.00  0.00    -0.166 A  
HETATM   21  N   UNL     1     -10.185   9.996  69.160  1.00  0.00    -0.196 NA 
BRANCH  20  22
HETATM   22  N   UNL     1      -9.226  12.050  68.636  1.00  0.00    -0.380 NA 
HETATM   23  H   UNL     1      -8.715  12.123  69.516  1.00  0.00     0.000 HD 
BRANCH  22  24
HETATM   24  C   UNL     1      -9.496  13.278  68.009  1.00  0.00    -0.219 A  
HETATM   25  C   UNL     1      -8.506  14.066  67.412  1.00  0.00    -0.209 A  
HETATM   26  C   UNL     1      -8.817  15.270  66.772  1.00  0.00    -0.302 A  
HETATM   27  C   UNL     1     -10.134  15.725  66.722  1.00  0.00    -0.276 A  
HETATM   28  C   UNL     1     -10.453  16.943  66.031  1.00  0.00    -0.290 C  
HETATM   29  C   UNL     1     -11.134  14.971  67.340  1.00  0.00    -0.324 A  
HETATM   30  C   UNL     1     -10.814  13.767  67.987  1.00  0.00    -0.263 A  
HETATM   31  N   UNL     1     -10.705  17.924  65.465  1.00  0.00    -0.539 NA 
ENDBRANCH  22  24
ENDBRANCH  20  22
ENDBRANCH  11  12
ENDBRANCH   9  11
TORSDOF 4
ENDMDL
MODEL      109
REMARK 921   NORMALIZED FREE ENERGY PREDICTED BY IDOCK:   -5.73 KCAL/MOL
REMARK 922        TOTAL FREE ENERGY PREDICTED BY IDOCK:   -7.72 KCAL/MOL
REMARK 923 INTER-LIGAND FREE ENERGY PREDICTED BY IDOCK:   -8.24 KCAL/MOL
REMARK 924 INTRA-LIGAND FREE ENERGY PREDICTED BY IDOCK:    0.52 KCAL/MOL
REMARK 927      BINDING AFFINITY PREDICTED BY RF-SCORE:    0.00 PKD
ROOT
HETATM    1  C   UNL     1     -10.293   6.283  74.124  1.00  0.00    -0.319 C  
HETATM    2  C   UNL     1     -10.180   5.852  72.695  1.00  0.00    -0.209 A  
HETATM    3  C   UNL     1      -9.517   4.610  72.544  1.00  0.00    -0.169 A  
HETATM    4  C   UNL     1      -9.387   3.982  71.313  1.00  0.00    -0.212 A  
HETATM    5  C   UNL     1      -9.952   4.582  70.200  1.00  0.00    -0.278 A  
HETATM    6  C   UNL     1      -8.702   2.720  71.224  1.00  0.00    -0.067 C  
HETATM    7  N   UNL     1      -8.145   1.711  71.193  1.00  0.00    -0.046 NA 
HETATM    8  C   UNL     1     -10.604   5.831  70.306  1.00  0.00    -0.369 A  
HETATM    9  C   UNL     1     -10.685   6.520  71.557  1.00  0.00    -0.235 A  
HETATM   10  C   UNL     1     -11.224   6.379  69.041  1.00  0.00    -0.402 C  
ENDROOT
BRANCH   9  11
HETATM   11  O   UNL     1     -11.119   7.834  71.431  1.00  0.00    -0.234 OA 
BRANCH  11  12
HETATM   12  C   UNL     1     -10.592   8.816  70.591  1.00  0.00    -0.215 A  
HETATM   13  C   UNL     1      -9.280   9.205  70.787  1.00  0.00    -0.262 A  
HETATM   14  C   UNL     1      -8.798  10.162  69.908  1.00  0.00    -0.056 A  
HETATM   15 BR   UNL     1      -8.197   8.501  72.170  1.00  0.00    -0.134 Br 
HETATM   16  N   UNL     1      -7.475  10.604  69.900  1.00  0.00    -0.339 NA 
HETATM   17  N   UNL     1      -9.548  10.694  68.930  1.00  0.00    -0.189 NA 
HETATM   18  H1  UNL     1      -7.121  11.309  69.254  1.00  0.00     0.000 HD 
HETATM   19  H2  UNL     1      -6.881   9.780  69.804  1.00  0.00     0.000 HD 
HETATM   20  C   UNL     1     -10.823  10.313  68.834  1.00  0.00    -0.228 A  
HETATM   21  N   UNL     1     -11.367   9.425  69.681  1.00  0.00    -0.073 NA 
BRANCH  20  22
HETATM   22  N   UNL     1     -11.655  10.772  67.805  1.00  0.00    -0.637 NA 
HETATM   23  H   UNL     1     -12.444  10.164  67.589  1.00  0.00     0.000 HD 
BRANCH  22  24
HETATM   24  C   UNL     1     -11.576  11.936  67.021  1.00  0.00    -0.291 A  
HETATM   25  C   UNL     1     -11.308  11.916  65.649  1.00  0.00    -0.339 A  
HETATM   26  C   UNL     1     -11.265  13.094  64.896  1.00  0.00    -0.333 A  
HETATM   27  C   UNL     1     -11.479  14.331  65.504  1.00  0.00    -0.329 A  
HETATM   28  C   UNL     1     -11.470  15.534  64.719  1.00  0.00    -0.313 C  
HETATM   29  C   UNL     1     -11.714  14.376  66.879  1.00  0.00    -0.422 A  
HETATM   30  C   UNL     1     -11.749  13.190  67.630  1.00  0.00    -0.414 A  
HETATM   31  N   UNL     1     -11.469  16.501  64.079  1.00  0.00    -1.122 NA 
ENDBRANCH  22  24
ENDBRANCH  20  22
ENDBRANCH  11  12
ENDBRANCH   9  11
TORSDOF 4
ENDMDL
MODEL      110
REMARK 921   NORMALIZED FREE ENERGY PREDICTED BY IDOCK:   -5.72 KCAL/MOL
REMARK 922        TOTAL FREE ENERGY PREDICTED BY IDOCK:   -7.71 KCAL/MOL
REMARK 923 INTER-LIGAND FREE ENERGY PREDICTED BY IDOCK:   -7.17 KCAL/MOL
REMARK 924 INTRA-LIGAND FREE ENERGY PREDICTED BY IDOCK:   -0.54 KCAL/MOL
REMARK 927      BINDING AFFINITY PREDICTED BY RF-SCORE:    0.00 PKD
ROOT
HETATM    1  C   UNL     1     -10.656   9.018  67.378  1.00  0.00    -0.309 C  
HETATM    2  C   UNL     1      -9.222   8.853  67.777  1.00  0.00    -0.153 A  
HETATM    3  C   UNL     1      -9.051   7.974  68.874  1.00  0.00    -0.144 A  
HETATM    4  C   UNL     1      -7.799   7.608  69.345  1.00  0.00    -0.123 A  
HETATM    5  C   UNL     1      -6.677   8.100  68.698  1.00  0.00    -0.058 A  
HETATM    6  C   UNL     1      -7.691   6.711  70.465  1.00  0.00    -0.104 C  
HETATM    7  N   UNL     1      -7.645   5.991  71.365  1.00  0.00    -0.097 NA 
HETATM    8  C   UNL     1      -6.805   8.995  67.612  1.00  0.00    -0.070 A  
HETATM    9  C   UNL     1      -8.090   9.433  67.161  1.00  0.00    -0.102 A  
HETATM   10  C   UNL     1      -5.522   9.439  66.948  1.00  0.00    -0.043 C  
ENDROOT
BRANCH   9  11
HETATM   11  O   UNL     1      -8.024  10.499  66.273  1.00  0.00    -0.131 OA 
BRANCH  11  12
HETATM   12  C   UNL     1      -9.089  11.266  65.800  1.00  0.00    -0.203 A  
HETATM   13  C   UNL     1      -9.611  10.959  64.557  1.00  0.00    -0.264 A  
HETATM   14  C   UNL     1     -10.686  11.733  64.148  1.00  0.00    -0.357 A  
HETATM   15 BR   UNL     1      -8.911   9.585  63.460  1.00  0.00    -0.199 Br 
HETATM   16  N   UNL     1     -11.394  11.506  62.967  1.00  0.00    -0.834 NA 
HETATM   17  N   UNL     1     -11.192  12.727  64.895  1.00  0.00    -0.289 NA 
HETATM   18  H1  UNL     1     -12.184  12.075  62.667  1.00  0.00     0.000 HD 
HETATM   19  H2  UNL     1     -11.710  10.536  62.986  1.00  0.00     0.000 HD 
HETATM   20  C   UNL     1     -10.603  13.004  66.059  1.00  0.00    -0.279 A  
HETATM   21  N   UNL     1      -9.530  12.325  66.495  1.00  0.00    -0.232 NA 
BRANCH  20  22
HETATM   22  N   UNL     1     -11.106  13.982  66.926  1.00  0.00    -0.298 NA 
HETATM   23  H   UNL     1     -11.792  13.644  67.602  1.00  0.00     0.000 HD 
BRANCH  22  24
HETATM   24  C   UNL     1     -10.819  15.355  67.015  1.00  0.00    -0.320 A  
HETATM   25  C   UNL     1     -10.506  16.143  65.902  1.00  0.00    -0.366 A  
HETATM   26  C   UNL     1     -10.252  17.513  66.027  1.00  0.00    -0.306 A  
HETATM   27  C   UNL     1     -10.294  18.131  67.276  1.00  0.00    -0.399 A  
HETATM   28  C   UNL     1     -10.070  19.545  67.392  1.00  0.00    -0.406 C  
HETATM   29  C   UNL     1     -10.572  17.356  68.404  1.00  0.00    -0.355 A  
HETATM   30  C   UNL     1     -10.818  15.980  68.274  1.00  0.00    -0.319 A  
HETATM   31  N   UNL     1      -9.895  20.688  67.479  1.00  0.00    -0.414 NA 
ENDBRANCH  22  24
ENDBRANCH  20  22
ENDBRANCH  11  12
ENDBRANCH   9  11
TORSDOF 4
ENDMDL
MODEL      111
REMARK 921   NORMALIZED FREE ENERGY PREDICTED BY IDOCK:   -5.69 KCAL/MOL
REMARK 922        TOTAL FREE ENERGY PREDICTED BY IDOCK:   -7.68 KCAL/MOL
REMARK 923 INTER-LIGAND FREE ENERGY PREDICTED BY IDOCK:   -6.61 KCAL/MOL
REMARK 924 INTRA-LIGAND FREE ENERGY PREDICTED BY IDOCK:   -1.06 KCAL/MOL
REMARK 927      BINDING AFFINITY PREDICTED BY RF-SCORE:    0.00 PKD
ROOT
HETATM    1  C   UNL     1     -12.056  11.861  68.684  1.00  0.00    -0.155 C  
HETATM    2  C   UNL     1     -10.923  10.940  68.352  1.00  0.00    -0.288 A  
HETATM    3  C   UNL     1     -10.311  10.383  69.500  1.00  0.00    -0.264 A  
HETATM    4  C   UNL     1      -9.303   9.432  69.418  1.00  0.00    -0.172 A  
HETATM    5  C   UNL     1      -8.905   8.994  68.165  1.00  0.00    -0.133 A  
HETATM    6  C   UNL     1      -8.719   8.904  70.622  1.00  0.00    -0.197 C  
HETATM    7  N   UNL     1      -8.274   8.506  71.609  1.00  0.00    -0.151 NA 
HETATM    8  C   UNL     1      -9.478   9.541  66.994  1.00  0.00    -0.197 A  
HETATM    9  C   UNL     1     -10.469  10.569  67.066  1.00  0.00    -0.249 A  
HETATM   10  C   UNL     1      -9.006   8.964  65.680  1.00  0.00    -0.249 C  
ENDROOT
BRANCH   9  11
HETATM   11  O   UNL     1     -10.727  11.167  65.839  1.00  0.00    -0.254 OA 
BRANCH  11  12
HETATM   12  C   UNL     1     -10.685  12.531  65.543  1.00  0.00    -0.271 A  
HETATM   13  C   UNL     1     -11.665  13.047  64.715  1.00  0.00    -0.345 A  
HETATM   14  C   UNL     1     -11.592  14.411  64.477  1.00  0.00    -0.384 A  
HETATM   15 BR   UNL     1     -13.016  11.978  63.933  1.00  0.00    -0.105 Br 
HETATM   16  N   UNL     1     -12.547  15.115  63.742  1.00  0.00    -0.899 NA 
HETATM   17  N   UNL     1     -10.635  15.191  65.001  1.00  0.00    -0.416 NA 
HETATM   18  H1  UNL     1     -12.494  16.118  63.566  1.00  0.00     0.000 HD 
HETATM   19  H2  UNL     1     -13.455  14.930  64.169  1.00  0.00     0.000 HD 
HETATM   20  C   UNL     1      -9.689  14.616  65.745  1.00  0.00    -0.297 A  
HETATM   21  N   UNL     1      -9.671  13.294  65.978  1.00  0.00    -0.256 NA 
BRANCH  20  22
HETATM   22  N   UNL     1      -8.691  15.366  66.380  1.00  0.00    -0.391 NA 
HETATM   23  H   UNL     1      -8.415  16.216  65.888  1.00  0.00     0.000 HD 
BRANCH  22  24
HETATM   24  C   UNL     1      -8.010  15.136  67.587  1.00  0.00    -0.161 A  
HETATM   25  C   UNL     1      -8.567  15.402  68.842  1.00  0.00    -0.207 A  
HETATM   26  C   UNL     1      -7.868  15.133  70.024  1.00  0.00     0.227 A  
HETATM   27  C   UNL     1      -6.580  14.600  69.979  1.00  0.00    -0.161 A  
HETATM   28  C   UNL     1      -5.882  14.292  71.195  1.00  0.00    -0.200 C  
HETATM   29  C   UNL     1      -5.992  14.359  68.735  1.00  0.00    -0.084 A  
HETATM   30  C   UNL     1      -6.696  14.637  67.553  1.00  0.00    -0.148 A  
HETATM   31  N   UNL     1      -5.326  14.038  72.181  1.00  0.00    -0.205 NA 
ENDBRANCH  22  24
ENDBRANCH  20  22
ENDBRANCH  11  12
ENDBRANCH   9  11
TORSDOF 4
ENDMDL
MODEL      112
REMARK 921   NORMALIZED FREE ENERGY PREDICTED BY IDOCK:   -5.69 KCAL/MOL
REMARK 922        TOTAL FREE ENERGY PREDICTED BY IDOCK:   -7.68 KCAL/MOL
REMARK 923 INTER-LIGAND FREE ENERGY PREDICTED BY IDOCK:   -6.75 KCAL/MOL
REMARK 924 INTRA-LIGAND FREE ENERGY PREDICTED BY IDOCK:   -0.93 KCAL/MOL
REMARK 927      BINDING AFFINITY PREDICTED BY RF-SCORE:    0.00 PKD
ROOT
HETATM    1  C   UNL     1     -11.809  14.701  66.241  1.00  0.00    -0.299 C  
HETATM    2  C   UNL     1     -11.794  14.030  67.580  1.00  0.00    -0.430 A  
HETATM    3  C   UNL     1     -11.738  14.948  68.656  1.00  0.00    -0.358 A  
HETATM    4  C   UNL     1     -11.809  14.544  69.982  1.00  0.00    -0.372 A  
HETATM    5  C   UNL     1     -11.969  13.195  70.257  1.00  0.00    -0.366 A  
HETATM    6  C   UNL     1     -11.746  15.525  71.032  1.00  0.00    -0.381 C  
HETATM    7  N   UNL     1     -11.690  16.340  71.846  1.00  0.00    -0.494 NA 
HETATM    8  C   UNL     1     -12.009  12.246  69.210  1.00  0.00    -0.308 A  
HETATM    9  C   UNL     1     -11.869  12.644  67.844  1.00  0.00    -0.332 A  
HETATM   10  C   UNL     1     -12.229  10.806  69.613  1.00  0.00    -0.325 C  
ENDROOT
BRANCH   9  11
HETATM   11  O   UNL     1     -11.668  11.574  66.980  1.00  0.00    -0.556 OA 
BRANCH  11  12
HETATM   12  C   UNL     1     -10.469  11.197  66.374  1.00  0.00    -0.260 A  
HETATM   13  C   UNL     1     -10.369  11.316  65.000  1.00  0.00    -0.301 A  
HETATM   14  C   UNL     1      -9.148  10.955  64.453  1.00  0.00    -0.158 A  
HETATM   15 BR   UNL     1     -11.799  11.916  63.915  1.00  0.00    -0.492 Br 
HETATM   16  N   UNL     1      -8.839  11.096  63.099  1.00  0.00    -0.435 NA 
HETATM   17  N   UNL     1      -8.122  10.507  65.194  1.00  0.00    -0.143 NA 
HETATM   18  H1  UNL     1      -7.941  10.830  62.696  1.00  0.00     0.000 HD 
HETATM   19  H2  UNL     1      -9.004  12.072  62.852  1.00  0.00     0.000 HD 
HETATM   20  C   UNL     1      -8.308  10.364  66.507  1.00  0.00    -0.130 A  
HETATM   21  N   UNL     1      -9.479  10.651  67.096  1.00  0.00    -0.155 NA 
BRANCH  20  22
HETATM   22  N   UNL     1      -7.271   9.964  67.360  1.00  0.00    -0.085 NA 
HETATM   23  H   UNL     1      -6.719  10.727  67.751  1.00  0.00     0.000 HD 
BRANCH  22  24
HETATM   24  C   UNL     1      -6.870   8.679  67.763  1.00  0.00    -0.067 A  
HETATM   25  C   UNL     1      -5.781   8.450  68.610  1.00  0.00    -0.037 A  
HETATM   26  C   UNL     1      -5.429   7.157  69.012  1.00  0.00    -0.018 A  
HETATM   27  C   UNL     1      -6.155   6.053  68.566  1.00  0.00    -0.021 A  
HETATM   28  C   UNL     1      -5.812   4.732  69.012  1.00  0.00    -0.017 C  
HETATM   29  C   UNL     1      -7.226   6.258  67.693  1.00  0.00    -0.083 A  
HETATM   30  C   UNL     1      -7.570   7.557  67.287  1.00  0.00    -0.108 A  
HETATM   31  N   UNL     1      -5.534   3.668  69.383  1.00  0.00    -0.015 NA 
ENDBRANCH  22  24
ENDBRANCH  20  22
ENDBRANCH  11  12
ENDBRANCH   9  11
TORSDOF 4
ENDMDL
MODEL      113
REMARK 921   NORMALIZED FREE ENERGY PREDICTED BY IDOCK:   -5.67 KCAL/MOL
REMARK 922        TOTAL FREE ENERGY PREDICTED BY IDOCK:   -7.64 KCAL/MOL
REMARK 923 INTER-LIGAND FREE ENERGY PREDICTED BY IDOCK:   -8.00 KCAL/MOL
REMARK 924 INTRA-LIGAND FREE ENERGY PREDICTED BY IDOCK:    0.35 KCAL/MOL
REMARK 927      BINDING AFFINITY PREDICTED BY RF-SCORE:    0.00 PKD
ROOT
HETATM    1  C   UNL     1     -11.019  19.141  67.425  1.00  0.00    -0.419 C  
HETATM    2  C   UNL     1     -10.022  18.078  67.768  1.00  0.00    -0.329 A  
HETATM    3  C   UNL     1      -8.689  18.552  67.777  1.00  0.00    -0.290 A  
HETATM    4  C   UNL     1      -7.619  17.756  68.160  1.00  0.00    -0.250 A  
HETATM    5  C   UNL     1      -7.873  16.459  68.577  1.00  0.00    -0.197 A  
HETATM    6  C   UNL     1      -6.286  18.296  68.147  1.00  0.00    -0.183 C  
HETATM    7  N   UNL     1      -5.232  18.764  68.122  1.00  0.00    -0.178 NA 
HETATM    8  C   UNL     1      -9.189  15.942  68.563  1.00  0.00    -0.200 A  
HETATM    9  C   UNL     1     -10.289  16.731  68.106  1.00  0.00    -0.318 A  
HETATM   10  C   UNL     1      -9.364  14.531  69.077  1.00  0.00    -0.071 C  
ENDROOT
BRANCH   9  11
HETATM   11  O   UNL     1     -11.450  15.992  67.913  1.00  0.00    -0.270 OA 
BRANCH  11  12
HETATM   12  C   UNL     1     -11.565  14.765  67.258  1.00  0.00    -0.369 A  
HETATM   13  C   UNL     1     -11.318  14.727  65.898  1.00  0.00    -0.331 A  
HETATM   14  C   UNL     1     -11.419  13.478  65.304  1.00  0.00    -0.299 A  
HETATM   15 BR   UNL     1     -10.883  16.268  64.890  1.00  0.00    -0.160 Br 
HETATM   16  N   UNL     1     -11.115  13.238  63.963  1.00  0.00    -0.528 NA 
HETATM   17  N   UNL     1     -11.745  12.371  65.988  1.00  0.00    -0.437 NA 
HETATM   18  H1  UNL     1     -11.190  12.320  63.526  1.00  0.00     0.000 HD 
HETATM   19  H2  UNL     1     -10.164  13.572  63.804  1.00  0.00     0.000 HD 
HETATM   20  C   UNL     1     -12.025  12.491  67.286  1.00  0.00    -0.216 A  
HETATM   21  N   UNL     1     -11.993  13.677  67.916  1.00  0.00    -0.363 NA 
BRANCH  20  22
HETATM   22  N   UNL     1     -12.313  11.378  68.086  1.00  0.00    -0.308 NA 
HETATM   23  H   UNL     1     -13.242  10.981  67.951  1.00  0.00     0.000 HD 
BRANCH  22  24
HETATM   24  C   UNL     1     -11.524  10.719  69.045  1.00  0.00    -0.298 A  
HETATM   25  C   UNL     1     -12.026  10.280  70.275  1.00  0.00    -0.348 A  
HETATM   26  C   UNL     1     -11.217   9.602  71.193  1.00  0.00    -0.454 A  
HETATM   27  C   UNL     1      -9.875   9.354  70.907  1.00  0.00    -0.338 A  
HETATM   28  C   UNL     1      -9.059   8.626  71.837  1.00  0.00    -0.256 C  
HETATM   29  C   UNL     1      -9.346   9.814  69.699  1.00  0.00    -0.237 A  
HETATM   30  C   UNL     1     -10.161  10.500  68.785  1.00  0.00    -0.202 A  
HETATM   31  N   UNL     1      -8.407   8.030  72.590  1.00  0.00    -0.150 NA 
ENDBRANCH  22  24
ENDBRANCH  20  22
ENDBRANCH  11  12
ENDBRANCH   9  11
TORSDOF 4
ENDMDL
MODEL      114
REMARK 921   NORMALIZED FREE ENERGY PREDICTED BY IDOCK:   -5.64 KCAL/MOL
REMARK 922        TOTAL FREE ENERGY PREDICTED BY IDOCK:   -7.61 KCAL/MOL
REMARK 923 INTER-LIGAND FREE ENERGY PREDICTED BY IDOCK:   -6.52 KCAL/MOL
REMARK 924 INTRA-LIGAND FREE ENERGY PREDICTED BY IDOCK:   -1.09 KCAL/MOL
REMARK 927      BINDING AFFINITY PREDICTED BY RF-SCORE:    0.00 PKD
ROOT
HETATM    1  C   UNL     1     -10.370   8.824  67.176  1.00  0.00    -0.364 C  
HETATM    2  C   UNL     1     -10.907  10.035  67.874  1.00  0.00    -0.323 A  
HETATM    3  C   UNL     1     -11.079  11.141  67.008  1.00  0.00    -0.339 A  
HETATM    4  C   UNL     1     -11.653  12.333  67.429  1.00  0.00    -0.425 A  
HETATM    5  C   UNL     1     -12.098  12.429  68.737  1.00  0.00    -0.158 A  
HETATM    6  C   UNL     1     -11.800  13.421  66.500  1.00  0.00    -0.396 C  
HETATM    7  N   UNL     1     -11.899  14.272  65.727  1.00  0.00    -0.365 NA 
HETATM    8  C   UNL     1     -11.926  11.354  69.639  1.00  0.00    -0.416 A  
HETATM    9  C   UNL     1     -11.275  10.146  69.234  1.00  0.00    -0.196 A  
HETATM   10  C   UNL     1     -12.484  11.544  71.030  1.00  0.00    -0.458 C  
ENDROOT
BRANCH   9  11
HETATM   11  O   UNL     1     -10.960   9.312  70.300  1.00  0.00    -0.230 OA 
BRANCH  11  12
HETATM   12  C   UNL     1      -9.703   9.124  70.876  1.00  0.00    -0.284 A  
HETATM   13  C   UNL     1      -9.623   8.365  72.029  1.00  0.00    -0.274 A  
HETATM   14  C   UNL     1      -8.348   8.187  72.544  1.00  0.00    -0.172 A  
HETATM   15 BR   UNL     1     -11.142   7.620  72.876  1.00  0.00    -0.419 Br 
HETATM   16  N   UNL     1      -8.069   7.376  73.646  1.00  0.00    -0.117 NA 
HETATM   17  N   UNL     1      -7.254   8.718  71.978  1.00  0.00    -0.281 NA 
HETATM   18  H1  UNL     1      -7.132   7.246  74.025  1.00  0.00     0.000 HD 
HETATM   19  H2  UNL     1      -8.446   6.450  73.443  1.00  0.00     0.000 HD 
HETATM   20  C   UNL     1      -7.411   9.486  70.899  1.00  0.00    -0.013 A  
HETATM   21  N   UNL     1      -8.621   9.739  70.375  1.00  0.00    -0.143 NA 
BRANCH  20  22
HETATM   22  N   UNL     1      -6.318  10.027  70.211  1.00  0.00    -0.092 NA 
HETATM   23  H   UNL     1      -5.491   9.431  70.185  1.00  0.00     0.000 HD 
BRANCH  22  24
HETATM   24  C   UNL     1      -6.177  11.260  69.551  1.00  0.00    -0.099 A  
HETATM   25  C   UNL     1      -6.280  11.399  68.163  1.00  0.00    -0.045 A  
HETATM   26  C   UNL     1      -6.162  12.648  67.544  1.00  0.00    -0.159 A  
HETATM   27  C   UNL     1      -5.925  13.794  68.301  1.00  0.00    -0.108 A  
HETATM   28  C   UNL     1      -5.842  15.078  67.664  1.00  0.00    -0.042 C  
HETATM   29  C   UNL     1      -5.786  13.672  69.685  1.00  0.00    -0.102 A  
HETATM   30  C   UNL     1      -5.898  12.415  70.300  1.00  0.00    -0.163 A  
HETATM   31  N   UNL     1      -5.783  16.114  67.143  1.00  0.00    -0.337 NA 
ENDBRANCH  22  24
ENDBRANCH  20  22
ENDBRANCH  11  12
ENDBRANCH   9  11
TORSDOF 4
ENDMDL
MODEL      115
REMARK 921   NORMALIZED FREE ENERGY PREDICTED BY IDOCK:   -5.62 KCAL/MOL
REMARK 922        TOTAL FREE ENERGY PREDICTED BY IDOCK:   -7.58 KCAL/MOL
REMARK 923 INTER-LIGAND FREE ENERGY PREDICTED BY IDOCK:   -6.52 KCAL/MOL
REMARK 924 INTRA-LIGAND FREE ENERGY PREDICTED BY IDOCK:   -1.06 KCAL/MOL
REMARK 927      BINDING AFFINITY PREDICTED BY RF-SCORE:    0.00 PKD
ROOT
HETATM    1  C   UNL     1     -10.855   5.874  69.211  1.00  0.00    -0.414 C  
HETATM    2  C   UNL     1     -10.704   6.862  70.326  1.00  0.00    -0.274 A  
HETATM    3  C   UNL     1     -11.939   7.410  70.748  1.00  0.00    -0.261 A  
HETATM    4  C   UNL     1     -12.038   8.274  71.829  1.00  0.00    -0.364 A  
HETATM    5  C   UNL     1     -10.889   8.586  72.536  1.00  0.00    -0.304 A  
HETATM    6  C   UNL     1     -13.323   8.798  72.209  1.00  0.00    -0.419 C  
HETATM    7  N   UNL     1     -14.370   9.199  72.482  1.00  0.00    -0.496 NA 
HETATM    8  C   UNL     1      -9.633   8.075  72.134  1.00  0.00    -0.277 A  
HETATM    9  C   UNL     1      -9.510   7.238  70.981  1.00  0.00    -0.158 A  
HETATM   10  C   UNL     1      -8.448   8.440  72.997  1.00  0.00    -0.209 C  
ENDROOT
BRANCH   9  11
HETATM   11  O   UNL     1      -8.193   7.046  70.583  1.00  0.00    -0.116 OA 
BRANCH  11  12
HETATM   12  C   UNL     1      -7.642   7.337  69.334  1.00  0.00    -0.097 A  
HETATM   13  C   UNL     1      -7.016   6.314  68.645  1.00  0.00    -0.080 A  
HETATM   14  C   UNL     1      -6.511   6.649  67.398  1.00  0.00    -0.048 A  
HETATM   15 BR   UNL     1      -6.834   4.565  69.346  1.00  0.00    -0.047 Br 
HETATM   16  N   UNL     1      -5.931   5.725  66.529  1.00  0.00    -0.021 NA 
HETATM   17  N   UNL     1      -6.607   7.885  66.884  1.00  0.00    -0.058 NA 
HETATM   18  H1  UNL     1      -5.559   5.972  65.612  1.00  0.00     0.000 HD 
HETATM   19  H2  UNL     1      -6.609   4.975  66.389  1.00  0.00     0.000 HD 
HETATM   20  C   UNL     1      -7.174   8.836  67.627  1.00  0.00    -0.080 A  
HETATM   21  N   UNL     1      -7.642   8.592  68.861  1.00  0.00    -0.094 NA 
BRANCH  20  22
HETATM   22  N   UNL     1      -7.369  10.135  67.140  1.00  0.00    -0.090 NA 
HETATM   23  H   UNL     1      -6.537  10.724  67.145  1.00  0.00     0.000 HD 
BRANCH  22  24
HETATM   24  C   UNL     1      -8.529  10.756  66.647  1.00  0.00    -0.142 A  
HETATM   25  C   UNL     1      -9.203  11.772  67.333  1.00  0.00    -0.174 A  
HETATM   26  C   UNL     1     -10.339  12.387  66.796  1.00  0.00    -0.239 A  
HETATM   27  C   UNL     1     -10.840  11.990  65.557  1.00  0.00    -0.336 A  
HETATM   28  C   UNL     1     -11.985  12.649  64.994  1.00  0.00    -0.419 C  
HETATM   29  C   UNL     1     -10.203  10.954  64.871  1.00  0.00    -0.381 A  
HETATM   30  C   UNL     1      -9.067  10.337  65.418  1.00  0.00    -0.221 A  
HETATM   31  N   UNL     1     -12.906  13.192  64.542  1.00  0.00    -0.701 NA 
ENDBRANCH  22  24
ENDBRANCH  20  22
ENDBRANCH  11  12
ENDBRANCH   9  11
TORSDOF 4
ENDMDL
MODEL      116
REMARK 921   NORMALIZED FREE ENERGY PREDICTED BY IDOCK:   -5.58 KCAL/MOL
REMARK 922        TOTAL FREE ENERGY PREDICTED BY IDOCK:   -7.54 KCAL/MOL
REMARK 923 INTER-LIGAND FREE ENERGY PREDICTED BY IDOCK:   -6.86 KCAL/MOL
REMARK 924 INTRA-LIGAND FREE ENERGY PREDICTED BY IDOCK:   -0.67 KCAL/MOL
REMARK 927      BINDING AFFINITY PREDICTED BY RF-SCORE:    0.00 PKD
ROOT
HETATM    1  C   UNL     1      -5.540   8.843  69.888  1.00  0.00    -0.028 C  
HETATM    2  C   UNL     1      -6.320   9.771  69.009  1.00  0.00    -0.041 A  
HETATM    3  C   UNL     1      -6.263  11.118  69.440  1.00  0.00    -0.079 A  
HETATM    4  C   UNL     1      -6.837  12.155  68.717  1.00  0.00    -0.095 A  
HETATM    5  C   UNL     1      -7.464  11.859  67.518  1.00  0.00    -0.136 A  
HETATM    6  C   UNL     1      -6.745  13.504  69.207  1.00  0.00    -0.080 C  
HETATM    7  N   UNL     1      -6.651  14.572  69.634  1.00  0.00    -0.143 NA 
HETATM    8  C   UNL     1      -7.560  10.524  67.064  1.00  0.00    -0.107 A  
HETATM    9  C   UNL     1      -7.031   9.441  67.834  1.00  0.00    -0.080 A  
HETATM   10  C   UNL     1      -8.225  10.313  65.723  1.00  0.00    -0.147 C  
ENDROOT
BRANCH   9  11
HETATM   11  O   UNL     1      -7.441   8.194  67.376  1.00  0.00    -0.090 OA 
BRANCH  11  12
HETATM   12  C   UNL     1      -8.680   7.588  67.585  1.00  0.00    -0.122 A  
HETATM   13  C   UNL     1      -9.165   6.743  66.603  1.00  0.00    -0.159 A  
HETATM   14  C   UNL     1     -10.386   6.146  66.874  1.00  0.00    -0.248 A  
HETATM   15 BR   UNL     1      -8.246   6.422  64.980  1.00  0.00    -0.091 Br 
HETATM   16  N   UNL     1     -10.980   5.198  66.040  1.00  0.00    -0.764 NA 
HETATM   17  N   UNL     1     -11.071   6.370  68.006  1.00  0.00    -0.312 NA 
HETATM   18  H1  UNL     1     -11.879   4.759  66.239  1.00  0.00     0.000 HD 
HETATM   19  H2  UNL     1     -10.302   4.449  65.901  1.00  0.00     0.000 HD 
HETATM   20  C   UNL     1     -10.570   7.240  68.885  1.00  0.00    -0.191 A  
HETATM   21  N   UNL     1      -9.416   7.890  68.666  1.00  0.00    -0.149 NA 
BRANCH  20  22
HETATM   22  N   UNL     1     -11.188   7.483  70.117  1.00  0.00    -0.385 NA 
HETATM   23  H   UNL     1     -11.223   6.680  70.745  1.00  0.00     0.000 HD 
BRANCH  22  24
HETATM   24  C   UNL     1     -11.769   8.656  70.628  1.00  0.00    -0.155 A  
HETATM   25  C   UNL     1     -12.815   8.649  71.557  1.00  0.00    -0.351 A  
HETATM   26  C   UNL     1     -13.349   9.839  72.064  1.00  0.00    -0.547 A  
HETATM   27  C   UNL     1     -12.854  11.073  71.645  1.00  0.00    -0.540 A  
HETATM   28  C   UNL     1     -13.381  12.289  72.196  1.00  0.00    -0.368 C  
HETATM   29  C   UNL     1     -11.833  11.103  70.693  1.00  0.00    -0.403 A  
HETATM   30  C   UNL     1     -11.306   9.906  70.182  1.00  0.00    -0.335 A  
HETATM   31  N   UNL     1     -13.806  13.268  72.652  1.00  0.00    -0.716 NA 
ENDBRANCH  22  24
ENDBRANCH  20  22
ENDBRANCH  11  12
ENDBRANCH   9  11
TORSDOF 4
ENDMDL
MODEL      117
REMARK 921   NORMALIZED FREE ENERGY PREDICTED BY IDOCK:   -5.57 KCAL/MOL
REMARK 922        TOTAL FREE ENERGY PREDICTED BY IDOCK:   -7.53 KCAL/MOL
REMARK 923 INTER-LIGAND FREE ENERGY PREDICTED BY IDOCK:   -7.15 KCAL/MOL
REMARK 924 INTRA-LIGAND FREE ENERGY PREDICTED BY IDOCK:   -0.37 KCAL/MOL
REMARK 927      BINDING AFFINITY PREDICTED BY RF-SCORE:    0.00 PKD
ROOT
HETATM    1  C   UNL     1      -6.626  14.852  69.802  1.00  0.00    -0.170 C  
HETATM    2  C   UNL     1      -6.700  16.155  69.069  1.00  0.00    -0.170 A  
HETATM    3  C   UNL     1      -6.332  17.261  69.870  1.00  0.00    -0.041 A  
HETATM    4  C   UNL     1      -6.241  18.550  69.363  1.00  0.00    -0.272 A  
HETATM    5  C   UNL     1      -6.492  18.751  68.015  1.00  0.00    -0.227 A  
HETATM    6  C   UNL     1      -5.861  19.634  70.229  1.00  0.00    -0.274 C  
HETATM    7  N   UNL     1      -5.556  20.476  70.955  1.00  0.00    -0.504 NA 
HETATM    8  C   UNL     1      -6.883  17.675  67.186  1.00  0.00    -0.192 A  
HETATM    9  C   UNL     1      -7.046  16.356  67.713  1.00  0.00    -0.133 A  
HETATM   10  C   UNL     1      -7.092  17.992  65.723  1.00  0.00    -0.242 C  
ENDROOT
BRANCH   9  11
HETATM   11  O   UNL     1      -7.679  15.489  66.831  1.00  0.00    -0.218 OA 
BRANCH  11  12
HETATM   12  C   UNL     1      -8.736  14.624  67.117  1.00  0.00    -0.222 A  
HETATM   13  C   UNL     1     -10.023  15.126  67.056  1.00  0.00    -0.241 A  
HETATM   14  C   UNL     1     -11.036  14.217  67.321  1.00  0.00    -0.306 A  
HETATM   15 BR   UNL     1     -10.401  16.936  66.653  1.00  0.00    -0.272 Br 
HETATM   16  N   UNL     1     -12.393  14.525  67.215  1.00  0.00    -0.562 NA 
HETATM   17  N   UNL     1     -10.799  12.933  67.628  1.00  0.00    -0.228 NA 
HETATM   18  H1  UNL     1     -13.138  13.857  67.411  1.00  0.00     0.000 HD 
HETATM   19  H2  UNL     1     -12.549  14.885  66.274  1.00  0.00     0.000 HD 
HETATM   20  C   UNL     1      -9.531  12.530  67.725  1.00  0.00    -0.197 A  
HETATM   21  N   UNL     1      -8.501  13.368  67.527  1.00  0.00    -0.180 NA 
BRANCH  20  22
HETATM   22  N   UNL     1      -9.197  11.194  67.979  1.00  0.00    -0.154 NA 
HETATM   23  H   UNL     1      -8.651  10.742  67.246  1.00  0.00     0.000 HD 
BRANCH  22  24
HETATM   24  C   UNL     1      -9.495  10.376  69.082  1.00  0.00    -0.208 A  
HETATM   25  C   UNL     1      -8.513   9.742  69.850  1.00  0.00    -0.217 A  
HETATM   26  C   UNL     1      -8.847   8.957  70.959  1.00  0.00    -0.285 A  
HETATM   27  C   UNL     1     -10.181   8.777  71.323  1.00  0.00    -0.332 A  
HETATM   28  C   UNL     1     -10.516   8.000  72.483  1.00  0.00    -0.316 C  
HETATM   29  C   UNL     1     -11.179   9.374  70.550  1.00  0.00    -0.329 A  
HETATM   30  C   UNL     1     -10.838  10.154  69.434  1.00  0.00    -0.274 A  
HETATM   31  N   UNL     1     -10.779   7.379  73.427  1.00  0.00    -0.389 NA 
ENDBRANCH  22  24
ENDBRANCH  20  22
ENDBRANCH  11  12
ENDBRANCH   9  11
TORSDOF 4
ENDMDL
MODEL      118
REMARK 921   NORMALIZED FREE ENERGY PREDICTED BY IDOCK:   -5.57 KCAL/MOL
REMARK 922        TOTAL FREE ENERGY PREDICTED BY IDOCK:   -7.52 KCAL/MOL
REMARK 923 INTER-LIGAND FREE ENERGY PREDICTED BY IDOCK:   -6.48 KCAL/MOL
REMARK 924 INTRA-LIGAND FREE ENERGY PREDICTED BY IDOCK:   -1.04 KCAL/MOL
REMARK 927      BINDING AFFINITY PREDICTED BY RF-SCORE:    0.00 PKD
ROOT
HETATM    1  C   UNL     1      -7.351   9.966  69.559  1.00  0.00    -0.102 C  
HETATM    2  C   UNL     1      -8.827  10.057  69.792  1.00  0.00    -0.205 A  
HETATM    3  C   UNL     1      -9.280   9.183  70.808  1.00  0.00    -0.321 A  
HETATM    4  C   UNL     1     -10.597   9.174  71.249  1.00  0.00    -0.399 A  
HETATM    5  C   UNL     1     -11.489  10.075  70.690  1.00  0.00    -0.425 A  
HETATM    6  C   UNL     1     -10.997   8.261  72.286  1.00  0.00    -0.348 C  
HETATM    7  N   UNL     1     -11.279   7.513  73.117  1.00  0.00    -0.340 NA 
HETATM    8  C   UNL     1     -11.080  10.950  69.658  1.00  0.00    -0.328 A  
HETATM    9  C   UNL     1      -9.744  10.921  69.150  1.00  0.00    -0.122 A  
HETATM   10  C   UNL     1     -12.118  11.922  69.147  1.00  0.00    -0.261 C  
ENDROOT
BRANCH   9  11
HETATM   11  O   UNL     1      -9.588  11.651  67.978  1.00  0.00    -0.172 OA 
BRANCH  11  12
HETATM   12  C   UNL     1      -9.687  11.172  66.671  1.00  0.00    -0.196 A  
HETATM   13  C   UNL     1     -10.210  12.014  65.707  1.00  0.00    -0.242 A  
HETATM   14  C   UNL     1     -10.260  11.499  64.421  1.00  0.00    -0.300 A  
HETATM   15 BR   UNL     1     -10.839  13.756  66.097  1.00  0.00    -0.281 Br 
HETATM   16  N   UNL     1     -10.670  12.238  63.311  1.00  0.00    -0.595 NA 
HETATM   17  N   UNL     1      -9.840  10.261  64.117  1.00  0.00    -0.304 NA 
HETATM   18  H1  UNL     1     -10.707  11.859  62.365  1.00  0.00     0.000 HD 
HETATM   19  H2  UNL     1     -10.094  13.079  63.277  1.00  0.00     0.000 HD 
HETATM   20  C   UNL     1      -9.400   9.483  65.107  1.00  0.00    -0.252 A  
HETATM   21  N   UNL     1      -9.368   9.901  66.382  1.00  0.00    -0.160 NA 
BRANCH  20  22
HETATM   22  N   UNL     1      -8.886   8.202  64.866  1.00  0.00    -0.394 NA 
HETATM   23  H   UNL     1      -8.816   7.946  63.882  1.00  0.00     0.000 HD 
BRANCH  22  24
HETATM   24  C   UNL     1      -8.451   7.213  65.765  1.00  0.00    -0.146 A  
HETATM   25  C   UNL     1      -9.301   6.587  66.682  1.00  0.00    -0.184 A  
HETATM   26  C   UNL     1      -8.837   5.586  67.542  1.00  0.00    -0.105 A  
HETATM   27  C   UNL     1      -7.500   5.192  67.514  1.00  0.00    -0.083 A  
HETATM   28  C   UNL     1      -7.038   4.138  68.373  1.00  0.00    -0.055 C  
HETATM   29  C   UNL     1      -6.627   5.828  66.629  1.00  0.00    -0.056 A  
HETATM   30  C   UNL     1      -7.097   6.837  65.773  1.00  0.00    -0.072 A  
HETATM   31  N   UNL     1      -6.672   3.281  69.064  1.00  0.00    -0.037 NA 
ENDBRANCH  22  24
ENDBRANCH  20  22
ENDBRANCH  11  12
ENDBRANCH   9  11
TORSDOF 4
ENDMDL
MODEL      119
REMARK 921   NORMALIZED FREE ENERGY PREDICTED BY IDOCK:   -5.56 KCAL/MOL
REMARK 922        TOTAL FREE ENERGY PREDICTED BY IDOCK:   -7.51 KCAL/MOL
REMARK 923 INTER-LIGAND FREE ENERGY PREDICTED BY IDOCK:   -6.97 KCAL/MOL
REMARK 924 INTRA-LIGAND FREE ENERGY PREDICTED BY IDOCK:   -0.54 KCAL/MOL
REMARK 927      BINDING AFFINITY PREDICTED BY RF-SCORE:    0.00 PKD
ROOT
HETATM    1  C   UNL     1     -11.768   8.674  70.990  1.00  0.00    -0.319 C  
HETATM    2  C   UNL     1     -11.105   7.381  70.628  1.00  0.00    -0.285 A  
HETATM    3  C   UNL     1     -11.045   6.470  71.710  1.00  0.00    -0.299 A  
HETATM    4  C   UNL     1     -10.556   5.179  71.568  1.00  0.00    -0.217 A  
HETATM    5  C   UNL     1     -10.138   4.762  70.314  1.00  0.00    -0.304 A  
HETATM    6  C   UNL     1     -10.520   4.300  72.706  1.00  0.00    -0.179 C  
HETATM    7  N   UNL     1     -10.506   3.625  73.641  1.00  0.00    -0.161 NA 
HETATM    8  C   UNL     1     -10.163   5.649  69.214  1.00  0.00    -0.309 A  
HETATM    9  C   UNL     1     -10.602   7.002  69.363  1.00  0.00    -0.230 A  
HETATM   10  C   UNL     1      -9.728   5.083  67.882  1.00  0.00    -0.196 C  
ENDROOT
BRANCH   9  11
HETATM   11  O   UNL     1     -10.316   7.795  68.259  1.00  0.00    -0.197 OA 
BRANCH  11  12
HETATM   12  C   UNL     1      -9.916   9.132  68.265  1.00  0.00    -0.175 A  
HETATM   13  C   UNL     1      -8.663   9.434  68.765  1.00  0.00    -0.131 A  
HETATM   14  C   UNL     1      -8.305  10.773  68.721  1.00  0.00    -0.147 A  
HETATM   15 BR   UNL     1      -7.500   8.124  69.481  1.00  0.00    -0.089 Br 
HETATM   16  N   UNL     1      -7.047  11.245  69.097  1.00  0.00    -0.116 NA 
HETATM   17  N   UNL     1      -9.115  11.727  68.238  1.00  0.00    -0.184 NA 
HETATM   18  H1  UNL     1      -6.784  12.230  69.065  1.00  0.00     0.000 HD 
HETATM   19  H2  UNL     1      -6.355  10.730  68.552  1.00  0.00     0.000 HD 
HETATM   20  C   UNL     1     -10.333  11.371  67.824  1.00  0.00    -0.182 A  
HETATM   21  N   UNL     1     -10.761  10.100  67.881  1.00  0.00    -0.250 NA 
BRANCH  20  22
HETATM   22  N   UNL     1     -11.215  12.293  67.249  1.00  0.00    -0.281 NA 
HETATM   23  H   UNL     1     -12.125  11.912  66.991  1.00  0.00     0.000 HD 
BRANCH  22  24
HETATM   24  C   UNL     1     -11.049  13.660  66.969  1.00  0.00    -0.301 A  
HETATM   25  C   UNL     1     -11.172  14.659  67.941  1.00  0.00    -0.318 A  
HETATM   26  C   UNL     1     -10.971  16.008  67.630  1.00  0.00    -0.284 A  
HETATM   27  C   UNL     1     -10.651  16.396  66.330  1.00  0.00    -0.236 A  
HETATM   28  C   UNL     1     -10.409  17.778  66.025  1.00  0.00    -0.304 C  
HETATM   29  C   UNL     1     -10.556  15.418  65.338  1.00  0.00    -0.430 A  
HETATM   30  C   UNL     1     -10.765  14.066  65.654  1.00  0.00    -0.306 A  
HETATM   31  N   UNL     1     -10.207  18.896  65.788  1.00  0.00    -0.539 NA 
ENDBRANCH  22  24
ENDBRANCH  20  22
ENDBRANCH  11  12
ENDBRANCH   9  11
TORSDOF 4
ENDMDL
MODEL      120
REMARK 921   NORMALIZED FREE ENERGY PREDICTED BY IDOCK:   -5.56 KCAL/MOL
REMARK 922        TOTAL FREE ENERGY PREDICTED BY IDOCK:   -7.51 KCAL/MOL
REMARK 923 INTER-LIGAND FREE ENERGY PREDICTED BY IDOCK:   -6.81 KCAL/MOL
REMARK 924 INTRA-LIGAND FREE ENERGY PREDICTED BY IDOCK:   -0.70 KCAL/MOL
REMARK 927      BINDING AFFINITY PREDICTED BY RF-SCORE:    0.00 PKD
ROOT
HETATM    1  C   UNL     1      -9.810  15.177  69.812  1.00  0.00    -0.119 C  
HETATM    2  C   UNL     1     -10.184  15.533  68.407  1.00  0.00    -0.215 A  
HETATM    3  C   UNL     1      -9.529  16.697  67.939  1.00  0.00    -0.225 A  
HETATM    4  C   UNL     1      -9.659  17.150  66.634  1.00  0.00    -0.279 A  
HETATM    5  C   UNL     1     -10.437  16.418  65.752  1.00  0.00    -0.369 A  
HETATM    6  C   UNL     1      -8.968  18.341  66.219  1.00  0.00    -0.181 C  
HETATM    7  N   UNL     1      -8.399  19.301  65.925  1.00  0.00    -0.440 NA 
HETATM    8  C   UNL     1     -11.124  15.261  66.186  1.00  0.00    -0.280 A  
HETATM    9  C   UNL     1     -11.051  14.823  67.545  1.00  0.00    -0.319 A  
HETATM   10  C   UNL     1     -11.910  14.510  65.136  1.00  0.00    -0.374 C  
ENDROOT
BRANCH   9  11
HETATM   11  O   UNL     1     -11.982  13.839  67.854  1.00  0.00    -0.362 OA 
BRANCH  11  12
HETATM   12  C   UNL     1     -11.721  12.512  68.197  1.00  0.00    -0.348 A  
HETATM   13  C   UNL     1     -11.935  12.124  69.507  1.00  0.00    -0.275 A  
HETATM   14  C   UNL     1     -11.686  10.789  69.787  1.00  0.00    -0.324 A  
HETATM   15 BR   UNL     1     -12.514  13.324  70.851  1.00  0.00    -0.356 Br 
HETATM   16  N   UNL     1     -11.935  10.205  71.029  1.00  0.00    -0.348 NA 
HETATM   17  N   UNL     1     -11.256   9.920  68.860  1.00  0.00    -0.136 NA 
HETATM   18  H1  UNL     1     -11.752   9.223  71.235  1.00  0.00     0.000 HD 
HETATM   19  H2  UNL     1     -12.913  10.385  71.258  1.00  0.00     0.000 HD 
HETATM   20  C   UNL     1     -11.017  10.375  67.630  1.00  0.00    -0.312 A  
HETATM   21  N   UNL     1     -11.191  11.666  67.301  1.00  0.00    -0.289 NA 
BRANCH  20  22
HETATM   22  N   UNL     1     -10.627   9.523  66.589  1.00  0.00    -0.157 NA 
HETATM   23  H   UNL     1     -11.104   9.683  65.702  1.00  0.00     0.000 HD 
BRANCH  22  24
HETATM   24  C   UNL     1      -9.684   8.481  66.572  1.00  0.00    -0.260 A  
HETATM   25  C   UNL     1      -8.352   8.663  66.187  1.00  0.00    -0.127 A  
HETATM   26  C   UNL     1      -7.434   7.607  66.209  1.00  0.00    -0.083 A  
HETATM   27  C   UNL     1      -7.832   6.332  66.609  1.00  0.00    -0.104 A  
HETATM   28  C   UNL     1      -6.878   5.260  66.665  1.00  0.00    -0.063 C  
HETATM   29  C   UNL     1      -9.166   6.121  66.964  1.00  0.00    -0.127 A  
HETATM   30  C   UNL     1     -10.083   7.183  66.933  1.00  0.00    -0.308 A  
HETATM   31  N   UNL     1      -6.100   4.401  66.715  1.00  0.00    -0.030 NA 
ENDBRANCH  22  24
ENDBRANCH  20  22
ENDBRANCH  11  12
ENDBRANCH   9  11
TORSDOF 4
ENDMDL
MODEL      121
REMARK 921   NORMALIZED FREE ENERGY PREDICTED BY IDOCK:   -5.53 KCAL/MOL
REMARK 922        TOTAL FREE ENERGY PREDICTED BY IDOCK:   -7.47 KCAL/MOL
REMARK 923 INTER-LIGAND FREE ENERGY PREDICTED BY IDOCK:   -6.90 KCAL/MOL
REMARK 924 INTRA-LIGAND FREE ENERGY PREDICTED BY IDOCK:   -0.57 KCAL/MOL
REMARK 927      BINDING AFFINITY PREDICTED BY RF-SCORE:    0.00 PKD
ROOT
HETATM    1  C   UNL     1      -9.348  12.892  67.781  1.00  0.00    -0.203 C  
HETATM    2  C   UNL     1     -10.378  13.276  68.797  1.00  0.00    -0.154 A  
HETATM    3  C   UNL     1     -11.039  12.160  69.363  1.00  0.00    -0.183 A  
HETATM    4  C   UNL     1     -11.962  12.285  70.392  1.00  0.00    -0.349 A  
HETATM    5  C   UNL     1     -12.222  13.547  70.899  1.00  0.00    -0.387 A  
HETATM    6  C   UNL     1     -12.601  11.112  70.925  1.00  0.00    -0.386 C  
HETATM    7  N   UNL     1     -13.093  10.148  71.325  1.00  0.00    -0.385 NA 
HETATM    8  C   UNL     1     -11.598  14.690  70.348  1.00  0.00    -0.326 A  
HETATM    9  C   UNL     1     -10.697  14.579  69.243  1.00  0.00    -0.226 A  
HETATM   10  C   UNL     1     -11.917  16.014  71.001  1.00  0.00    -0.407 C  
ENDROOT
BRANCH   9  11
HETATM   11  O   UNL     1     -10.386  15.804  68.666  1.00  0.00    -0.215 OA 
BRANCH  11  12
HETATM   12  C   UNL     1     -10.745  16.249  67.393  1.00  0.00    -0.287 A  
HETATM   13  C   UNL     1     -10.638  17.601  67.122  1.00  0.00    -0.276 A  
HETATM   14  C   UNL     1     -10.981  17.985  65.835  1.00  0.00     0.254 A  
HETATM   15 BR   UNL     1     -10.077  18.866  68.413  1.00  0.00    -0.451 Br 
HETATM   16  N   UNL     1     -10.847  19.290  65.360  1.00  0.00    -0.469 NA 
HETATM   17  N   UNL     1     -11.401  17.114  64.904  1.00  0.00    -0.518 NA 
HETATM   18  H1  UNL     1     -11.100  19.572  64.413  1.00  0.00     0.000 HD 
HETATM   19  H2  UNL     1      -9.877  19.568  65.510  1.00  0.00     0.000 HD 
HETATM   20  C   UNL     1     -11.535  15.834  65.252  1.00  0.00     0.024 A  
HETATM   21  N   UNL     1     -11.265  15.401  66.494  1.00  0.00    -0.228 NA 
BRANCH  20  22
HETATM   22  N   UNL     1     -11.906  14.852  64.325  1.00  0.00    -0.673 NA 
HETATM   23  H   UNL     1     -12.756  15.058  63.800  1.00  0.00     0.000 HD 
BRANCH  22  24
HETATM   24  C   UNL     1     -11.296  13.628  64.002  1.00  0.00    -0.219 A  
HETATM   25  C   UNL     1     -11.928  12.635  63.246  1.00  0.00    -0.526 A  
HETATM   26  C   UNL     1     -11.278  11.440  62.921  1.00  0.00     0.361 A  
HETATM   27  C   UNL     1      -9.975  11.201  63.357  1.00  0.00    -0.430 A  
HETATM   28  C   UNL     1      -9.300   9.988  62.990  1.00  0.00    -0.263 C  
HETATM   29  C   UNL     1      -9.338  12.164  64.142  1.00  0.00     0.308 A  
HETATM   30  C   UNL     1      -9.999  13.359  64.471  1.00  0.00    -0.080 A  
HETATM   31  N   UNL     1      -8.756   9.010  62.683  1.00  0.00    -0.208 NA 
ENDBRANCH  22  24
ENDBRANCH  20  22
ENDBRANCH  11  12
ENDBRANCH   9  11
TORSDOF 4
ENDMDL
MODEL      122
REMARK 921   NORMALIZED FREE ENERGY PREDICTED BY IDOCK:   -5.52 KCAL/MOL
REMARK 922        TOTAL FREE ENERGY PREDICTED BY IDOCK:   -7.47 KCAL/MOL
REMARK 923 INTER-LIGAND FREE ENERGY PREDICTED BY IDOCK:   -6.83 KCAL/MOL
REMARK 924 INTRA-LIGAND FREE ENERGY PREDICTED BY IDOCK:   -0.64 KCAL/MOL
REMARK 927      BINDING AFFINITY PREDICTED BY RF-SCORE:    0.00 PKD
ROOT
HETATM    1  C   UNL     1      -8.548   7.472  69.006  1.00  0.00    -0.136 C  
HETATM    2  C   UNL     1      -9.745   7.755  69.860  1.00  0.00    -0.176 A  
HETATM    3  C   UNL     1      -9.920   6.807  70.895  1.00  0.00    -0.200 A  
HETATM    4  C   UNL     1     -10.912   6.933  71.858  1.00  0.00    -0.266 A  
HETATM    5  C   UNL     1     -11.740   8.043  71.817  1.00  0.00    -0.335 A  
HETATM    6  C   UNL     1     -11.041   5.935  72.886  1.00  0.00    -0.269 C  
HETATM    7  N   UNL     1     -11.113   5.113  73.693  1.00  0.00    -0.295 NA 
HETATM    8  C   UNL     1     -11.609   9.002  70.786  1.00  0.00    -0.313 A  
HETATM    9  C   UNL     1     -10.635   8.847  69.751  1.00  0.00    -0.224 A  
HETATM   10  C   UNL     1     -12.531  10.197  70.856  1.00  0.00    -0.455 C  
ENDROOT
BRANCH   9  11
HETATM   11  O   UNL     1     -10.818   9.728  68.692  1.00  0.00    -0.222 OA 
BRANCH  11  12
HETATM   12  C   UNL     1      -9.874  10.602  68.152  1.00  0.00    -0.155 A  
HETATM   13  C   UNL     1      -9.300  10.272  66.938  1.00  0.00    -0.158 A  
HETATM   14  C   UNL     1      -8.390  11.189  66.435  1.00  0.00    -0.167 A  
HETATM   15 BR   UNL     1      -9.704   8.671  66.013  1.00  0.00    -0.149 Br 
HETATM   16  N   UNL     1      -7.785  11.064  65.184  1.00  0.00    -0.340 NA 
HETATM   17  N   UNL     1      -8.068  12.322  67.077  1.00  0.00    -0.168 NA 
HETATM   18  H1  UNL     1      -7.115  11.738  64.813  1.00  0.00     0.000 HD 
HETATM   19  H2  UNL     1      -8.531  10.970  64.494  1.00  0.00     0.000 HD 
HETATM   20  C   UNL     1      -8.618  12.549  68.271  1.00  0.00    -0.173 A  
HETATM   21  N   UNL     1      -9.472  11.682  68.839  1.00  0.00    -0.049 NA 
BRANCH  20  22
HETATM   22  N   UNL     1      -8.385  13.736  68.977  1.00  0.00    -0.344 NA 
HETATM   23  H   UNL     1      -7.793  13.634  69.802  1.00  0.00     0.000 HD 
BRANCH  22  24
HETATM   24  C   UNL     1      -8.837  15.044  68.733  1.00  0.00    -0.192 A  
HETATM   25  C   UNL     1     -10.119  15.333  68.255  1.00  0.00    -0.225 A  
HETATM   26  C   UNL     1     -10.542  16.650  68.050  1.00  0.00    -0.338 A  
HETATM   27  C   UNL     1      -9.684  17.718  68.309  1.00  0.00    -0.320 A  
HETATM   28  C   UNL     1     -10.136  19.070  68.132  1.00  0.00    -0.395 C  
HETATM   29  C   UNL     1      -8.388  17.450  68.754  1.00  0.00    -0.223 A  
HETATM   30  C   UNL     1      -7.967  16.126  68.951  1.00  0.00    -0.223 A  
HETATM   31  N   UNL     1     -10.510  20.159  67.994  1.00  0.00    -0.316 NA 
ENDBRANCH  22  24
ENDBRANCH  20  22
ENDBRANCH  11  12
ENDBRANCH   9  11
TORSDOF 4
ENDMDL
MODEL      123
REMARK 921   NORMALIZED FREE ENERGY PREDICTED BY IDOCK:   -5.50 KCAL/MOL
REMARK 922        TOTAL FREE ENERGY PREDICTED BY IDOCK:   -7.44 KCAL/MOL
REMARK 923 INTER-LIGAND FREE ENERGY PREDICTED BY IDOCK:   -7.21 KCAL/MOL
REMARK 924 INTRA-LIGAND FREE ENERGY PREDICTED BY IDOCK:   -0.22 KCAL/MOL
REMARK 927      BINDING AFFINITY PREDICTED BY RF-SCORE:    0.00 PKD
ROOT
HETATM    1  C   UNL     1     -10.989   6.657  67.154  1.00  0.00    -0.478 C  
HETATM    2  C   UNL     1     -10.229   5.372  67.268  1.00  0.00    -0.258 A  
HETATM    3  C   UNL     1     -10.058   4.719  66.024  1.00  0.00    -0.282 A  
HETATM    4  C   UNL     1      -9.303   3.562  65.889  1.00  0.00    -0.159 A  
HETATM    5  C   UNL     1      -8.673   3.047  67.011  1.00  0.00    -0.138 A  
HETATM    6  C   UNL     1      -9.167   2.945  64.598  1.00  0.00    -0.144 C  
HETATM    7  N   UNL     1      -9.083   2.478  63.546  1.00  0.00    -0.092 NA 
HETATM    8  C   UNL     1      -8.836   3.659  68.275  1.00  0.00    -0.151 A  
HETATM    9  C   UNL     1      -9.666   4.812  68.437  1.00  0.00    -0.146 A  
HETATM   10  C   UNL     1      -8.072   3.045  69.425  1.00  0.00    -0.062 C  
ENDROOT
BRANCH   9  11
HETATM   11  O   UNL     1      -9.921   5.119  69.768  1.00  0.00    -0.199 OA 
BRANCH  11  12
HETATM   12  C   UNL     1      -9.985   6.391  70.340  1.00  0.00    -0.183 A  
HETATM   13  C   UNL     1      -8.927   6.804  71.129  1.00  0.00    -0.147 A  
HETATM   14  C   UNL     1      -9.030   8.085  71.648  1.00  0.00    -0.150 A  
HETATM   15 BR   UNL     1      -7.434   5.703  71.502  1.00  0.00    -0.098 Br 
HETATM   16  N   UNL     1      -8.018   8.698  72.388  1.00  0.00    -0.361 NA 
HETATM   17  N   UNL     1     -10.085   8.881  71.418  1.00  0.00    -0.280 NA 
HETATM   18  H1  UNL     1      -8.094   9.640  72.771  1.00  0.00     0.000 HD 
HETATM   19  H2  UNL     1      -7.169   8.668  71.823  1.00  0.00     0.000 HD 
HETATM   20  C   UNL     1     -11.095   8.397  70.694  1.00  0.00    -0.256 A  
HETATM   21  N   UNL     1     -11.083   7.149  70.199  1.00  0.00    -0.270 NA 
BRANCH  20  22
HETATM   22  N   UNL     1     -12.204   9.182  70.354  1.00  0.00    -0.458 NA 
HETATM   23  H   UNL     1     -12.900   8.713  69.775  1.00  0.00     0.000 HD 
BRANCH  22  24
HETATM   24  C   UNL     1     -12.511  10.514  70.684  1.00  0.00    -0.366 A  
HETATM   25  C   UNL     1     -12.097  11.606  69.914  1.00  0.00    -0.373 A  
HETATM   26  C   UNL     1     -12.446  12.916  70.258  1.00  0.00    -0.198 A  
HETATM   27  C   UNL     1     -13.213  13.169  71.395  1.00  0.00    -0.290 A  
HETATM   28  C   UNL     1     -13.599  14.512  71.724  1.00  0.00    -0.391 C  
HETATM   29  C   UNL     1     -13.607  12.095  72.197  1.00  0.00    -0.285 A  
HETATM   30  C   UNL     1     -13.248  10.783  71.849  1.00  0.00    -0.524 A  
HETATM   31  N   UNL     1     -13.914  15.599  71.979  1.00  0.00    -0.470 NA 
ENDBRANCH  22  24
ENDBRANCH  20  22
ENDBRANCH  11  12
ENDBRANCH   9  11
TORSDOF 4
ENDMDL
MODEL      124
REMARK 921   NORMALIZED FREE ENERGY PREDICTED BY IDOCK:   -5.49 KCAL/MOL
REMARK 922        TOTAL FREE ENERGY PREDICTED BY IDOCK:   -7.43 KCAL/MOL
REMARK 923 INTER-LIGAND FREE ENERGY PREDICTED BY IDOCK:   -7.12 KCAL/MOL
REMARK 924 INTRA-LIGAND FREE ENERGY PREDICTED BY IDOCK:   -0.31 KCAL/MOL
REMARK 927      BINDING AFFINITY PREDICTED BY RF-SCORE:    0.00 PKD
ROOT
HETATM    1  C   UNL     1     -10.033   9.387  66.555  1.00  0.00    -0.339 C  
HETATM    2  C   UNL     1      -9.799   8.176  67.403  1.00  0.00    -0.242 A  
HETATM    3  C   UNL     1      -9.949   6.964  66.688  1.00  0.00    -0.211 A  
HETATM    4  C   UNL     1      -9.686   5.726  67.259  1.00  0.00    -0.140 A  
HETATM    5  C   UNL     1      -9.233   5.682  68.567  1.00  0.00    -0.131 A  
HETATM    6  C   UNL     1      -9.858   4.529  66.480  1.00  0.00    -0.227 C  
HETATM    7  N   UNL     1     -10.009   3.592  65.824  1.00  0.00    -0.032 NA 
HETATM    8  C   UNL     1      -9.090   6.869  69.322  1.00  0.00    -0.140 A  
HETATM    9  C   UNL     1      -9.423   8.144  68.765  1.00  0.00    -0.148 A  
HETATM   10  C   UNL     1      -8.549   6.717  70.724  1.00  0.00    -0.135 C  
ENDROOT
BRANCH   9  11
HETATM   11  O   UNL     1      -9.474   9.158  69.713  1.00  0.00    -0.165 OA 
BRANCH  11  12
HETATM   12  C   UNL     1     -10.464  10.133  69.849  1.00  0.00    -0.275 A  
HETATM   13  C   UNL     1     -11.408   9.968  70.846  1.00  0.00    -0.361 A  
HETATM   14  C   UNL     1     -12.351  10.978  70.954  1.00  0.00    -0.402 A  
HETATM   15 BR   UNL     1     -11.441   8.460  71.989  1.00  0.00    -0.447 Br 
HETATM   16  N   UNL     1     -13.319  11.023  71.958  1.00  0.00    -0.531 NA 
HETATM   17  N   UNL     1     -12.365  12.049  70.145  1.00  0.00    -0.204 NA 
HETATM   18  H1  UNL     1     -14.013  11.766  72.037  1.00  0.00     0.000 HD 
HETATM   19  H2  UNL     1     -12.831  10.968  72.852  1.00  0.00     0.000 HD 
HETATM   20  C   UNL     1     -11.459  12.116  69.169  1.00  0.00    -0.296 A  
HETATM   21  N   UNL     1     -10.546  11.150  68.978  1.00  0.00    -0.215 NA 
BRANCH  20  22
HETATM   22  N   UNL     1     -11.365  13.227  68.323  1.00  0.00    -0.280 NA 
HETATM   23  H   UNL     1     -11.945  13.178  67.485  1.00  0.00     0.000 HD 
BRANCH  22  24
HETATM   24  C   UNL     1     -10.600  14.400  68.442  1.00  0.00    -0.247 A  
HETATM   25  C   UNL     1      -9.214  14.392  68.627  1.00  0.00    -0.181 A  
HETATM   26  C   UNL     1      -8.482  15.581  68.713  1.00  0.00    -0.190 A  
HETATM   27  C   UNL     1      -9.124  16.816  68.628  1.00  0.00    -0.254 A  
HETATM   28  C   UNL     1      -8.363  18.032  68.680  1.00  0.00    -0.272 C  
HETATM   29  C   UNL     1     -10.512  16.846  68.478  1.00  0.00    -0.361 A  
HETATM   30  C   UNL     1     -11.242  15.650  68.398  1.00  0.00    -0.352 A  
HETATM   31  N   UNL     1      -7.742  19.012  68.716  1.00  0.00    -0.348 NA 
ENDBRANCH  22  24
ENDBRANCH  20  22
ENDBRANCH  11  12
ENDBRANCH   9  11
TORSDOF 4
ENDMDL
MODEL      125
REMARK 921   NORMALIZED FREE ENERGY PREDICTED BY IDOCK:   -5.49 KCAL/MOL
REMARK 922        TOTAL FREE ENERGY PREDICTED BY IDOCK:   -7.43 KCAL/MOL
REMARK 923 INTER-LIGAND FREE ENERGY PREDICTED BY IDOCK:   -7.36 KCAL/MOL
REMARK 924 INTRA-LIGAND FREE ENERGY PREDICTED BY IDOCK:   -0.07 KCAL/MOL
REMARK 927      BINDING AFFINITY PREDICTED BY RF-SCORE:    0.00 PKD
ROOT
HETATM    1  C   UNL     1     -11.648   7.116  70.436  1.00  0.00    -0.300 C  
HETATM    2  C   UNL     1     -10.790   5.904  70.253  1.00  0.00    -0.391 A  
HETATM    3  C   UNL     1     -10.397   5.315  71.479  1.00  0.00    -0.287 A  
HETATM    4  C   UNL     1      -9.677   4.130  71.538  1.00  0.00    -0.243 A  
HETATM    5  C   UNL     1      -9.359   3.488  70.352  1.00  0.00    -0.239 A  
HETATM    6  C   UNL     1      -9.306   3.582  72.815  1.00  0.00    -0.108 C  
HETATM    7  N   UNL     1      -9.026   3.175  73.857  1.00  0.00    -0.079 NA 
HETATM    8  C   UNL     1      -9.716   4.054  69.107  1.00  0.00    -0.177 A  
HETATM    9  C   UNL     1     -10.398   5.308  69.033  1.00  0.00    -0.176 A  
HETATM   10  C   UNL     1      -9.360   3.254  67.875  1.00  0.00    -0.246 C  
ENDROOT
BRANCH   9  11
HETATM   11  O   UNL     1     -10.435   5.836  67.748  1.00  0.00    -0.196 OA 
BRANCH  11  12
HETATM   12  C   UNL     1      -9.984   7.093  67.342  1.00  0.00    -0.172 A  
HETATM   13  C   UNL     1      -8.690   7.198  66.865  1.00  0.00    -0.126 A  
HETATM   14  C   UNL     1      -8.304   8.463  66.450  1.00  0.00    -0.116 A  
HETATM   15 BR   UNL     1      -7.501   5.728  66.791  1.00  0.00    -0.085 Br 
HETATM   16  N   UNL     1      -7.070   8.734  65.858  1.00  0.00    -0.082 NA 
HETATM   17  N   UNL     1      -9.118   9.528  66.509  1.00  0.00    -0.146 NA 
HETATM   18  H1  UNL     1      -6.785   9.665  65.553  1.00  0.00     0.000 HD 
HETATM   19  H2  UNL     1      -6.975   8.111  65.056  1.00  0.00     0.000 HD 
HETATM   20  C   UNL     1     -10.334   9.365  67.032  1.00  0.00    -0.252 A  
HETATM   21  N   UNL     1     -10.756   8.179  67.497  1.00  0.00    -0.213 NA 
BRANCH  20  22
HETATM   22  N   UNL     1     -11.266  10.410  67.073  1.00  0.00    -0.200 NA 
HETATM   23  H   UNL     1     -12.061  10.250  67.691  1.00  0.00     0.000 HD 
BRANCH  22  24
HETATM   24  C   UNL     1     -11.281  11.642  66.398  1.00  0.00    -0.287 A  
HETATM   25  C   UNL     1     -10.956  11.776  65.044  1.00  0.00    -0.357 A  
HETATM   26  C   UNL     1     -11.010  13.017  64.400  1.00  0.00    -0.400 A  
HETATM   27  C   UNL     1     -11.382  14.163  65.100  1.00  0.00    -0.336 A  
HETATM   28  C   UNL     1     -11.471  15.427  64.425  1.00  0.00    -0.255 C  
HETATM   29  C   UNL     1     -11.678  14.057  66.461  1.00  0.00    -0.412 A  
HETATM   30  C   UNL     1     -11.616  12.811  67.104  1.00  0.00    -0.426 A  
HETATM   31  N   UNL     1     -11.549  16.444  63.871  1.00  0.00    -1.054 NA 
ENDBRANCH  22  24
ENDBRANCH  20  22
ENDBRANCH  11  12
ENDBRANCH   9  11
TORSDOF 4
ENDMDL
MODEL      126
REMARK 921   NORMALIZED FREE ENERGY PREDICTED BY IDOCK:   -5.49 KCAL/MOL
REMARK 922        TOTAL FREE ENERGY PREDICTED BY IDOCK:   -7.42 KCAL/MOL
REMARK 923 INTER-LIGAND FREE ENERGY PREDICTED BY IDOCK:   -6.84 KCAL/MOL
REMARK 924 INTRA-LIGAND FREE ENERGY PREDICTED BY IDOCK:   -0.58 KCAL/MOL
REMARK 927      BINDING AFFINITY PREDICTED BY RF-SCORE:    0.00 PKD
ROOT
HETATM    1  C   UNL     1     -11.153  14.907  69.593  1.00  0.00    -0.298 C  
HETATM    2  C   UNL     1     -10.308  15.877  68.827  1.00  0.00    -0.228 A  
HETATM    3  C   UNL     1     -10.552  17.224  69.188  1.00  0.00    -0.209 A  
HETATM    4  C   UNL     1      -9.812  18.278  68.669  1.00  0.00    -0.400 A  
HETATM    5  C   UNL     1      -8.781  17.994  67.788  1.00  0.00    -0.251 A  
HETATM    6  C   UNL     1     -10.108  19.626  69.073  1.00  0.00    -0.357 C  
HETATM    7  N   UNL     1     -10.376  20.693  69.421  1.00  0.00     0.306 NA 
HETATM    8  C   UNL     1      -8.519  16.663  67.388  1.00  0.00    -0.204 A  
HETATM    9  C   UNL     1      -9.319  15.577  67.864  1.00  0.00    -0.192 A  
HETATM   10  C   UNL     1      -7.346  16.456  66.459  1.00  0.00    -0.176 C  
ENDROOT
BRANCH   9  11
HETATM   11  O   UNL     1      -9.095  14.391  67.176  1.00  0.00    -0.206 OA 
BRANCH  11  12
HETATM   12  C   UNL     1     -10.029  13.391  66.899  1.00  0.00    -0.252 A  
HETATM   13  C   UNL     1     -11.005  13.656  65.956  1.00  0.00    -0.286 A  
HETATM   14  C   UNL     1     -11.889  12.619  65.700  1.00  0.00    -0.437 A  
HETATM   15 BR   UNL     1     -11.154  15.322  65.072  1.00  0.00    -0.426 Br 
HETATM   16  N   UNL     1     -12.877  12.676  64.716  1.00  0.00    -0.830 NA 
HETATM   17  N   UNL     1     -11.821  11.434  66.325  1.00  0.00    -0.129 NA 
HETATM   18  H1  UNL     1     -13.528  11.914  64.528  1.00  0.00     0.000 HD 
HETATM   19  H2  UNL     1     -12.415  12.904  63.836  1.00  0.00     0.000 HD 
HETATM   20  C   UNL     1     -10.888  11.268  67.264  1.00  0.00    -0.267 A  
HETATM   21  N   UNL     1     -10.030  12.245  67.596  1.00  0.00    -0.195 NA 
BRANCH  20  22
HETATM   22  N   UNL     1     -10.709  10.043  67.919  1.00  0.00    -0.255 NA 
HETATM   23  H   UNL     1     -10.967  10.042  68.905  1.00  0.00     0.000 HD 
BRANCH  22  24
HETATM   24  C   UNL     1     -10.231   8.813  67.434  1.00  0.00    -0.252 A  
HETATM   25  C   UNL     1     -10.785   7.582  67.797  1.00  0.00    -0.233 A  
HETATM   26  C   UNL     1     -10.299   6.379  67.271  1.00  0.00    -0.274 A  
HETATM   27  C   UNL     1      -9.234   6.379  66.372  1.00  0.00    -0.176 A  
HETATM   28  C   UNL     1      -8.764   5.145  65.807  1.00  0.00    -0.139 C  
HETATM   29  C   UNL     1      -8.645   7.595  66.022  1.00  0.00    -0.165 A  
HETATM   30  C   UNL     1      -9.132   8.798  66.558  1.00  0.00    -0.203 A  
HETATM   31  N   UNL     1      -8.395   4.145  65.348  1.00  0.00    -0.108 NA 
ENDBRANCH  22  24
ENDBRANCH  20  22
ENDBRANCH  11  12
ENDBRANCH   9  11
TORSDOF 4
ENDMDL
MODEL      127
REMARK 921   NORMALIZED FREE ENERGY PREDICTED BY IDOCK:   -5.44 KCAL/MOL
REMARK 922        TOTAL FREE ENERGY PREDICTED BY IDOCK:   -7.37 KCAL/MOL
REMARK 923 INTER-LIGAND FREE ENERGY PREDICTED BY IDOCK:   -7.13 KCAL/MOL
REMARK 924 INTRA-LIGAND FREE ENERGY PREDICTED BY IDOCK:   -0.23 KCAL/MOL
REMARK 927      BINDING AFFINITY PREDICTED BY RF-SCORE:    0.00 PKD
ROOT
HETATM    1  C   UNL     1      -9.779   6.807  66.785  1.00  0.00    -0.222 C  
HETATM    2  C   UNL     1      -9.284   6.236  68.078  1.00  0.00    -0.116 A  
HETATM    3  C   UNL     1      -9.365   4.824  68.124  1.00  0.00    -0.172 A  
HETATM    4  C   UNL     1      -8.873   4.086  69.191  1.00  0.00    -0.147 A  
HETATM    5  C   UNL     1      -8.256   4.758  70.234  1.00  0.00    -0.079 A  
HETATM    6  C   UNL     1      -8.985   2.652  69.180  1.00  0.00    -0.113 C  
HETATM    7  N   UNL     1      -9.095   1.504  69.135  1.00  0.00    -0.092 NA 
HETATM    8  C   UNL     1      -8.174   6.169  70.235  1.00  0.00    -0.124 A  
HETATM    9  C   UNL     1      -8.737   6.943  69.173  1.00  0.00    -0.135 A  
HETATM   10  C   UNL     1      -7.444   6.802  71.397  1.00  0.00    -0.087 C  
ENDROOT
BRANCH   9  11
HETATM   11  O   UNL     1      -8.800   8.301  69.459  1.00  0.00    -0.146 OA 
BRANCH  11  12
HETATM   12  C   UNL     1      -9.936   9.111  69.451  1.00  0.00    -0.191 A  
HETATM   13  C   UNL     1     -10.710   9.159  70.596  1.00  0.00    -0.254 A  
HETATM   14  C   UNL     1     -11.811   9.999  70.543  1.00  0.00    -0.303 A  
HETATM   15 BR   UNL     1     -10.320   8.139  72.142  1.00  0.00    -0.372 Br 
HETATM   16  N   UNL     1     -12.648  10.241  71.633  1.00  0.00    -0.421 NA 
HETATM   17  N   UNL     1     -12.125  10.719  69.455  1.00  0.00    -0.289 NA 
HETATM   18  H1  UNL     1     -13.458  10.859  71.594  1.00  0.00     0.000 HD 
HETATM   19  H2  UNL     1     -12.059  10.562  72.402  1.00  0.00     0.000 HD 
HETATM   20  C   UNL     1     -11.366  10.581  68.367  1.00  0.00    -0.262 A  
HETATM   21  N   UNL     1     -10.312   9.750  68.333  1.00  0.00    -0.192 NA 
BRANCH  20  22
HETATM   22  N   UNL     1     -11.586  11.342  67.211  1.00  0.00    -0.560 NA 
HETATM   23  H   UNL     1     -12.071  10.851  66.461  1.00  0.00     0.000 HD 
BRANCH  22  24
HETATM   24  C   UNL     1     -11.247  12.674  66.921  1.00  0.00    -0.300 A  
HETATM   25  C   UNL     1     -11.757  13.765  67.632  1.00  0.00    -0.402 A  
HETATM   26  C   UNL     1     -11.374  15.077  67.331  1.00  0.00    -0.338 A  
HETATM   27  C   UNL     1     -10.473  15.332  66.298  1.00  0.00    -0.313 A  
HETATM   28  C   UNL     1     -10.055  16.677  66.018  1.00  0.00    -0.340 C  
HETATM   29  C   UNL     1      -9.977  14.260  65.554  1.00  0.00    -0.341 A  
HETATM   30  C   UNL     1     -10.371  12.947  65.856  1.00  0.00    -0.297 A  
HETATM   31  N   UNL     1      -9.715  17.765  65.803  1.00  0.00    -0.524 NA 
ENDBRANCH  22  24
ENDBRANCH  20  22
ENDBRANCH  11  12
ENDBRANCH   9  11
TORSDOF 4
ENDMDL
MODEL      128
REMARK 921   NORMALIZED FREE ENERGY PREDICTED BY IDOCK:   -5.39 KCAL/MOL
REMARK 922        TOTAL FREE ENERGY PREDICTED BY IDOCK:   -7.31 KCAL/MOL
REMARK 923 INTER-LIGAND FREE ENERGY PREDICTED BY IDOCK:   -6.75 KCAL/MOL
REMARK 924 INTRA-LIGAND FREE ENERGY PREDICTED BY IDOCK:   -0.56 KCAL/MOL
REMARK 927      BINDING AFFINITY PREDICTED BY RF-SCORE:    0.00 PKD
ROOT
HETATM    1  C   UNL     1      -8.630   9.757  68.464  1.00  0.00    -0.120 C  
HETATM    2  C   UNL     1      -9.343  10.462  67.351  1.00  0.00    -0.162 A  
HETATM    3  C   UNL     1      -8.787  10.190  66.079  1.00  0.00    -0.160 A  
HETATM    4  C   UNL     1      -9.351  10.666  64.903  1.00  0.00    -0.271 A  
HETATM    5  C   UNL     1     -10.517  11.410  64.982  1.00  0.00    -0.361 A  
HETATM    6  C   UNL     1      -8.738  10.355  63.640  1.00  0.00    -0.198 C  
HETATM    7  N   UNL     1      -8.216  10.086  62.647  1.00  0.00    -0.134 NA 
HETATM    8  C   UNL     1     -11.093  11.720  66.235  1.00  0.00    -0.364 A  
HETATM    9  C   UNL     1     -10.483  11.292  67.455  1.00  0.00    -0.201 A  
HETATM   10  C   UNL     1     -12.387  12.500  66.209  1.00  0.00     0.062 C  
ENDROOT
BRANCH   9  11
HETATM   11  O   UNL     1     -11.026  11.899  68.581  1.00  0.00    -0.204 OA 
BRANCH  11  12
HETATM   12  C   UNL     1     -11.627  11.266  69.670  1.00  0.00    -0.330 A  
HETATM   13  C   UNL     1     -12.333  12.046  70.567  1.00  0.00    -0.282 A  
HETATM   14  C   UNL     1     -12.934  11.364  71.614  1.00  0.00    -0.418 A  
HETATM   15 BR   UNL     1     -12.472  13.927  70.406  1.00  0.00    -0.377 Br 
HETATM   16  N   UNL     1     -13.758  11.976  72.558  1.00  0.00    -0.391 NA 
HETATM   17  N   UNL     1     -12.837  10.034  71.766  1.00  0.00    -0.420 NA 
HETATM   18  H1  UNL     1     -14.200  11.474  73.329  1.00  0.00     0.000 HD 
HETATM   19  H2  UNL     1     -14.499  12.457  72.048  1.00  0.00     0.000 HD 
HETATM   20  C   UNL     1     -12.093   9.352  70.894  1.00  0.00    -0.255 A  
HETATM   21  N   UNL     1     -11.446   9.955  69.884  1.00  0.00    -0.215 NA 
BRANCH  20  22
HETATM   22  N   UNL     1     -11.991   7.956  70.943  1.00  0.00    -0.431 NA 
HETATM   23  H   UNL     1     -12.516   7.514  71.698  1.00  0.00     0.000 HD 
BRANCH  22  24
HETATM   24  C   UNL     1     -11.282   7.065  70.120  1.00  0.00    -0.284 A  
HETATM   25  C   UNL     1     -10.453   6.057  70.621  1.00  0.00    -0.305 A  
HETATM   26  C   UNL     1      -9.784   5.171  69.769  1.00  0.00    -0.263 A  
HETATM   27  C   UNL     1      -9.920   5.280  68.386  1.00  0.00    -0.220 A  
HETATM   28  C   UNL     1      -9.260   4.345  67.518  1.00  0.00    -0.143 C  
HETATM   29  C   UNL     1     -10.716   6.301  67.864  1.00  0.00    -0.380 A  
HETATM   30  C   UNL     1     -11.379   7.191  68.723  1.00  0.00     0.187 A  
HETATM   31  N   UNL     1      -8.731   3.581  66.823  1.00  0.00    -0.113 NA 
ENDBRANCH  22  24
ENDBRANCH  20  22
ENDBRANCH  11  12
ENDBRANCH   9  11
TORSDOF 4
ENDMDL
MODEL      129
REMARK 921   NORMALIZED FREE ENERGY PREDICTED BY IDOCK:   -5.37 KCAL/MOL
REMARK 922        TOTAL FREE ENERGY PREDICTED BY IDOCK:   -7.28 KCAL/MOL
REMARK 923 INTER-LIGAND FREE ENERGY PREDICTED BY IDOCK:   -6.43 KCAL/MOL
REMARK 924 INTRA-LIGAND FREE ENERGY PREDICTED BY IDOCK:   -0.85 KCAL/MOL
REMARK 927      BINDING AFFINITY PREDICTED BY RF-SCORE:    0.00 PKD
ROOT
HETATM    1  C   UNL     1      -7.488  10.375  69.402  1.00  0.00    -0.135 C  
HETATM    2  C   UNL     1      -8.575   9.351  69.301  1.00  0.00    -0.143 A  
HETATM    3  C   UNL     1      -9.302   9.196  70.506  1.00  0.00    -0.287 A  
HETATM    4  C   UNL     1     -10.412   8.368  70.604  1.00  0.00    -0.227 A  
HETATM    5  C   UNL     1     -10.837   7.693  69.472  1.00  0.00    -0.171 A  
HETATM    6  C   UNL     1     -11.108   8.253  71.857  1.00  0.00    -0.292 C  
HETATM    7  N   UNL     1     -11.639   8.185  72.879  1.00  0.00    -0.308 NA 
HETATM    8  C   UNL     1     -10.127   7.805  68.255  1.00  0.00    -0.221 A  
HETATM    9  C   UNL     1      -8.943   8.602  68.160  1.00  0.00    -0.141 A  
HETATM   10  C   UNL     1     -10.697   7.062  67.069  1.00  0.00    -0.423 C  
ENDROOT
BRANCH   9  11
HETATM   11  O   UNL     1      -8.235   8.392  66.983  1.00  0.00    -0.106 OA 
BRANCH  11  12
HETATM   12  C   UNL     1      -8.289   9.162  65.821  1.00  0.00    -0.126 A  
HETATM   13  C   UNL     1      -7.568   8.733  64.721  1.00  0.00    -0.107 A  
HETATM   14  C   UNL     1      -7.680   9.520  63.585  1.00  0.00    -0.125 A  
HETATM   15 BR   UNL     1      -6.480   7.185  64.748  1.00  0.00    -0.037 Br 
HETATM   16  N   UNL     1      -7.097   9.190  62.361  1.00  0.00    -0.098 NA 
HETATM   17  N   UNL     1      -8.427  10.633  63.542  1.00  0.00    -0.132 NA 
HETATM   18  H1  UNL     1      -7.179   9.768  61.525  1.00  0.00     0.000 HD 
HETATM   19  H2  UNL     1      -7.420   8.254  62.114  1.00  0.00     0.000 HD 
HETATM   20  C   UNL     1      -9.052  11.018  64.656  1.00  0.00    -0.122 A  
HETATM   21  N   UNL     1      -8.949  10.330  65.804  1.00  0.00    -0.155 NA 
BRANCH  20  22
HETATM   22  N   UNL     1      -9.901  12.131  64.680  1.00  0.00    -0.441 NA 
HETATM   23  H   UNL     1     -10.245  12.427  63.766  1.00  0.00     0.000 HD 
BRANCH  22  24
HETATM   24  C   UNL     1     -10.355  12.906  65.760  1.00  0.00    -0.284 A  
HETATM   25  C   UNL     1     -11.704  13.215  65.965  1.00  0.00    -0.424 A  
HETATM   26  C   UNL     1     -12.122  13.966  67.069  1.00  0.00    -0.451 A  
HETATM   27  C   UNL     1     -11.194  14.440  67.995  1.00  0.00    -0.298 A  
HETATM   28  C   UNL     1     -11.632  15.179  69.146  1.00  0.00    -0.323 C  
HETATM   29  C   UNL     1      -9.839  14.171  67.791  1.00  0.00    -0.231 A  
HETATM   30  C   UNL     1      -9.425  13.423  66.678  1.00  0.00    -0.264 A  
HETATM   31  N   UNL     1     -11.994  15.768  70.077  1.00  0.00    -0.354 NA 
ENDBRANCH  22  24
ENDBRANCH  20  22
ENDBRANCH  11  12
ENDBRANCH   9  11
TORSDOF 4
ENDMDL
MODEL      130
REMARK 921   NORMALIZED FREE ENERGY PREDICTED BY IDOCK:   -5.31 KCAL/MOL
REMARK 922        TOTAL FREE ENERGY PREDICTED BY IDOCK:   -7.21 KCAL/MOL
REMARK 923 INTER-LIGAND FREE ENERGY PREDICTED BY IDOCK:   -6.72 KCAL/MOL
REMARK 924 INTRA-LIGAND FREE ENERGY PREDICTED BY IDOCK:   -0.49 KCAL/MOL
REMARK 927      BINDING AFFINITY PREDICTED BY RF-SCORE:    0.00 PKD
ROOT
HETATM    1  C   UNL     1      -9.165   9.560  63.447  1.00  0.00    -0.030 C  
HETATM    2  C   UNL     1      -8.520   9.226  64.756  1.00  0.00    -0.189 A  
HETATM    3  C   UNL     1      -8.200   7.853  64.880  1.00  0.00    -0.128 A  
HETATM    4  C   UNL     1      -7.513   7.345  65.974  1.00  0.00    -0.083 A  
HETATM    5  C   UNL     1      -7.102   8.223  66.964  1.00  0.00    -0.079 A  
HETATM    6  C   UNL     1      -7.218   5.939  66.042  1.00  0.00    -0.075 C  
HETATM    7  N   UNL     1      -7.002   4.806  66.062  1.00  0.00    -0.065 NA 
HETATM    8  C   UNL     1      -7.419   9.598  66.887  1.00  0.00    -0.091 A  
HETATM    9  C   UNL     1      -8.185  10.120  65.799  1.00  0.00    -0.144 A  
HETATM   10  C   UNL     1      -6.888  10.476  67.996  1.00  0.00    -0.073 C  
ENDROOT
BRANCH   9  11
HETATM   11  O   UNL     1      -8.624  11.421  66.013  1.00  0.00    -0.169 OA 
BRANCH  11  12
HETATM   12  C   UNL     1      -9.883  11.820  66.464  1.00  0.00    -0.206 A  
HETATM   13  C   UNL     1     -10.767  12.351  65.542  1.00  0.00    -0.280 A  
HETATM   14  C   UNL     1     -12.012  12.703  66.038  1.00  0.00    -0.417 A  
HETATM   15 BR   UNL     1     -10.321  12.603  63.721  1.00  0.00    -0.232 Br 
HETATM   16  N   UNL     1     -13.056  13.167  65.236  1.00  0.00    -0.661 NA 
HETATM   17  N   UNL     1     -12.351  12.555  67.328  1.00  0.00    -0.232 NA 
HETATM   18  H1  UNL     1     -13.972  13.427  65.600  1.00  0.00     0.000 HD 
HETATM   19  H2  UNL     1     -13.208  12.473  64.504  1.00  0.00     0.000 HD 
HETATM   20  C   UNL     1     -11.430  12.089  68.172  1.00  0.00    -0.322 A  
HETATM   21  N   UNL     1     -10.189  11.771  67.769  1.00  0.00    -0.188 NA 
BRANCH  20  22
HETATM   22  N   UNL     1     -11.720  11.845  69.520  1.00  0.00    -0.322 NA 
HETATM   23  H   UNL     1     -12.116  12.638  70.024  1.00  0.00     0.000 HD 
BRANCH  22  24
HETATM   24  C   UNL     1     -11.553  10.682  70.291  1.00  0.00    -0.336 A  
HETATM   25  C   UNL     1     -12.431  10.312  71.315  1.00  0.00    -0.514 A  
HETATM   26  C   UNL     1     -12.248   9.131  72.043  1.00  0.00    -0.443 A  
HETATM   27  C   UNL     1     -11.169   8.291  71.769  1.00  0.00    -0.346 A  
HETATM   28  C   UNL     1     -11.006   7.062  72.494  1.00  0.00    -0.264 C  
HETATM   29  C   UNL     1     -10.262   8.659  70.773  1.00  0.00    -0.250 A  
HETATM   30  C   UNL     1     -10.447   9.848  70.052  1.00  0.00    -0.331 A  
HETATM   31  N   UNL     1     -10.885   6.066  73.078  1.00  0.00    -0.249 NA 
ENDBRANCH  22  24
ENDBRANCH  20  22
ENDBRANCH  11  12
ENDBRANCH   9  11
TORSDOF 4
ENDMDL
MODEL      131
REMARK 921   NORMALIZED FREE ENERGY PREDICTED BY IDOCK:   -5.27 KCAL/MOL
REMARK 922        TOTAL FREE ENERGY PREDICTED BY IDOCK:   -7.16 KCAL/MOL
REMARK 923 INTER-LIGAND FREE ENERGY PREDICTED BY IDOCK:   -6.54 KCAL/MOL
REMARK 924 INTRA-LIGAND FREE ENERGY PREDICTED BY IDOCK:   -0.63 KCAL/MOL
REMARK 927      BINDING AFFINITY PREDICTED BY RF-SCORE:    0.00 PKD
ROOT
HETATM    1  C   UNL     1      -9.155  15.752  69.864  1.00  0.00     0.194 C  
HETATM    2  C   UNL     1      -9.247  16.629  68.654  1.00  0.00    -0.248 A  
HETATM    3  C   UNL     1      -8.361  17.731  68.702  1.00  0.00    -0.274 A  
HETATM    4  C   UNL     1      -8.217  18.617  67.643  1.00  0.00    -0.274 A  
HETATM    5  C   UNL     1      -8.948  18.393  66.488  1.00  0.00    -0.294 A  
HETATM    6  C   UNL     1      -7.299  19.719  67.753  1.00  0.00    -0.279 C  
HETATM    7  N   UNL     1      -6.555  20.591  67.880  1.00  0.00    -0.290 NA 
HETATM    8  C   UNL     1      -9.859  17.315  66.408  1.00  0.00    -0.310 A  
HETATM    9  C   UNL     1     -10.065  16.437  67.517  1.00  0.00    -0.261 A  
HETATM   10  C   UNL     1     -10.575  17.133  65.090  1.00  0.00     0.031 C  
ENDROOT
BRANCH   9  11
HETATM   11  O   UNL     1     -11.169  15.608  67.361  1.00  0.00    -0.306 OA 
BRANCH  11  12
HETATM   12  C   UNL     1     -11.162  14.243  67.074  1.00  0.00    -0.323 A  
HETATM   13  C   UNL     1     -11.698  13.378  68.010  1.00  0.00    -0.356 A  
HETATM   14  C   UNL     1     -11.690  12.036  67.662  1.00  0.00    -0.294 A  
HETATM   15 BR   UNL     1     -12.388  13.963  69.672  1.00  0.00    -0.211 Br 
HETATM   16  N   UNL     1     -12.271  11.035  68.443  1.00  0.00    -0.780 NA 
HETATM   17  N   UNL     1     -11.190  11.588  66.500  1.00  0.00    -0.309 NA 
HETATM   18  H1  UNL     1     -12.265  10.048  68.187  1.00  0.00     0.000 HD 
HETATM   19  H2  UNL     1     -13.243  11.301  68.601  1.00  0.00     0.000 HD 
HETATM   20  C   UNL     1     -10.638  12.473  65.668  1.00  0.00    -0.269 A  
HETATM   21  N   UNL     1     -10.569  13.781  65.963  1.00  0.00    -0.286 NA 
BRANCH  20  22
HETATM   22  N   UNL     1     -10.150  12.099  64.410  1.00  0.00    -0.389 NA 
HETATM   23  H   UNL     1     -10.579  12.584  63.622  1.00  0.00     0.000 HD 
BRANCH  22  24
HETATM   24  C   UNL     1      -9.165  11.161  64.058  1.00  0.00    -0.106 A  
HETATM   25  C   UNL     1      -8.618  10.250  64.968  1.00  0.00    -0.190 A  
HETATM   26  C   UNL     1      -7.658   9.312  64.574  1.00  0.00    -0.107 A  
HETATM   27  C   UNL     1      -7.210   9.268  63.254  1.00  0.00    -0.092 A  
HETATM   28  C   UNL     1      -6.252   8.279  62.847  1.00  0.00    -0.086 C  
HETATM   29  C   UNL     1      -7.718  10.191  62.337  1.00  0.00    -0.152 A  
HETATM   30  C   UNL     1      -8.676  11.135  62.741  1.00  0.00    -0.228 A  
HETATM   31  N   UNL     1      -5.483   7.473  62.522  1.00  0.00    -0.046 NA 
ENDBRANCH  22  24
ENDBRANCH  20  22
ENDBRANCH  11  12
ENDBRANCH   9  11
TORSDOF 4
ENDMDL
MODEL      132
REMARK 921   NORMALIZED FREE ENERGY PREDICTED BY IDOCK:   -5.26 KCAL/MOL
REMARK 922        TOTAL FREE ENERGY PREDICTED BY IDOCK:   -7.14 KCAL/MOL
REMARK 923 INTER-LIGAND FREE ENERGY PREDICTED BY IDOCK:   -6.42 KCAL/MOL
REMARK 924 INTRA-LIGAND FREE ENERGY PREDICTED BY IDOCK:   -0.72 KCAL/MOL
REMARK 927      BINDING AFFINITY PREDICTED BY RF-SCORE:    0.00 PKD
ROOT
HETATM    1  C   UNL     1     -10.905  16.433  69.537  1.00  0.00    -0.338 C  
HETATM    2  C   UNL     1      -9.953  17.221  68.691  1.00  0.00    -0.327 A  
HETATM    3  C   UNL     1     -10.607  18.034  67.735  1.00  0.00    -0.409 A  
HETATM    4  C   UNL     1      -9.918  18.915  66.913  1.00  0.00    -0.391 A  
HETATM    5  C   UNL     1      -8.545  19.020  67.057  1.00  0.00    -0.308 A  
HETATM    6  C   UNL     1     -10.640  19.715  65.960  1.00  0.00    -0.483 C  
HETATM    7  N   UNL     1     -11.254  20.338  65.208  1.00  0.00     0.125 NA 
HETATM    8  C   UNL     1      -7.852  18.210  67.986  1.00  0.00    -0.266 A  
HETATM    9  C   UNL     1      -8.543  17.251  68.790  1.00  0.00    -0.230 A  
HETATM   10  C   UNL     1      -6.361  18.432  68.095  1.00  0.00    -0.196 C  
ENDROOT
BRANCH   9  11
HETATM   11  O   UNL     1      -7.691  16.371  69.445  1.00  0.00    -0.221 OA 
BRANCH  11  12
HETATM   12  C   UNL     1      -7.498  15.019  69.160  1.00  0.00    -0.169 A  
HETATM   13  C   UNL     1      -6.441  14.369  69.772  1.00  0.00    -0.150 A  
HETATM   14  C   UNL     1      -6.312  13.021  69.475  1.00  0.00    -0.103 A  
HETATM   15 BR   UNL     1      -5.227  15.247  70.928  1.00  0.00    -0.123 Br 
HETATM   16  N   UNL     1      -5.361  12.190  70.071  1.00  0.00    -0.088 NA 
HETATM   17  N   UNL     1      -7.144  12.376  68.644  1.00  0.00    -0.099 NA 
HETATM   18  H1  UNL     1      -5.266  11.199  69.853  1.00  0.00     0.000 HD 
HETATM   19  H2  UNL     1      -5.482  12.268  71.081  1.00  0.00     0.000 HD 
HETATM   20  C   UNL     1      -8.108  13.078  68.046  1.00  0.00    -0.157 A  
HETATM   21  N   UNL     1      -8.262  14.396  68.251  1.00  0.00    -0.141 NA 
BRANCH  20  22
HETATM   22  N   UNL     1      -9.057  12.469  67.215  1.00  0.00    -0.182 NA 
HETATM   23  H   UNL     1      -9.526  13.101  66.566  1.00  0.00     0.000 HD 
BRANCH  22  24
HETATM   24  C   UNL     1      -9.465  11.128  67.130  1.00  0.00    -0.172 A  
HETATM   25  C   UNL     1      -9.175  10.309  66.034  1.00  0.00    -0.200 A  
HETATM   26  C   UNL     1      -9.575   8.968  65.998  1.00  0.00    -0.342 A  
HETATM   27  C   UNL     1     -10.289   8.414  67.059  1.00  0.00    -0.385 A  
HETATM   28  C   UNL     1     -10.665   7.028  67.033  1.00  0.00    -0.353 C  
HETATM   29  C   UNL     1     -10.618   9.223  68.148  1.00  0.00    -0.248 A  
HETATM   30  C   UNL     1     -10.220  10.569  68.176  1.00  0.00    -0.187 A  
HETATM   31  N   UNL     1     -10.958   5.905  67.009  1.00  0.00    -0.279 NA 
ENDBRANCH  22  24
ENDBRANCH  20  22
ENDBRANCH  11  12
ENDBRANCH   9  11
TORSDOF 4
ENDMDL
MODEL      133
REMARK 921   NORMALIZED FREE ENERGY PREDICTED BY IDOCK:   -5.21 KCAL/MOL
REMARK 922        TOTAL FREE ENERGY PREDICTED BY IDOCK:   -7.08 KCAL/MOL
REMARK 923 INTER-LIGAND FREE ENERGY PREDICTED BY IDOCK:   -8.13 KCAL/MOL
REMARK 924 INTRA-LIGAND FREE ENERGY PREDICTED BY IDOCK:    1.05 KCAL/MOL
REMARK 927      BINDING AFFINITY PREDICTED BY RF-SCORE:    0.00 PKD
ROOT
HETATM    1  C   UNL     1     -11.205  15.906  68.217  1.00  0.00    -0.354 C  
HETATM    2  C   UNL     1     -11.321  14.522  68.776  1.00  0.00    -0.298 A  
HETATM    3  C   UNL     1     -12.058  14.475  69.984  1.00  0.00    -0.395 A  
HETATM    4  C   UNL     1     -12.365  13.280  70.621  1.00  0.00    -0.416 A  
HETATM    5  C   UNL     1     -11.958  12.093  70.036  1.00  0.00    -0.391 A  
HETATM    6  C   UNL     1     -13.117  13.298  71.847  1.00  0.00    -0.388 C  
HETATM    7  N   UNL     1     -13.721  13.353  72.829  1.00  0.00    -0.664 NA 
HETATM    8  C   UNL     1     -11.203  12.099  68.841  1.00  0.00    -0.320 A  
HETATM    9  C   UNL     1     -10.823  13.326  68.212  1.00  0.00    -0.256 A  
HETATM   10  C   UNL     1     -10.846  10.750  68.261  1.00  0.00    -0.276 C  
ENDROOT
BRANCH   9  11
HETATM   11  O   UNL     1      -9.875  13.156  67.211  1.00  0.00    -0.224 OA 
BRANCH  11  12
HETATM   12  C   UNL     1      -9.983  12.347  66.079  1.00  0.00    -0.255 A  
HETATM   13  C   UNL     1     -11.115  12.472  65.295  1.00  0.00    -0.297 A  
HETATM   14  C   UNL     1     -11.158  11.665  64.168  1.00  0.00    -0.364 A  
HETATM   15 BR   UNL     1     -12.533  13.651  65.721  1.00  0.00    -0.512 Br 
HETATM   16  N   UNL     1     -12.178  11.725  63.218  1.00  0.00    -0.912 NA 
HETATM   17  N   UNL     1     -10.177  10.806  63.851  1.00  0.00    -0.343 NA 
HETATM   18  H1  UNL     1     -12.210  11.132  62.390  1.00  0.00     0.000 HD 
HETATM   19  H2  UNL     1     -12.238  12.693  62.899  1.00  0.00     0.000 HD 
HETATM   20  C   UNL     1      -9.140  10.697  64.683  1.00  0.00    -0.211 A  
HETATM   21  N   UNL     1      -9.057  11.413  65.815  1.00  0.00    -0.206 NA 
BRANCH  20  22
HETATM   22  N   UNL     1      -8.047   9.871  64.394  1.00  0.00    -0.149 NA 
HETATM   23  H   UNL     1      -7.153  10.356  64.316  1.00  0.00     0.000 HD 
BRANCH  22  24
HETATM   24  C   UNL     1      -7.983   8.482  64.196  1.00  0.00    -0.150 A  
HETATM   25  C   UNL     1      -7.752   7.899  62.945  1.00  0.00    -0.132 A  
HETATM   26  C   UNL     1      -7.668   6.511  62.791  1.00  0.00    -0.097 A  
HETATM   27  C   UNL     1      -7.824   5.665  63.889  1.00  0.00    -0.112 A  
HETATM   28  C   UNL     1      -7.699   4.244  63.731  1.00  0.00    -0.074 C  
HETATM   29  C   UNL     1      -8.088   6.225  65.140  1.00  0.00    -0.130 A  
HETATM   30  C   UNL     1      -8.179   7.619  65.287  1.00  0.00    -0.136 A  
HETATM   31  N   UNL     1      -7.590   3.096  63.598  1.00  0.00    -0.066 NA 
ENDBRANCH  22  24
ENDBRANCH  20  22
ENDBRANCH  11  12
ENDBRANCH   9  11
TORSDOF 4
ENDMDL
MODEL      134
REMARK 921   NORMALIZED FREE ENERGY PREDICTED BY IDOCK:   -5.20 KCAL/MOL
REMARK 922        TOTAL FREE ENERGY PREDICTED BY IDOCK:   -7.07 KCAL/MOL
REMARK 923 INTER-LIGAND FREE ENERGY PREDICTED BY IDOCK:   -6.45 KCAL/MOL
REMARK 924 INTRA-LIGAND FREE ENERGY PREDICTED BY IDOCK:   -0.62 KCAL/MOL
REMARK 927      BINDING AFFINITY PREDICTED BY RF-SCORE:    0.00 PKD
ROOT
HETATM    1  C   UNL     1      -6.483  11.479  67.004  1.00  0.00    -0.134 C  
HETATM    2  C   UNL     1      -7.242  10.258  66.586  1.00  0.00    -0.109 A  
HETATM    3  C   UNL     1      -6.443   9.326  65.882  1.00  0.00    -0.071 A  
HETATM    4  C   UNL     1      -6.923   8.085  65.485  1.00  0.00    -0.059 A  
HETATM    5  C   UNL     1      -8.223   7.741  65.817  1.00  0.00    -0.132 A  
HETATM    6  C   UNL     1      -6.061   7.181  64.772  1.00  0.00    -0.037 C  
HETATM    7  N   UNL     1      -5.341   6.484  64.201  1.00  0.00    -0.025 NA 
HETATM    8  C   UNL     1      -9.059   8.652  66.501  1.00  0.00    -0.206 A  
HETATM    9  C   UNL     1      -8.596   9.958  66.855  1.00  0.00    -0.128 A  
HETATM   10  C   UNL     1     -10.445   8.163  66.853  1.00  0.00    -0.379 C  
ENDROOT
BRANCH   9  11
HETATM   11  O   UNL     1      -9.615  10.803  67.279  1.00  0.00    -0.158 OA 
BRANCH  11  12
HETATM   12  C   UNL     1      -9.746  12.165  67.003  1.00  0.00    -0.202 A  
HETATM   13  C   UNL     1     -10.148  12.536  65.733  1.00  0.00    -0.262 A  
HETATM   14  C   UNL     1     -10.290  13.899  65.523  1.00  0.00    -0.333 A  
HETATM   15 BR   UNL     1     -10.474  11.284  64.352  1.00  0.00    -0.424 Br 
HETATM   16  N   UNL     1     -10.773  14.447  64.334  1.00  0.00    -0.588 NA 
HETATM   17  N   UNL     1     -10.047  14.812  66.476  1.00  0.00    -0.264 NA 
HETATM   18  H1  UNL     1     -10.877  15.450  64.179  1.00  0.00     0.000 HD 
HETATM   19  H2  UNL     1     -11.680  14.017  64.149  1.00  0.00     0.000 HD 
HETATM   20  C   UNL     1      -9.608  14.385  67.661  1.00  0.00    -0.214 A  
HETATM   21  N   UNL     1      -9.404  13.083  67.919  1.00  0.00    -0.204 NA 
BRANCH  20  22
HETATM   22  N   UNL     1      -9.391  15.265  68.728  1.00  0.00    -0.199 NA 
HETATM   23  H   UNL     1      -9.843  14.998  69.603  1.00  0.00     0.000 HD 
BRANCH  22  24
HETATM   24  C   UNL     1      -8.651  16.459  68.788  1.00  0.00    -0.250 A  
HETATM   25  C   UNL     1      -9.224  17.722  68.607  1.00  0.00    -0.264 A  
HETATM   26  C   UNL     1      -8.459  18.890  68.701  1.00  0.00    -0.381 A  
HETATM   27  C   UNL     1      -7.093  18.823  68.969  1.00  0.00    -0.324 A  
HETATM   28  C   UNL     1      -6.321  20.026  69.101  1.00  0.00    -0.325 C  
HETATM   29  C   UNL     1      -6.495  17.570  69.120  1.00  0.00    -0.240 A  
HETATM   30  C   UNL     1      -7.266  16.401  69.017  1.00  0.00    -0.215 A  
HETATM   31  N   UNL     1      -5.704  21.003  69.215  1.00  0.00    -0.324 NA 
ENDBRANCH  22  24
ENDBRANCH  20  22
ENDBRANCH  11  12
ENDBRANCH   9  11
TORSDOF 4
ENDMDL
MODEL      135
REMARK 921   NORMALIZED FREE ENERGY PREDICTED BY IDOCK:   -5.17 KCAL/MOL
REMARK 922        TOTAL FREE ENERGY PREDICTED BY IDOCK:   -7.03 KCAL/MOL
REMARK 923 INTER-LIGAND FREE ENERGY PREDICTED BY IDOCK:   -6.49 KCAL/MOL
REMARK 924 INTRA-LIGAND FREE ENERGY PREDICTED BY IDOCK:   -0.53 KCAL/MOL
REMARK 927      BINDING AFFINITY PREDICTED BY RF-SCORE:    0.00 PKD
ROOT
HETATM    1  C   UNL     1      -8.646  12.851  68.320  1.00  0.00    -0.170 C  
HETATM    2  C   UNL     1      -9.627  13.650  67.518  1.00  0.00    -0.220 A  
HETATM    3  C   UNL     1      -9.325  15.033  67.497  1.00  0.00    -0.195 A  
HETATM    4  C   UNL     1     -10.050  15.940  66.737  1.00  0.00    -0.276 A  
HETATM    5  C   UNL     1     -11.087  15.467  65.950  1.00  0.00    -0.247 A  
HETATM    6  C   UNL     1      -9.695  17.334  66.757  1.00  0.00    -0.281 C  
HETATM    7  N   UNL     1      -9.381  18.443  66.801  1.00  0.00    -0.287 NA 
HETATM    8  C   UNL     1     -11.432  14.096  65.959  1.00  0.00    -0.343 A  
HETATM    9  C   UNL     1     -10.736  13.163  66.790  1.00  0.00    -0.267 A  
HETATM   10  C   UNL     1     -12.550  13.675  65.034  1.00  0.00    -0.434 C  
ENDROOT
BRANCH   9  11
HETATM   11  O   UNL     1     -11.366  11.928  66.874  1.00  0.00    -0.306 OA 
BRANCH  11  12
HETATM   12  C   UNL     1     -10.790  10.714  67.251  1.00  0.00    -0.287 A  
HETATM   13  C   UNL     1      -9.975  10.070  66.338  1.00  0.00    -0.237 A  
HETATM   14  C   UNL     1      -9.406   8.883  66.774  1.00  0.00    -0.175 A  
HETATM   15 BR   UNL     1      -9.654  10.738  64.597  1.00  0.00    -0.349 Br 
HETATM   16  N   UNL     1      -8.488   8.149  66.022  1.00  0.00    -0.133 NA 
HETATM   17  N   UNL     1      -9.630   8.374  67.995  1.00  0.00    -0.147 NA 
HETATM   18  H1  UNL     1      -8.070   7.276  66.342  1.00  0.00     0.000 HD 
HETATM   19  H2  UNL     1      -7.723   8.779  65.778  1.00  0.00     0.000 HD 
HETATM   20  C   UNL     1     -10.472   9.020  68.803  1.00  0.00    -0.206 A  
HETATM   21  N   UNL     1     -11.094  10.149  68.429  1.00  0.00    -0.243 NA 
BRANCH  20  22
HETATM   22  N   UNL     1     -10.712   8.590  70.114  1.00  0.00    -0.234 NA 
HETATM   23  H   UNL     1     -11.275   9.227  70.677  1.00  0.00     0.000 HD 
BRANCH  22  24
HETATM   24  C   UNL     1     -10.300   7.423  70.779  1.00  0.00    -0.202 A  
HETATM   25  C   UNL     1     -10.856   6.164  70.526  1.00  0.00    -0.364 A  
HETATM   26  C   UNL     1     -10.400   5.019  71.189  1.00  0.00    -0.254 A  
HETATM   27  C   UNL     1      -9.379   5.106  72.134  1.00  0.00    -0.162 A  
HETATM   28  C   UNL     1      -8.891   3.923  72.784  1.00  0.00    -0.098 C  
HETATM   29  C   UNL     1      -8.835   6.359  72.426  1.00  0.00    -0.134 A  
HETATM   30  C   UNL     1      -9.301   7.505  71.763  1.00  0.00    -0.168 A  
HETATM   31  N   UNL     1      -8.495   2.961  73.299  1.00  0.00    -0.075 NA 
ENDBRANCH  22  24
ENDBRANCH  20  22
ENDBRANCH  11  12
ENDBRANCH   9  11
TORSDOF 4
ENDMDL
MODEL      136
REMARK 921   NORMALIZED FREE ENERGY PREDICTED BY IDOCK:   -5.16 KCAL/MOL
REMARK 922        TOTAL FREE ENERGY PREDICTED BY IDOCK:   -7.02 KCAL/MOL
REMARK 923 INTER-LIGAND FREE ENERGY PREDICTED BY IDOCK:   -6.36 KCAL/MOL
REMARK 924 INTRA-LIGAND FREE ENERGY PREDICTED BY IDOCK:   -0.66 KCAL/MOL
REMARK 927      BINDING AFFINITY PREDICTED BY RF-SCORE:    0.00 PKD
ROOT
HETATM    1  C   UNL     1      -8.474   5.825  65.626  1.00  0.00    -0.149 C  
HETATM    2  C   UNL     1      -8.412   7.300  65.879  1.00  0.00    -0.148 A  
HETATM    3  C   UNL     1      -8.484   8.067  64.692  1.00  0.00    -0.000 A  
HETATM    4  C   UNL     1      -8.537   9.454  64.705  1.00  0.00    -0.209 A  
HETATM    5  C   UNL     1      -8.550  10.105  65.927  1.00  0.00    -0.156 A  
HETATM    6  C   UNL     1      -8.608  10.178  63.464  1.00  0.00    -0.200 C  
HETATM    7  N   UNL     1      -8.663  10.722  62.448  1.00  0.00    -0.262 NA 
HETATM    8  C   UNL     1      -8.460   9.376  67.135  1.00  0.00    -0.128 A  
HETATM    9  C   UNL     1      -8.336   7.951  67.131  1.00  0.00    -0.117 A  
HETATM   10  C   UNL     1      -8.526  10.177  68.414  1.00  0.00    -0.118 C  
ENDROOT
BRANCH   9  11
HETATM   11  O   UNL     1      -7.997   7.428  68.373  1.00  0.00    -0.120 OA 
BRANCH  11  12
HETATM   12  C   UNL     1      -8.815   6.679  69.220  1.00  0.00    -0.133 A  
HETATM   13  C   UNL     1      -8.343   5.459  69.669  1.00  0.00    -0.100 A  
HETATM   14  C   UNL     1      -9.183   4.770  70.530  1.00  0.00    -0.137 A  
HETATM   15 BR   UNL     1      -6.670   4.749  69.142  1.00  0.00    -0.050 Br 
HETATM   16  N   UNL     1      -8.832   3.570  71.151  1.00  0.00    -0.078 NA 
HETATM   17  N   UNL     1     -10.382   5.239  70.906  1.00  0.00    -0.237 NA 
HETATM   18  H1  UNL     1      -9.449   3.063  71.784  1.00  0.00     0.000 HD 
HETATM   19  H2  UNL     1      -7.955   3.732  71.648  1.00  0.00     0.000 HD 
HETATM   20  C   UNL     1     -10.798   6.396  70.391  1.00  0.00    -0.286 A  
HETATM   21  N   UNL     1     -10.056   7.093  69.515  1.00  0.00    -0.175 NA 
BRANCH  20  22
HETATM   22  N   UNL     1     -12.008   6.986  70.778  1.00  0.00    -0.444 NA 
HETATM   23  H   UNL     1     -12.799   6.345  70.830  1.00  0.00     0.000 HD 
BRANCH  22  24
HETATM   24  C   UNL     1     -12.306   8.319  71.107  1.00  0.00    -0.206 A  
HETATM   25  C   UNL     1     -11.499   9.397  70.731  1.00  0.00    -0.364 A  
HETATM   26  C   UNL     1     -11.843  10.715  71.053  1.00  0.00    -0.396 A  
HETATM   27  C   UNL     1     -13.006  10.987  71.773  1.00  0.00    -0.544 A  
HETATM   28  C   UNL     1     -13.373  12.343  72.069  1.00  0.00    -0.407 C  
HETATM   29  C   UNL     1     -13.808   9.922  72.188  1.00  0.00    -0.182 A  
HETATM   30  C   UNL     1     -13.453   8.602  71.868  1.00  0.00    -0.433 A  
HETATM   31  N   UNL     1     -13.669  13.441  72.298  1.00  0.00    -0.582 NA 
ENDBRANCH  22  24
ENDBRANCH  20  22
ENDBRANCH  11  12
ENDBRANCH   9  11
TORSDOF 4
ENDMDL
MODEL      137
REMARK 921   NORMALIZED FREE ENERGY PREDICTED BY IDOCK:   -5.13 KCAL/MOL
REMARK 922        TOTAL FREE ENERGY PREDICTED BY IDOCK:   -6.98 KCAL/MOL
REMARK 923 INTER-LIGAND FREE ENERGY PREDICTED BY IDOCK:   -6.09 KCAL/MOL
REMARK 924 INTRA-LIGAND FREE ENERGY PREDICTED BY IDOCK:   -0.89 KCAL/MOL
REMARK 927      BINDING AFFINITY PREDICTED BY RF-SCORE:    0.00 PKD
ROOT
HETATM    1  C   UNL     1      -6.925  12.241  68.655  1.00  0.00    -0.097 C  
HETATM    2  C   UNL     1      -7.457  10.853  68.836  1.00  0.00    -0.116 A  
HETATM    3  C   UNL     1      -7.329  10.381  70.164  1.00  0.00    -0.049 A  
HETATM    4  C   UNL     1      -7.842   9.158  70.571  1.00  0.00    -0.155 A  
HETATM    5  C   UNL     1      -8.528   8.386  69.648  1.00  0.00    -0.127 A  
HETATM    6  C   UNL     1      -7.679   8.733  71.936  1.00  0.00    -0.006 C  
HETATM    7  N   UNL     1      -7.527   8.427  73.038  1.00  0.00    -0.285 NA 
HETATM    8  C   UNL     1      -8.660   8.812  68.306  1.00  0.00    -0.134 A  
HETATM    9  C   UNL     1      -8.077  10.040  67.860  1.00  0.00    -0.109 A  
HETATM   10  C   UNL     1      -9.462   7.919  67.390  1.00  0.00    -0.179 C  
ENDROOT
BRANCH   9  11
HETATM   11  O   UNL     1      -8.075  10.173  66.477  1.00  0.00    -0.117 OA 
BRANCH  11  12
HETATM   12  C   UNL     1      -8.987  10.890  65.701  1.00  0.00    -0.194 A  
HETATM   13  C   UNL     1      -9.283  10.412  64.437  1.00  0.00    -0.251 A  
HETATM   14  C   UNL     1     -10.215  11.147  63.720  1.00  0.00    -0.377 A  
HETATM   15 BR   UNL     1      -8.470   8.867  63.707  1.00  0.00    -0.102 Br 
HETATM   16  N   UNL     1     -10.700  10.762  62.470  1.00  0.00    -0.346 NA 
HETATM   17  N   UNL     1     -10.793  12.257  64.203  1.00  0.00    -0.332 NA 
HETATM   18  H1  UNL     1     -11.385  11.303  61.942  1.00  0.00     0.000 HD 
HETATM   19  H2  UNL     1     -11.070   9.817  62.566  1.00  0.00     0.000 HD 
HETATM   20  C   UNL     1     -10.419  12.692  65.407  1.00  0.00    -0.283 A  
HETATM   21  N   UNL     1      -9.488  12.056  66.136  1.00  0.00    -0.235 NA 
BRANCH  20  22
HETATM   22  N   UNL     1     -11.018  13.805  66.010  1.00  0.00    -0.283 NA 
HETATM   23  H   UNL     1     -12.034  13.757  66.083  1.00  0.00     0.000 HD 
BRANCH  22  24
HETATM   24  C   UNL     1     -10.443  14.977  66.531  1.00  0.00    -0.285 A  
HETATM   25  C   UNL     1     -10.328  16.162  65.797  1.00  0.00    -0.398 A  
HETATM   26  C   UNL     1      -9.775  17.318  66.359  1.00  0.00    -0.303 A  
HETATM   27  C   UNL     1      -9.311  17.314  67.673  1.00  0.00    -0.237 A  
HETATM   28  C   UNL     1      -8.778  18.513  68.257  1.00  0.00    -0.311 C  
HETATM   29  C   UNL     1      -9.386  16.131  68.413  1.00  0.00    -0.206 A  
HETATM   30  C   UNL     1      -9.935  14.973  67.841  1.00  0.00    -0.222 A  
HETATM   31  N   UNL     1      -8.356  19.487  68.725  1.00  0.00    -0.349 NA 
ENDBRANCH  22  24
ENDBRANCH  20  22
ENDBRANCH  11  12
ENDBRANCH   9  11
TORSDOF 4
ENDMDL
MODEL      138
REMARK 921   NORMALIZED FREE ENERGY PREDICTED BY IDOCK:   -5.11 KCAL/MOL
REMARK 922        TOTAL FREE ENERGY PREDICTED BY IDOCK:   -6.96 KCAL/MOL
REMARK 923 INTER-LIGAND FREE ENERGY PREDICTED BY IDOCK:   -6.50 KCAL/MOL
REMARK 924 INTRA-LIGAND FREE ENERGY PREDICTED BY IDOCK:   -0.45 KCAL/MOL
REMARK 927      BINDING AFFINITY PREDICTED BY RF-SCORE:    0.00 PKD
ROOT
HETATM    1  C   UNL     1      -9.052  12.558  67.638  1.00  0.00    -0.187 C  
HETATM    2  C   UNL     1      -8.745  13.916  67.086  1.00  0.00    -0.233 A  
HETATM    3  C   UNL     1      -9.770  14.415  66.248  1.00  0.00    -0.330 A  
HETATM    4  C   UNL     1      -9.732  15.693  65.707  1.00  0.00    -0.380 A  
HETATM    5  C   UNL     1      -8.664  16.516  66.026  1.00  0.00    -0.255 A  
HETATM    6  C   UNL     1     -10.804  16.143  64.861  1.00  0.00    -0.334 C  
HETATM    7  N   UNL     1     -11.682  16.467  64.186  1.00  0.00    -1.013 NA 
HETATM    8  C   UNL     1      -7.610  16.047  66.844  1.00  0.00    -0.268 A  
HETATM    9  C   UNL     1      -7.606  14.710  67.350  1.00  0.00    -0.192 A  
HETATM   10  C   UNL     1      -6.515  17.037  67.166  1.00  0.00    -0.213 C  
ENDROOT
BRANCH   9  11
HETATM   11  O   UNL     1      -6.388  14.340  67.906  1.00  0.00    -0.138 OA 
BRANCH  11  12
HETATM   12  C   UNL     1      -6.186  13.542  69.034  1.00  0.00    -0.095 A  
HETATM   13  C   UNL     1      -5.805  14.163  70.210  1.00  0.00    -0.147 A  
HETATM   14  C   UNL     1      -5.646  13.328  71.305  1.00  0.00    -0.141 A  
HETATM   15 BR   UNL     1      -5.500  16.026  70.335  1.00  0.00    -0.138 Br 
HETATM   16  N   UNL     1      -5.355  13.791  72.589  1.00  0.00    -0.378 NA 
HETATM   17  N   UNL     1      -5.836  12.001  71.242  1.00  0.00    -0.277 NA 
HETATM   18  H1  UNL     1      -5.238  13.178  73.395  1.00  0.00     0.000 HD 
HETATM   19  H2  UNL     1      -6.071  14.477  72.833  1.00  0.00     0.000 HD 
HETATM   20  C   UNL     1      -6.148  11.463  70.062  1.00  0.00    -0.145 A  
HETATM   21  N   UNL     1      -6.272  12.206  68.951  1.00  0.00    -0.071 NA 
BRANCH  20  22
HETATM   22  N   UNL     1      -6.424  10.097  69.923  1.00  0.00    -0.072 NA 
HETATM   23  H   UNL     1      -5.623   9.523  69.661  1.00  0.00     0.000 HD 
BRANCH  22  24
HETATM   24  C   UNL     1      -7.628   9.391  70.088  1.00  0.00    -0.130 A  
HETATM   25  C   UNL     1      -8.169   9.085  71.340  1.00  0.00    -0.113 A  
HETATM   26  C   UNL     1      -9.385   8.404  71.464  1.00  0.00    -0.263 A  
HETATM   27  C   UNL     1     -10.089   8.001  70.330  1.00  0.00    -0.194 A  
HETATM   28  C   UNL     1     -11.354   7.335  70.463  1.00  0.00    -0.280 C  
HETATM   29  C   UNL     1      -9.550   8.267  69.070  1.00  0.00    -0.156 A  
HETATM   30  C   UNL     1      -8.326   8.945  68.952  1.00  0.00    -0.122 A  
HETATM   31  N   UNL     1     -12.380   6.805  70.577  1.00  0.00    -0.238 NA 
ENDBRANCH  22  24
ENDBRANCH  20  22
ENDBRANCH  11  12
ENDBRANCH   9  11
TORSDOF 4
ENDMDL
MODEL      139
REMARK 921   NORMALIZED FREE ENERGY PREDICTED BY IDOCK:   -5.06 KCAL/MOL
REMARK 922        TOTAL FREE ENERGY PREDICTED BY IDOCK:   -6.90 KCAL/MOL
REMARK 923 INTER-LIGAND FREE ENERGY PREDICTED BY IDOCK:   -6.87 KCAL/MOL
REMARK 924 INTRA-LIGAND FREE ENERGY PREDICTED BY IDOCK:   -0.03 KCAL/MOL
REMARK 927      BINDING AFFINITY PREDICTED BY RF-SCORE:    0.00 PKD
ROOT
HETATM    1  C   UNL     1     -11.480  13.734  65.026  1.00  0.00    -0.340 C  
HETATM    2  C   UNL     1     -10.589  14.670  65.782  1.00  0.00    -0.330 A  
HETATM    3  C   UNL     1     -10.804  16.028  65.447  1.00  0.00    -0.340 A  
HETATM    4  C   UNL     1     -10.152  17.067  66.097  1.00  0.00    -0.332 A  
HETATM    5  C   UNL     1      -9.281  16.760  67.129  1.00  0.00    -0.233 A  
HETATM    6  C   UNL     1     -10.412  18.428  65.710  1.00  0.00    -0.227 C  
HETATM    7  N   UNL     1     -10.646  19.505  65.370  1.00  0.00    -0.414 NA 
HETATM    8  C   UNL     1      -9.024  15.415  67.481  1.00  0.00    -0.191 A  
HETATM    9  C   UNL     1      -9.639  14.335  66.773  1.00  0.00    -0.280 A  
HETATM   10  C   UNL     1      -8.092  15.188  68.649  1.00  0.00    -0.154 C  
ENDROOT
BRANCH   9  11
HETATM   11  O   UNL     1      -9.081  13.098  67.070  1.00  0.00    -0.217 OA 
BRANCH  11  12
HETATM   12  C   UNL     1      -9.763  11.904  67.313  1.00  0.00    -0.184 A  
HETATM   13  C   UNL     1     -10.800  11.922  68.227  1.00  0.00    -0.224 A  
HETATM   14  C   UNL     1     -11.461  10.717  68.409  1.00  0.00    -0.259 A  
HETATM   15 BR   UNL     1     -11.293  13.474  69.191  1.00  0.00    -0.333 Br 
HETATM   16  N   UNL     1     -12.586  10.572  69.221  1.00  0.00    -0.659 NA 
HETATM   17  N   UNL     1     -11.122   9.595  67.755  1.00  0.00    -0.140 NA 
HETATM   18  H1  UNL     1     -13.072   9.685  69.356  1.00  0.00     0.000 HD 
HETATM   19  H2  UNL     1     -13.278  11.251  68.905  1.00  0.00     0.000 HD 
HETATM   20  C   UNL     1     -10.075   9.638  66.929  1.00  0.00    -0.227 A  
HETATM   21  N   UNL     1      -9.361  10.759  66.741  1.00  0.00    -0.160 NA 
BRANCH  20  22
HETATM   22  N   UNL     1      -9.695   8.530  66.162  1.00  0.00    -0.409 NA 
HETATM   23  H   UNL     1      -9.517   8.731  65.178  1.00  0.00     0.000 HD 
BRANCH  22  24
HETATM   24  C   UNL     1      -9.518   7.185  66.530  1.00  0.00    -0.156 A  
HETATM   25  C   UNL     1     -10.578   6.280  66.646  1.00  0.00    -0.268 A  
HETATM   26  C   UNL     1     -10.360   4.941  66.988  1.00  0.00    -0.209 A  
HETATM   27  C   UNL     1      -9.069   4.474  67.235  1.00  0.00    -0.138 A  
HETATM   28  C   UNL     1      -8.848   3.090  67.549  1.00  0.00    -0.139 C  
HETATM   29  C   UNL     1      -8.001   5.369  67.157  1.00  0.00    -0.101 A  
HETATM   30  C   UNL     1      -8.227   6.713  66.820  1.00  0.00    -0.114 A  
HETATM   31  N   UNL     1      -8.675   1.970  67.794  1.00  0.00    -0.090 NA 
ENDBRANCH  22  24
ENDBRANCH  20  22
ENDBRANCH  11  12
ENDBRANCH   9  11
TORSDOF 4
ENDMDL
MODEL      140
REMARK 921   NORMALIZED FREE ENERGY PREDICTED BY IDOCK:   -5.06 KCAL/MOL
REMARK 922        TOTAL FREE ENERGY PREDICTED BY IDOCK:   -6.90 KCAL/MOL
REMARK 923 INTER-LIGAND FREE ENERGY PREDICTED BY IDOCK:   -6.96 KCAL/MOL
REMARK 924 INTRA-LIGAND FREE ENERGY PREDICTED BY IDOCK:    0.07 KCAL/MOL
REMARK 927      BINDING AFFINITY PREDICTED BY RF-SCORE:    0.00 PKD
ROOT
HETATM    1  C   UNL     1      -7.364  14.926  68.409  1.00  0.00    -0.114 C  
HETATM    2  C   UNL     1      -7.875  16.331  68.487  1.00  0.00    -0.192 A  
HETATM    3  C   UNL     1      -6.922  17.237  69.010  1.00  0.00    -0.235 A  
HETATM    4  C   UNL     1      -7.155  18.604  69.081  1.00  0.00    -0.251 A  
HETATM    5  C   UNL     1      -8.354  19.097  68.594  1.00  0.00    -0.403 A  
HETATM    6  C   UNL     1      -6.146  19.473  69.625  1.00  0.00    -0.282 C  
HETATM    7  N   UNL     1      -5.314  20.138  70.069  1.00  0.00    -0.226 NA 
HETATM    8  C   UNL     1      -9.340  18.223  68.082  1.00  0.00    -0.307 A  
HETATM    9  C   UNL     1      -9.137  16.808  68.067  1.00  0.00    -0.228 A  
HETATM   10  C   UNL     1     -10.594  18.866  67.536  1.00  0.00    -0.524 C  
ENDROOT
BRANCH   9  11
HETATM   11  O   UNL     1     -10.294  16.093  67.780  1.00  0.00    -0.267 OA 
BRANCH  11  12
HETATM   12  C   UNL     1     -10.508  14.728  67.976  1.00  0.00    -0.246 A  
HETATM   13  C   UNL     1     -11.189  14.333  69.113  1.00  0.00    -0.270 A  
HETATM   14  C   UNL     1     -11.399  12.969  69.244  1.00  0.00    -0.251 A  
HETATM   15 BR   UNL     1     -11.791  15.555  70.426  1.00  0.00    -0.422 Br 
HETATM   16  N   UNL     1     -12.145  12.401  70.277  1.00  0.00    -0.399 NA 
HETATM   17  N   UNL     1     -10.968  12.076  68.340  1.00  0.00    -0.222 NA 
HETATM   18  H1  UNL     1     -12.299  11.398  70.374  1.00  0.00     0.000 HD 
HETATM   19  H2  UNL     1     -13.062  12.849  70.270  1.00  0.00     0.000 HD 
HETATM   20  C   UNL     1     -10.268  12.523  67.295  1.00  0.00    -0.216 A  
HETATM   21  N   UNL     1      -9.988  13.826  67.131  1.00  0.00    -0.239 NA 
BRANCH  20  22
HETATM   22  N   UNL     1      -9.836  11.667  66.275  1.00  0.00    -0.213 NA 
HETATM   23  H   UNL     1      -9.617  12.128  65.392  1.00  0.00     0.000 HD 
BRANCH  22  24
HETATM   24  C   UNL     1      -9.656  10.273  66.272  1.00  0.00    -0.189 A  
HETATM   25  C   UNL     1      -8.513   9.652  65.758  1.00  0.00    -0.142 A  
HETATM   26  C   UNL     1      -8.357   8.262  65.798  1.00  0.00    -0.142 A  
HETATM   27  C   UNL     1      -9.351   7.453  66.348  1.00  0.00    -0.206 A  
HETATM   28  C   UNL     1      -9.169   6.031  66.420  1.00  0.00    -0.151 C  
HETATM   29  C   UNL     1     -10.515   8.051  66.836  1.00  0.00    -0.387 A  
HETATM   30  C   UNL     1     -10.669   9.445  66.786  1.00  0.00    -0.129 A  
HETATM   31  N   UNL     1      -9.012   4.883  66.482  1.00  0.00    -0.111 NA 
ENDBRANCH  22  24
ENDBRANCH  20  22
ENDBRANCH  11  12
ENDBRANCH   9  11
TORSDOF 4
ENDMDL
MODEL      141
REMARK 921   NORMALIZED FREE ENERGY PREDICTED BY IDOCK:   -5.05 KCAL/MOL
REMARK 922        TOTAL FREE ENERGY PREDICTED BY IDOCK:   -6.88 KCAL/MOL
REMARK 923 INTER-LIGAND FREE ENERGY PREDICTED BY IDOCK:   -7.79 KCAL/MOL
REMARK 924 INTRA-LIGAND FREE ENERGY PREDICTED BY IDOCK:    0.91 KCAL/MOL
REMARK 927      BINDING AFFINITY PREDICTED BY RF-SCORE:    0.00 PKD
ROOT
HETATM    1  C   UNL     1      -9.280  14.395  68.309  1.00  0.00    -0.201 C  
HETATM    2  C   UNL     1      -9.953  13.333  67.496  1.00  0.00    -0.223 A  
HETATM    3  C   UNL     1     -10.668  13.854  66.391  1.00  0.00    -0.281 A  
HETATM    4  C   UNL     1     -11.287  13.038  65.454  1.00  0.00    -0.327 A  
HETATM    5  C   UNL     1     -11.174  11.664  65.594  1.00  0.00    -0.275 A  
HETATM    6  C   UNL     1     -12.000  13.628  64.353  1.00  0.00    -0.437 C  
HETATM    7  N   UNL     1     -12.563  14.139  63.485  1.00  0.00    -0.747 NA 
HETATM    8  C   UNL     1     -10.486  11.105  66.694  1.00  0.00    -0.298 A  
HETATM    9  C   UNL     1      -9.903  11.936  67.702  1.00  0.00    -0.187 A  
HETATM   10  C   UNL     1     -10.383   9.598  66.731  1.00  0.00    -0.292 C  
ENDROOT
BRANCH   9  11
HETATM   11  O   UNL     1      -9.502  11.229  68.829  1.00  0.00    -0.187 OA 
BRANCH  11  12
HETATM   12  C   UNL     1     -10.250  10.290  69.541  1.00  0.00    -0.236 A  
HETATM   13  C   UNL     1     -11.388  10.724  70.196  1.00  0.00    -0.309 A  
HETATM   14  C   UNL     1     -12.107   9.746  70.864  1.00  0.00    -0.321 A  
HETATM   15 BR   UNL     1     -11.937  12.535  70.207  1.00  0.00    -0.273 Br 
HETATM   16  N   UNL     1     -13.326   9.987  71.500  1.00  0.00    -0.377 NA 
HETATM   17  N   UNL     1     -11.732   8.458  70.891  1.00  0.00    -0.275 NA 
HETATM   18  H1  UNL     1     -13.855   9.267  71.992  1.00  0.00     0.000 HD 
HETATM   19  H2  UNL     1     -13.951  10.403  70.809  1.00  0.00     0.000 HD 
HETATM   20  C   UNL     1     -10.594   8.119  70.285  1.00  0.00    -0.228 A  
HETATM   21  N   UNL     1      -9.823   9.023  69.659  1.00  0.00    -0.173 NA 
BRANCH  20  22
HETATM   22  N   UNL     1     -10.163   6.788  70.212  1.00  0.00    -0.193 NA 
HETATM   23  H   UNL     1      -9.650   6.550  69.364  1.00  0.00     0.000 HD 
BRANCH  22  24
HETATM   24  C   UNL     1     -10.325   5.729  71.121  1.00  0.00    -0.227 A  
HETATM   25  C   UNL     1     -11.106   5.828  72.278  1.00  0.00    -0.330 A  
HETATM   26  C   UNL     1     -11.266   4.741  73.145  1.00  0.00    -0.390 A  
HETATM   27  C   UNL     1     -10.637   3.525  72.881  1.00  0.00    -0.218 A  
HETATM   28  C   UNL     1     -10.835   2.403  73.755  1.00  0.00    -0.187 C  
HETATM   29  C   UNL     1      -9.826   3.416  71.750  1.00  0.00    -0.229 A  
HETATM   30  C   UNL     1      -9.663   4.512  70.887  1.00  0.00    -0.263 A  
HETATM   31  N   UNL     1     -11.005   1.498  74.461  1.00  0.00    -0.103 NA 
ENDBRANCH  22  24
ENDBRANCH  20  22
ENDBRANCH  11  12
ENDBRANCH   9  11
TORSDOF 4
ENDMDL
MODEL      142
REMARK 921   NORMALIZED FREE ENERGY PREDICTED BY IDOCK:   -5.01 KCAL/MOL
REMARK 922        TOTAL FREE ENERGY PREDICTED BY IDOCK:   -6.83 KCAL/MOL
REMARK 923 INTER-LIGAND FREE ENERGY PREDICTED BY IDOCK:   -6.00 KCAL/MOL
REMARK 924 INTRA-LIGAND FREE ENERGY PREDICTED BY IDOCK:   -0.83 KCAL/MOL
REMARK 927      BINDING AFFINITY PREDICTED BY RF-SCORE:    0.00 PKD
ROOT
HETATM    1  C   UNL     1      -7.518   6.131  65.865  1.00  0.00    -0.082 C  
HETATM    2  C   UNL     1      -7.545   6.950  67.118  1.00  0.00    -0.107 A  
HETATM    3  C   UNL     1      -7.867   6.191  68.268  1.00  0.00    -0.104 A  
HETATM    4  C   UNL     1      -7.854   6.733  69.546  1.00  0.00    -0.113 A  
HETATM    5  C   UNL     1      -7.485   8.060  69.699  1.00  0.00    -0.091 A  
HETATM    6  C   UNL     1      -8.193   5.910  70.675  1.00  0.00    -0.120 C  
HETATM    7  N   UNL     1      -8.471   5.218  71.555  1.00  0.00    -0.121 NA 
HETATM    8  C   UNL     1      -7.175   8.857  68.574  1.00  0.00    -0.073 A  
HETATM    9  C   UNL     1      -7.250   8.327  67.248  1.00  0.00    -0.084 A  
HETATM   10  C   UNL     1      -6.742  10.278  68.852  1.00  0.00    -0.057 C  
ENDROOT
BRANCH   9  11
HETATM   11  O   UNL     1      -7.173   9.304  66.263  1.00  0.00    -0.086 OA 
BRANCH  11  12
HETATM   12  C   UNL     1      -8.238   9.929  65.613  1.00  0.00    -0.138 A  
HETATM   13  C   UNL     1      -8.389   9.715  64.256  1.00  0.00    -0.168 A  
HETATM   14  C   UNL     1      -9.479  10.337  63.667  1.00  0.00    -0.299 A  
HETATM   15 BR   UNL     1      -7.189   8.658  63.244  1.00  0.00    -0.093 Br 
HETATM   16  N   UNL     1      -9.837  10.158  62.330  1.00  0.00    -0.693 NA 
HETATM   17  N   UNL     1     -10.335  11.108  64.354  1.00  0.00    -0.321 NA 
HETATM   18  H1  UNL     1     -10.638  10.616  61.897  1.00  0.00     0.000 HD 
HETATM   19  H2  UNL     1      -9.942   9.155  62.176  1.00  0.00     0.000 HD 
HETATM   20  C   UNL     1     -10.097  11.317  65.650  1.00  0.00    -0.247 A  
HETATM   21  N   UNL     1      -9.034  10.784  66.273  1.00  0.00    -0.165 NA 
BRANCH  20  22
HETATM   22  N   UNL     1     -10.975  12.056  66.452  1.00  0.00    -0.282 NA 
HETATM   23  H   UNL     1     -11.825  11.563  66.724  1.00  0.00     0.000 HD 
BRANCH  22  24
HETATM   24  C   UNL     1     -10.872  13.369  66.943  1.00  0.00    -0.277 A  
HETATM   25  C   UNL     1     -11.635  13.846  68.014  1.00  0.00    -0.368 A  
HETATM   26  C   UNL     1     -11.485  15.152  68.493  1.00  0.00    -0.335 A  
HETATM   27  C   UNL     1     -10.569  16.022  67.903  1.00  0.00    -0.301 A  
HETATM   28  C   UNL     1     -10.392  17.348  68.422  1.00  0.00    -0.379 C  
HETATM   29  C   UNL     1      -9.821  15.576  66.811  1.00  0.00    -0.252 A  
HETATM   30  C   UNL     1      -9.981  14.267  66.330  1.00  0.00    -0.302 A  
HETATM   31  N   UNL     1     -10.249  18.417  68.852  1.00  0.00    -0.344 NA 
ENDBRANCH  22  24
ENDBRANCH  20  22
ENDBRANCH  11  12
ENDBRANCH   9  11
TORSDOF 4
ENDMDL
MODEL      143
REMARK 921   NORMALIZED FREE ENERGY PREDICTED BY IDOCK:   -5.00 KCAL/MOL
REMARK 922        TOTAL FREE ENERGY PREDICTED BY IDOCK:   -6.82 KCAL/MOL
REMARK 923 INTER-LIGAND FREE ENERGY PREDICTED BY IDOCK:   -5.89 KCAL/MOL
REMARK 924 INTRA-LIGAND FREE ENERGY PREDICTED BY IDOCK:   -0.93 KCAL/MOL
REMARK 927      BINDING AFFINITY PREDICTED BY RF-SCORE:    0.00 PKD
ROOT
HETATM    1  C   UNL     1     -12.141  12.359  66.186  1.00  0.00    -0.295 C  
HETATM    2  C   UNL     1     -10.791  11.752  66.408  1.00  0.00    -0.325 A  
HETATM    3  C   UNL     1     -10.210  11.246  65.220  1.00  0.00    -0.328 A  
HETATM    4  C   UNL     1      -8.924  10.727  65.184  1.00  0.00    -0.215 A  
HETATM    5  C   UNL     1      -8.174  10.731  66.349  1.00  0.00    -0.155 A  
HETATM    6  C   UNL     1      -8.390  10.228  63.945  1.00  0.00    -0.165 C  
HETATM    7  N   UNL     1      -7.997   9.836  62.933  1.00  0.00    -0.126 NA 
HETATM    8  C   UNL     1      -8.725  11.208  67.560  1.00  0.00    -0.129 A  
HETATM    9  C   UNL     1     -10.072  11.683  67.623  1.00  0.00    -0.188 A  
HETATM   10  C   UNL     1      -7.810  11.209  68.763  1.00  0.00    -0.142 C  
ENDROOT
BRANCH   9  11
HETATM   11  O   UNL     1     -10.528  11.862  68.923  1.00  0.00    -0.202 OA 
BRANCH  11  12
HETATM   12  C   UNL     1     -11.187  10.925  69.719  1.00  0.00    -0.281 A  
HETATM   13  C   UNL     1     -12.145  11.382  70.606  1.00  0.00    -0.372 A  
HETATM   14  C   UNL     1     -12.788  10.407  71.352  1.00  0.00    -0.452 A  
HETATM   15 BR   UNL     1     -12.555  13.218  70.817  1.00  0.00    -0.309 Br 
HETATM   16  N   UNL     1     -13.841  10.677  72.227  1.00  0.00    -0.288 NA 
HETATM   17  N   UNL     1     -12.505   9.100  71.239  1.00  0.00    -0.311 NA 
HETATM   18  H1  UNL     1     -14.315   9.960  72.775  1.00  0.00     0.000 HD 
HETATM   19  H2  UNL     1     -14.557  11.172  71.694  1.00  0.00     0.000 HD 
HETATM   20  C   UNL     1     -11.531   8.735  70.404  1.00  0.00    -0.144 A  
HETATM   21  N   UNL     1     -10.835   9.631  69.686  1.00  0.00    -0.238 NA 
BRANCH  20  22
HETATM   22  N   UNL     1     -11.216   7.389  70.181  1.00  0.00    -0.374 NA 
HETATM   23  H   UNL     1     -11.914   6.724  70.515  1.00  0.00     0.000 HD 
BRANCH  22  24
HETATM   24  C   UNL     1     -10.092   6.807  69.570  1.00  0.00    -0.178 A  
HETATM   25  C   UNL     1     -10.071   6.410  68.229  1.00  0.00    -0.169 A  
HETATM   26  C   UNL     1      -8.924   5.859  67.648  1.00  0.00    -0.107 A  
HETATM   27  C   UNL     1      -7.765   5.680  68.402  1.00  0.00    -0.092 A  
HETATM   28  C   UNL     1      -6.579   5.149  67.792  1.00  0.00    -0.050 C  
HETATM   29  C   UNL     1      -7.775   6.039  69.752  1.00  0.00    -0.096 A  
HETATM   30  C   UNL     1      -8.931   6.584  70.331  1.00  0.00    -0.152 A  
HETATM   31  N   UNL     1      -5.621   4.727  67.290  1.00  0.00    -0.013 NA 
ENDBRANCH  22  24
ENDBRANCH  20  22
ENDBRANCH  11  12
ENDBRANCH   9  11
TORSDOF 4
ENDMDL
MODEL      144
REMARK 921   NORMALIZED FREE ENERGY PREDICTED BY IDOCK:   -4.98 KCAL/MOL
REMARK 922        TOTAL FREE ENERGY PREDICTED BY IDOCK:   -6.80 KCAL/MOL
REMARK 923 INTER-LIGAND FREE ENERGY PREDICTED BY IDOCK:   -5.63 KCAL/MOL
REMARK 924 INTRA-LIGAND FREE ENERGY PREDICTED BY IDOCK:   -1.16 KCAL/MOL
REMARK 927      BINDING AFFINITY PREDICTED BY RF-SCORE:    0.00 PKD
ROOT
HETATM    1  C   UNL     1      -6.502   9.604  70.914  1.00  0.00    -0.083 C  
HETATM    2  C   UNL     1      -6.349  10.550  69.763  1.00  0.00    -0.091 A  
HETATM    3  C   UNL     1      -6.013  11.863  70.170  1.00  0.00    -0.159 A  
HETATM    4  C   UNL     1      -5.733  12.874  69.261  1.00  0.00    -0.081 A  
HETATM    5  C   UNL     1      -5.755  12.574  67.908  1.00  0.00    -0.093 A  
HETATM    6  C   UNL     1      -5.399  14.190  69.736  1.00  0.00    -0.093 C  
HETATM    7  N   UNL     1      -5.137  15.232  70.156  1.00  0.00    -0.100 NA 
HETATM    8  C   UNL     1      -6.105  11.279  67.462  1.00  0.00    -0.059 A  
HETATM    9  C   UNL     1      -6.462  10.249  68.387  1.00  0.00    -0.048 A  
HETATM   10  C   UNL     1      -6.057  11.044  65.970  1.00  0.00    -0.094 C  
ENDROOT
BRANCH   9  11
HETATM   11  O   UNL     1      -7.025   9.136  67.775  1.00  0.00    -0.076 OA 
BRANCH  11  12
HETATM   12  C   UNL     1      -8.343   8.691  67.889  1.00  0.00    -0.123 A  
HETATM   13  C   UNL     1      -8.558   7.341  68.101  1.00  0.00    -0.122 A  
HETATM   14  C   UNL     1      -9.883   6.958  68.235  1.00  0.00    -0.138 A  
HETATM   15 BR   UNL     1      -7.151   6.079  68.190  1.00  0.00    -0.080 Br 
HETATM   16  N   UNL     1     -10.280   5.656  68.543  1.00  0.00    -0.179 NA 
HETATM   17  N   UNL     1     -10.903   7.826  68.157  1.00  0.00    -0.027 NA 
HETATM   18  H1  UNL     1     -11.255   5.374  68.641  1.00  0.00     0.000 HD 
HETATM   19  H2  UNL     1      -9.800   5.388  69.402  1.00  0.00     0.000 HD 
HETATM   20  C   UNL     1     -10.625   9.104  67.895  1.00  0.00    -0.214 A  
HETATM   21  N   UNL     1      -9.368   9.536  67.707  1.00  0.00    -0.128 NA 
BRANCH  20  22
HETATM   22  N   UNL     1     -11.625  10.085  67.859  1.00  0.00    -0.569 NA 
HETATM   23  H   UNL     1     -12.375   9.908  67.192  1.00  0.00     0.000 HD 
BRANCH  22  24
HETATM   24  C   UNL     1     -11.759  11.274  68.596  1.00  0.00    -0.324 A  
HETATM   25  C   UNL     1     -11.538  12.542  68.047  1.00  0.00    -0.395 A  
HETATM   26  C   UNL     1     -11.709  13.705  68.805  1.00  0.00    -0.383 A  
HETATM   27  C   UNL     1     -12.096  13.629  70.142  1.00  0.00    -0.431 A  
HETATM   28  C   UNL     1     -12.306  14.828  70.904  1.00  0.00    -0.319 C  
HETATM   29  C   UNL     1     -12.289  12.372  70.718  1.00  0.00    -0.377 A  
HETATM   30  C   UNL     1     -12.110  11.208  69.955  1.00  0.00    -0.418 A  
HETATM   31  N   UNL     1     -12.481  15.801  71.512  1.00  0.00    -0.433 NA 
ENDBRANCH  22  24
ENDBRANCH  20  22
ENDBRANCH  11  12
ENDBRANCH   9  11
TORSDOF 4
ENDMDL
MODEL      145
REMARK 921   NORMALIZED FREE ENERGY PREDICTED BY IDOCK:   -4.88 KCAL/MOL
REMARK 922        TOTAL FREE ENERGY PREDICTED BY IDOCK:   -6.67 KCAL/MOL
REMARK 923 INTER-LIGAND FREE ENERGY PREDICTED BY IDOCK:   -6.17 KCAL/MOL
REMARK 924 INTRA-LIGAND FREE ENERGY PREDICTED BY IDOCK:   -0.50 KCAL/MOL
REMARK 927      BINDING AFFINITY PREDICTED BY RF-SCORE:    0.00 PKD
ROOT
HETATM    1  C   UNL     1     -10.313  14.973  67.779  1.00  0.00    -0.245 C  
HETATM    2  C   UNL     1      -9.386  16.006  67.218  1.00  0.00    -0.218 A  
HETATM    3  C   UNL     1     -10.039  17.221  66.901  1.00  0.00    -0.304 A  
HETATM    4  C   UNL     1      -9.351  18.342  66.457  1.00  0.00    -0.306 A  
HETATM    5  C   UNL     1      -7.972  18.273  66.349  1.00  0.00    -0.290 A  
HETATM    6  C   UNL     1     -10.072  19.548  66.150  1.00  0.00    -0.469 C  
HETATM    7  N   UNL     1     -10.686  20.496  65.913  1.00  0.00     0.159 NA 
HETATM    8  C   UNL     1      -7.284  17.072  66.636  1.00  0.00    -0.293 A  
HETATM    9  C   UNL     1      -7.990  15.892  67.029  1.00  0.00    -0.235 A  
HETATM   10  C   UNL     1      -5.778  17.114  66.529  1.00  0.00    -0.202 C  
ENDROOT
BRANCH   9  11
HETATM   11  O   UNL     1      -7.197  14.751  67.015  1.00  0.00    -0.127 OA 
BRANCH  11  12
HETATM   12  C   UNL     1      -7.203  13.712  67.948  1.00  0.00    -0.148 A  
HETATM   13  C   UNL     1      -6.347  13.805  69.030  1.00  0.00    -0.100 A  
HETATM   14  C   UNL     1      -6.414  12.761  69.940  1.00  0.00     0.045 A  
HETATM   15 BR   UNL     1      -5.144  15.246  69.267  1.00  0.00    -0.091 Br 
HETATM   16  N   UNL     1      -5.691  12.733  71.133  1.00  0.00    -0.489 NA 
HETATM   17  N   UNL     1      -7.242  11.716  69.789  1.00  0.00     0.201 NA 
HETATM   18  H1  UNL     1      -5.740  11.965  71.802  1.00  0.00     0.000 HD 
HETATM   19  H2  UNL     1      -5.912  13.590  71.641  1.00  0.00     0.000 HD 
HETATM   20  C   UNL     1      -7.999  11.664  68.692  1.00  0.00    -0.127 A  
HETATM   21  N   UNL     1      -7.951  12.617  67.747  1.00  0.00    -0.144 NA 
BRANCH  20  22
HETATM   22  N   UNL     1      -8.934  10.642  68.488  1.00  0.00    -0.148 NA 
HETATM   23  H   UNL     1      -8.789  10.091  67.642  1.00  0.00     0.000 HD 
BRANCH  22  24
HETATM   24  C   UNL     1     -10.041  10.254  69.262  1.00  0.00    -0.227 A  
HETATM   25  C   UNL     1     -10.228   8.948  69.727  1.00  0.00    -0.207 A  
HETATM   26  C   UNL     1     -11.330   8.606  70.519  1.00  0.00    -0.241 A  
HETATM   27  C   UNL     1     -12.283   9.565  70.858  1.00  0.00    -0.332 A  
HETATM   28  C   UNL     1     -13.392   9.217  71.702  1.00  0.00    -0.383 C  
HETATM   29  C   UNL     1     -12.133  10.867  70.376  1.00  0.00    -0.453 A  
HETATM   30  C   UNL     1     -11.030  11.203  69.575  1.00  0.00    -0.276 A  
HETATM   31  N   UNL     1     -14.281   8.931  72.390  1.00  0.00    -0.521 NA 
ENDBRANCH  22  24
ENDBRANCH  20  22
ENDBRANCH  11  12
ENDBRANCH   9  11
TORSDOF 4
ENDMDL
MODEL      146
REMARK 921   NORMALIZED FREE ENERGY PREDICTED BY IDOCK:   -4.87 KCAL/MOL
REMARK 922        TOTAL FREE ENERGY PREDICTED BY IDOCK:   -6.66 KCAL/MOL
REMARK 923 INTER-LIGAND FREE ENERGY PREDICTED BY IDOCK:   -5.73 KCAL/MOL
REMARK 924 INTRA-LIGAND FREE ENERGY PREDICTED BY IDOCK:   -0.93 KCAL/MOL
REMARK 927      BINDING AFFINITY PREDICTED BY RF-SCORE:    0.00 PKD
ROOT
HETATM    1  C   UNL     1      -6.618   6.677  66.792  1.00  0.00    -0.048 C  
HETATM    2  C   UNL     1      -6.394   8.157  66.781  1.00  0.00    -0.055 A  
HETATM    3  C   UNL     1      -6.008   8.647  65.510  1.00  0.00    -0.048 A  
HETATM    4  C   UNL     1      -5.842  10.002  65.255  1.00  0.00    -0.091 A  
HETATM    5  C   UNL     1      -6.091  10.904  66.276  1.00  0.00    -0.137 A  
HETATM    6  C   UNL     1      -5.447  10.438  63.943  1.00  0.00    -0.152 C  
HETATM    7  N   UNL     1      -5.128  10.748  62.878  1.00  0.00    -0.163 NA 
HETATM    8  C   UNL     1      -6.459  10.453  67.564  1.00  0.00    -0.058 A  
HETATM    9  C   UNL     1      -6.568   9.057  67.856  1.00  0.00    -0.060 A  
HETATM   10  C   UNL     1      -6.750  11.519  68.595  1.00  0.00    -0.072 C  
ENDROOT
BRANCH   9  11
HETATM   11  O   UNL     1      -6.677   8.790  69.215  1.00  0.00    -0.048 OA 
BRANCH  11  12
HETATM   12  C   UNL     1      -7.743   8.168  69.866  1.00  0.00    -0.098 A  
HETATM   13  C   UNL     1      -7.461   7.121  70.725  1.00  0.00    -0.080 A  
HETATM   14  C   UNL     1      -8.553   6.558  71.366  1.00  0.00    -0.126 A  
HETATM   15 BR   UNL     1      -5.706   6.472  71.009  1.00  0.00    -0.027 Br 
HETATM   16  N   UNL     1      -8.446   5.557  72.332  1.00  0.00    -0.118 NA 
HETATM   17  N   UNL     1      -9.810   6.984  71.170  1.00  0.00    -0.177 NA 
HETATM   18  H1  UNL     1      -9.250   5.143  72.804  1.00  0.00     0.000 HD 
HETATM   19  H2  UNL     1      -7.815   5.901  73.056  1.00  0.00     0.000 HD 
HETATM   20  C   UNL     1     -10.016   7.961  70.286  1.00  0.00    -0.189 A  
HETATM   21  N   UNL     1      -9.009   8.519  69.595  1.00  0.00    -0.144 NA 
BRANCH  20  22
HETATM   22  N   UNL     1     -11.288   8.506  70.069  1.00  0.00    -0.450 NA 
HETATM   23  H   UNL     1     -11.878   7.975  69.428  1.00  0.00     0.000 HD 
BRANCH  22  24
HETATM   24  C   UNL     1     -11.881   9.667  70.592  1.00  0.00    -0.256 A  
HETATM   25  C   UNL     1     -12.715   9.659  71.715  1.00  0.00    -0.510 A  
HETATM   26  C   UNL     1     -13.266  10.840  72.223  1.00  0.00    -0.173 A  
HETATM   27  C   UNL     1     -13.004  12.065  71.611  1.00  0.00    -0.439 A  
HETATM   28  C   UNL     1     -13.542  13.278  72.159  1.00  0.00    -0.562 C  
HETATM   29  C   UNL     1     -12.201  12.091  70.469  1.00  0.00    -0.414 A  
HETATM   30  C   UNL     1     -11.657  10.901  69.959  1.00  0.00    -0.424 A  
HETATM   31  N   UNL     1     -13.973  14.256  72.612  1.00  0.00    -0.610 NA 
ENDBRANCH  22  24
ENDBRANCH  20  22
ENDBRANCH  11  12
ENDBRANCH   9  11
TORSDOF 4
ENDMDL
MODEL      147
REMARK 921   NORMALIZED FREE ENERGY PREDICTED BY IDOCK:   -4.84 KCAL/MOL
REMARK 922        TOTAL FREE ENERGY PREDICTED BY IDOCK:   -6.62 KCAL/MOL
REMARK 923 INTER-LIGAND FREE ENERGY PREDICTED BY IDOCK:   -6.08 KCAL/MOL
REMARK 924 INTRA-LIGAND FREE ENERGY PREDICTED BY IDOCK:   -0.55 KCAL/MOL
REMARK 927      BINDING AFFINITY PREDICTED BY RF-SCORE:    0.00 PKD
ROOT
HETATM    1  C   UNL     1      -9.806  15.789  69.880  1.00  0.00    -0.151 C  
HETATM    2  C   UNL     1      -9.860  15.751  68.384  1.00  0.00    -0.206 A  
HETATM    3  C   UNL     1      -9.072  16.758  67.777  1.00  0.00    -0.221 A  
HETATM    4  C   UNL     1      -8.905  16.844  66.402  1.00  0.00    -0.322 A  
HETATM    5  C   UNL     1      -9.512  15.892  65.600  1.00  0.00    -0.217 A  
HETATM    6  C   UNL     1      -8.091  17.891  65.845  1.00  0.00     0.018 C  
HETATM    7  N   UNL     1      -7.433  18.746  65.436  1.00  0.00    -0.396 NA 
HETATM    8  C   UNL     1     -10.324  14.883  66.166  1.00  0.00    -0.312 A  
HETATM    9  C   UNL     1     -10.557  14.825  67.576  1.00  0.00    -0.259 A  
HETATM   10  C   UNL     1     -10.905  13.868  65.209  1.00  0.00    -0.337 C  
ENDROOT
BRANCH   9  11
HETATM   11  O   UNL     1     -11.574  13.946  67.926  1.00  0.00    -0.302 OA 
BRANCH  11  12
HETATM   12  C   UNL     1     -11.448  12.762  68.654  1.00  0.00    -0.303 A  
HETATM   13  C   UNL     1     -12.103  12.672  69.869  1.00  0.00    -0.252 A  
HETATM   14  C   UNL     1     -11.968  11.465  70.537  1.00  0.00    -0.356 A  
HETATM   15 BR   UNL     1     -13.112  14.097  70.599  1.00  0.00    -0.099 Br 
HETATM   16  N   UNL     1     -12.632  11.165  71.727  1.00  0.00    -0.261 NA 
HETATM   17  N   UNL     1     -11.243  10.444  70.054  1.00  0.00    -0.295 NA 
HETATM   18  H1  UNL     1     -12.532  10.277  72.218  1.00  0.00     0.000 HD 
HETATM   19  H2  UNL     1     -13.628  11.309  71.562  1.00  0.00     0.000 HD 
HETATM   20  C   UNL     1     -10.592  10.620  68.903  1.00  0.00    -0.212 A  
HETATM   21  N   UNL     1     -10.642  11.779  68.227  1.00  0.00    -0.203 NA 
BRANCH  20  22
HETATM   22  N   UNL     1      -9.866   9.586  68.299  1.00  0.00    -0.151 NA 
HETATM   23  H   UNL     1      -9.380   9.847  67.442  1.00  0.00     0.000 HD 
BRANCH  22  24
HETATM   24  C   UNL     1      -9.700   8.245  68.686  1.00  0.00    -0.156 A  
HETATM   25  C   UNL     1      -9.582   7.844  70.021  1.00  0.00    -0.168 A  
HETATM   26  C   UNL     1      -9.446   6.495  70.368  1.00  0.00    -0.170 A  
HETATM   27  C   UNL     1      -9.412   5.510  69.383  1.00  0.00    -0.176 A  
HETATM   28  C   UNL     1      -9.309   4.125  69.747  1.00  0.00    -0.167 C  
HETATM   29  C   UNL     1      -9.494   5.892  68.042  1.00  0.00    -0.111 A  
HETATM   30  C   UNL     1      -9.624   7.247  67.699  1.00  0.00    -0.160 A  
HETATM   31  N   UNL     1      -9.234   3.007  70.049  1.00  0.00    -0.133 NA 
ENDBRANCH  22  24
ENDBRANCH  20  22
ENDBRANCH  11  12
ENDBRANCH   9  11
TORSDOF 4
ENDMDL
MODEL      148
REMARK 921   NORMALIZED FREE ENERGY PREDICTED BY IDOCK:   -4.83 KCAL/MOL
REMARK 922        TOTAL FREE ENERGY PREDICTED BY IDOCK:   -6.61 KCAL/MOL
REMARK 923 INTER-LIGAND FREE ENERGY PREDICTED BY IDOCK:   -6.16 KCAL/MOL
REMARK 924 INTRA-LIGAND FREE ENERGY PREDICTED BY IDOCK:   -0.45 KCAL/MOL
REMARK 927      BINDING AFFINITY PREDICTED BY RF-SCORE:    0.00 PKD
ROOT
HETATM    1  C   UNL     1     -12.994  11.843  71.563  1.00  0.00    -0.427 C  
HETATM    2  C   UNL     1     -12.156  10.837  70.836  1.00  0.00    -0.475 A  
HETATM    3  C   UNL     1     -11.895   9.678  71.604  1.00  0.00    -0.457 A  
HETATM    4  C   UNL     1     -11.217   8.582  71.089  1.00  0.00    -0.317 A  
HETATM    5  C   UNL     1     -10.808   8.617  69.766  1.00  0.00    -0.185 A  
HETATM    6  C   UNL     1     -10.982   7.432  71.921  1.00  0.00    -0.233 C  
HETATM    7  N   UNL     1     -10.811   6.529  72.619  1.00  0.00    -0.236 NA 
HETATM    8  C   UNL     1     -11.032   9.765  68.972  1.00  0.00    -0.193 A  
HETATM    9  C   UNL     1     -11.669  10.925  69.513  1.00  0.00    -0.328 A  
HETATM   10  C   UNL     1     -10.586   9.686  67.530  1.00  0.00    -0.339 C  
ENDROOT
BRANCH   9  11
HETATM   11  O   UNL     1     -11.572  12.038  68.686  1.00  0.00    -0.270 OA 
BRANCH  11  12
HETATM   12  C   UNL     1     -10.436  12.814  68.451  1.00  0.00    -0.243 A  
HETATM   13  C   UNL     1     -10.439  14.123  68.898  1.00  0.00    -0.222 A  
HETATM   14  C   UNL     1      -9.276  14.840  68.665  1.00  0.00    -0.194 A  
HETATM   15 BR   UNL     1     -11.928  14.910  69.761  1.00  0.00    -0.376 Br 
HETATM   16  N   UNL     1      -9.068  16.140  69.126  1.00  0.00    -0.252 NA 
HETATM   17  N   UNL     1      -8.212  14.316  68.038  1.00  0.00    -0.141 NA 
HETATM   18  H1  UNL     1      -8.213  16.668  68.954  1.00  0.00     0.000 HD 
HETATM   19  H2  UNL     1      -9.220  16.131  70.135  1.00  0.00     0.000 HD 
HETATM   20  C   UNL     1      -8.299  13.065  67.584  1.00  0.00    -0.181 A  
HETATM   21  N   UNL     1      -9.412  12.329  67.734  1.00  0.00    -0.191 NA 
BRANCH  20  22
HETATM   22  N   UNL     1      -7.214  12.422  66.976  1.00  0.00    -0.357 NA 
HETATM   23  H   UNL     1      -6.470  13.044  66.660  1.00  0.00     0.000 HD 
BRANCH  22  24
HETATM   24  C   UNL     1      -6.986  11.057  66.730  1.00  0.00    -0.131 A  
HETATM   25  C   UNL     1      -6.661  10.144  67.739  1.00  0.00    -0.067 A  
HETATM   26  C   UNL     1      -6.468   8.786  67.460  1.00  0.00    -0.057 A  
HETATM   27  C   UNL     1      -6.585   8.308  66.155  1.00  0.00    -0.050 A  
HETATM   28  C   UNL     1      -6.423   6.908  65.881  1.00  0.00    -0.051 C  
HETATM   29  C   UNL     1      -6.876   9.209  65.129  1.00  0.00    -0.077 A  
HETATM   30  C   UNL     1      -7.061  10.571  65.414  1.00  0.00    -0.072 A  
HETATM   31  N   UNL     1      -6.299   5.774  65.667  1.00  0.00    -0.040 NA 
ENDBRANCH  22  24
ENDBRANCH  20  22
ENDBRANCH  11  12
ENDBRANCH   9  11
TORSDOF 4
ENDMDL
MODEL      149
REMARK 921   NORMALIZED FREE ENERGY PREDICTED BY IDOCK:   -4.77 KCAL/MOL
REMARK 922        TOTAL FREE ENERGY PREDICTED BY IDOCK:   -6.54 KCAL/MOL
REMARK 923 INTER-LIGAND FREE ENERGY PREDICTED BY IDOCK:   -6.07 KCAL/MOL
REMARK 924 INTRA-LIGAND FREE ENERGY PREDICTED BY IDOCK:   -0.47 KCAL/MOL
REMARK 927      BINDING AFFINITY PREDICTED BY RF-SCORE:    0.00 PKD
ROOT
HETATM    1  C   UNL     1     -10.833  13.790  67.521  1.00  0.00    -0.274 C  
HETATM    2  C   UNL     1      -9.826  14.878  67.309  1.00  0.00    -0.229 A  
HETATM    3  C   UNL     1     -10.415  16.158  67.182  1.00  0.00    -0.305 A  
HETATM    4  C   UNL     1      -9.660  17.317  67.073  1.00  0.00    -0.262 A  
HETATM    5  C   UNL     1      -8.279  17.215  67.120  1.00  0.00    -0.214 A  
HETATM    6  C   UNL     1     -10.318  18.590  66.945  1.00  0.00    -0.397 C  
HETATM    7  N   UNL     1     -10.882  19.591  66.843  1.00  0.00    -0.464 NA 
HETATM    8  C   UNL     1      -7.652  15.952  67.226  1.00  0.00    -0.236 A  
HETATM    9  C   UNL     1      -8.419  14.747  67.271  1.00  0.00    -0.214 A  
HETATM   10  C   UNL     1      -6.143  15.954  67.313  1.00  0.00    -0.086 C  
ENDROOT
BRANCH   9  11
HETATM   11  O   UNL     1      -7.649  13.602  67.110  1.00  0.00    -0.104 OA 
BRANCH  11  12
HETATM   12  C   UNL     1      -7.865  12.354  67.697  1.00  0.00    -0.163 A  
HETATM   13  C   UNL     1      -7.214  12.071  68.884  1.00  0.00    -0.089 A  
HETATM   14  C   UNL     1      -7.487  10.830  69.437  1.00  0.00    -0.124 A  
HETATM   15 BR   UNL     1      -6.014  13.279  69.709  1.00  0.00    -0.132 Br 
HETATM   16  N   UNL     1      -6.992  10.414  70.674  1.00  0.00    -0.436 NA 
HETATM   17  N   UNL     1      -8.317   9.945  68.865  1.00  0.00    -0.117 NA 
HETATM   18  H1  UNL     1      -7.192   9.501  71.081  1.00  0.00     0.000 HD 
HETATM   19  H2  UNL     1      -7.264  11.117  71.361  1.00  0.00     0.000 HD 
HETATM   20  C   UNL     1      -8.867  10.262  67.692  1.00  0.00    -0.121 A  
HETATM   21  N   UNL     1      -8.611  11.427  67.077  1.00  0.00    -0.151 NA 
BRANCH  20  22
HETATM   22  N   UNL     1      -9.793   9.422  67.060  1.00  0.00    -0.187 NA 
HETATM   23  H   UNL     1     -10.680   9.866  66.820  1.00  0.00     0.000 HD 
BRANCH  22  24
HETATM   24  C   UNL     1      -9.696   8.067  66.702  1.00  0.00    -0.243 A  
HETATM   25  C   UNL     1     -10.626   7.103  67.105  1.00  0.00    -0.417 A  
HETATM   26  C   UNL     1     -10.512   5.767  66.706  1.00  0.00    -0.350 A  
HETATM   27  C   UNL     1      -9.452   5.357  65.898  1.00  0.00    -0.138 A  
HETATM   28  C   UNL     1      -9.360   3.992  65.461  1.00  0.00    -0.159 C  
HETATM   29  C   UNL     1      -8.494   6.297  65.512  1.00  0.00    -0.145 A  
HETATM   30  C   UNL     1      -8.611   7.635  65.922  1.00  0.00    -0.164 A  
HETATM   31  N   UNL     1      -9.296   2.890  65.105  1.00  0.00    -0.147 NA 
ENDBRANCH  22  24
ENDBRANCH  20  22
ENDBRANCH  11  12
ENDBRANCH   9  11
TORSDOF 4
ENDMDL
MODEL      150
REMARK 921   NORMALIZED FREE ENERGY PREDICTED BY IDOCK:   -4.76 KCAL/MOL
REMARK 922        TOTAL FREE ENERGY PREDICTED BY IDOCK:   -6.53 KCAL/MOL
REMARK 923 INTER-LIGAND FREE ENERGY PREDICTED BY IDOCK:   -6.28 KCAL/MOL
REMARK 924 INTRA-LIGAND FREE ENERGY PREDICTED BY IDOCK:   -0.25 KCAL/MOL
REMARK 927      BINDING AFFINITY PREDICTED BY RF-SCORE:    0.00 PKD
ROOT
HETATM    1  C   UNL     1      -9.783   8.675  67.866  1.00  0.00    -0.192 C  
HETATM    2  C   UNL     1      -9.101   7.785  66.874  1.00  0.00    -0.171 A  
HETATM    3  C   UNL     1      -9.234   6.410  67.183  1.00  0.00    -0.128 A  
HETATM    4  C   UNL     1      -8.759   5.410  66.346  1.00  0.00    -0.121 A  
HETATM    5  C   UNL     1      -8.158   5.776  65.152  1.00  0.00    -0.133 A  
HETATM    6  C   UNL     1      -8.924   4.030  66.715  1.00  0.00    -0.131 C  
HETATM    7  N   UNL     1      -9.073   2.936  67.047  1.00  0.00    -0.162 NA 
HETATM    8  C   UNL     1      -7.988   7.138  64.817  1.00  0.00    -0.122 A  
HETATM    9  C   UNL     1      -8.413   8.177  65.703  1.00  0.00    -0.156 A  
HETATM   10  C   UNL     1      -7.360   7.430  63.473  1.00  0.00    -0.087 C  
ENDROOT
BRANCH   9  11
HETATM   11  O   UNL     1      -7.938   9.432  65.344  1.00  0.00    -0.101 OA 
BRANCH  11  12
HETATM   12  C   UNL     1      -8.661  10.625  65.305  1.00  0.00    -0.169 A  
HETATM   13  C   UNL     1      -9.318  10.950  64.132  1.00  0.00    -0.234 A  
HETATM   14  C   UNL     1     -10.043  12.131  64.157  1.00  0.00    -0.308 A  
HETATM   15 BR   UNL     1      -9.233   9.876  62.576  1.00  0.00    -0.270 Br 
HETATM   16  N   UNL     1     -10.839  12.567  63.097  1.00  0.00    -0.650 NA 
HETATM   17  N   UNL     1     -10.106  12.923  65.238  1.00  0.00    -0.269 NA 
HETATM   18  H1  UNL     1     -11.372  13.436  63.115  1.00  0.00     0.000 HD 
HETATM   19  H2  UNL     1     -11.493  11.815  62.880  1.00  0.00     0.000 HD 
HETATM   20  C   UNL     1      -9.402  12.576  66.316  1.00  0.00    -0.177 A  
HETATM   21  N   UNL     1      -8.641  11.471  66.345  1.00  0.00    -0.177 NA 
BRANCH  20  22
HETATM   22  N   UNL     1      -9.462  13.313  67.506  1.00  0.00    -0.212 NA 
HETATM   23  H   UNL     1      -9.350  12.763  68.357  1.00  0.00     0.000 HD 
BRANCH  22  24
HETATM   24  C   UNL     1      -9.653  14.690  67.714  1.00  0.00    -0.213 A  
HETATM   25  C   UNL     1     -10.895  15.249  68.034  1.00  0.00    -0.288 A  
HETATM   26  C   UNL     1     -11.041  16.622  68.262  1.00  0.00    -0.295 A  
HETATM   27  C   UNL     1      -9.943  17.476  68.165  1.00  0.00    -0.321 A  
HETATM   28  C   UNL     1     -10.092  18.878  68.436  1.00  0.00    -0.392 C  
HETATM   29  C   UNL     1      -8.701  16.943  67.814  1.00  0.00    -0.212 A  
HETATM   30  C   UNL     1      -8.563  15.566  67.579  1.00  0.00    -0.184 A  
HETATM   31  N   UNL     1     -10.216  20.009  68.665  1.00  0.00    -0.408 NA 
ENDBRANCH  22  24
ENDBRANCH  20  22
ENDBRANCH  11  12
ENDBRANCH   9  11
TORSDOF 4
ENDMDL
MODEL      151
REMARK 921   NORMALIZED FREE ENERGY PREDICTED BY IDOCK:   -4.75 KCAL/MOL
REMARK 922        TOTAL FREE ENERGY PREDICTED BY IDOCK:   -6.52 KCAL/MOL
REMARK 923 INTER-LIGAND FREE ENERGY PREDICTED BY IDOCK:   -7.09 KCAL/MOL
REMARK 924 INTRA-LIGAND FREE ENERGY PREDICTED BY IDOCK:    0.57 KCAL/MOL
REMARK 927      BINDING AFFINITY PREDICTED BY RF-SCORE:    0.00 PKD
ROOT
HETATM    1  C   UNL     1     -11.788   6.747  70.834  1.00  0.00    -0.438 C  
HETATM    2  C   UNL     1     -10.979   6.704  69.575  1.00  0.00    -0.367 A  
HETATM    3  C   UNL     1     -10.515   5.404  69.262  1.00  0.00    -0.309 A  
HETATM    4  C   UNL     1      -9.826   5.123  68.090  1.00  0.00    -0.204 A  
HETATM    5  C   UNL     1      -9.613   6.148  67.183  1.00  0.00    -0.139 A  
HETATM    6  C   UNL     1      -9.379   3.781  67.828  1.00  0.00    -0.189 C  
HETATM    7  N   UNL     1      -9.035   2.693  67.656  1.00  0.00    -0.145 NA 
HETATM    8  C   UNL     1     -10.044   7.464  67.468  1.00  0.00    -0.250 A  
HETATM    9  C   UNL     1     -10.694   7.779  68.703  1.00  0.00    -0.047 A  
HETATM   10  C   UNL     1      -9.802   8.501  66.396  1.00  0.00    -0.327 C  
ENDROOT
BRANCH   9  11
HETATM   11  O   UNL     1     -10.810   9.145  68.927  1.00  0.00    -0.178 OA 
BRANCH  11  12
HETATM   12  C   UNL     1      -9.811  10.109  68.778  1.00  0.00    -0.175 A  
HETATM   13  C   UNL     1      -8.749  10.087  69.664  1.00  0.00    -0.194 A  
HETATM   14  C   UNL     1      -7.772  11.048  69.453  1.00  0.00    -0.020 A  
HETATM   15 BR   UNL     1      -8.624   8.847  71.087  1.00  0.00    -0.255 Br 
HETATM   16  N   UNL     1      -6.590  11.117  70.190  1.00  0.00    -0.353 NA 
HETATM   17  N   UNL     1      -7.843  11.953  68.465  1.00  0.00    -0.139 NA 
HETATM   18  H1  UNL     1      -5.871  11.824  70.036  1.00  0.00     0.000 HD 
HETATM   19  H2  UNL     1      -6.137  10.206  70.122  1.00  0.00     0.000 HD 
HETATM   20  C   UNL     1      -8.923  11.951  67.683  1.00  0.00    -0.169 A  
HETATM   21  N   UNL     1      -9.929  11.079  67.860  1.00  0.00    -0.171 NA 
BRANCH  20  22
HETATM   22  N   UNL     1      -9.047  12.819  66.591  1.00  0.00    -0.322 NA 
HETATM   23  H   UNL     1      -8.856  12.396  65.683  1.00  0.00     0.000 HD 
BRANCH  22  24
HETATM   24  C   UNL     1      -9.391  14.181  66.546  1.00  0.00    -0.265 A  
HETATM   25  C   UNL     1      -8.992  15.102  67.521  1.00  0.00    -0.187 A  
HETATM   26  C   UNL     1      -9.331  16.456  67.427  1.00  0.00    -0.223 A  
HETATM   27  C   UNL     1     -10.090  16.924  66.355  1.00  0.00    -0.331 A  
HETATM   28  C   UNL     1     -10.403  18.321  66.245  1.00  0.00    -0.405 C  
HETATM   29  C   UNL     1     -10.527  16.015  65.389  1.00  0.00    -0.415 A  
HETATM   30  C   UNL     1     -10.190  14.656  65.492  1.00  0.00    -0.395 A  
HETATM   31  N   UNL     1     -10.646  19.452  66.158  1.00  0.00    -0.480 NA 
ENDBRANCH  22  24
ENDBRANCH  20  22
ENDBRANCH  11  12
ENDBRANCH   9  11
TORSDOF 4
ENDMDL
MODEL      152
REMARK 921   NORMALIZED FREE ENERGY PREDICTED BY IDOCK:   -4.74 KCAL/MOL
REMARK 922        TOTAL FREE ENERGY PREDICTED BY IDOCK:   -6.50 KCAL/MOL
REMARK 923 INTER-LIGAND FREE ENERGY PREDICTED BY IDOCK:   -6.20 KCAL/MOL
REMARK 924 INTRA-LIGAND FREE ENERGY PREDICTED BY IDOCK:   -0.30 KCAL/MOL
REMARK 927      BINDING AFFINITY PREDICTED BY RF-SCORE:    0.00 PKD
ROOT
HETATM    1  C   UNL     1     -12.889  11.898  71.185  1.00  0.00    -0.346 C  
HETATM    2  C   UNL     1     -12.009  10.885  70.521  1.00  0.00    -0.466 A  
HETATM    3  C   UNL     1     -11.616   9.840  71.391  1.00  0.00    -0.452 A  
HETATM    4  C   UNL     1     -10.877   8.748  70.956  1.00  0.00    -0.321 A  
HETATM    5  C   UNL     1     -10.540   8.668  69.615  1.00  0.00    -0.219 A  
HETATM    6  C   UNL     1     -10.508   7.718  71.890  1.00  0.00    -0.220 C  
HETATM    7  N   UNL     1     -10.229   6.914  72.668  1.00  0.00    -0.182 NA 
HETATM    8  C   UNL     1     -10.896   9.701  68.718  1.00  0.00    -0.199 A  
HETATM    9  C   UNL     1     -11.598  10.862  69.169  1.00  0.00    -0.319 A  
HETATM   10  C   UNL     1     -10.519   9.497  67.269  1.00  0.00    -0.328 C  
ENDROOT
BRANCH   9  11
HETATM   11  O   UNL     1     -11.634  11.881  68.224  1.00  0.00    -0.284 OA 
BRANCH  11  12
HETATM   12  C   UNL     1     -10.561  12.660  67.787  1.00  0.00    -0.220 A  
HETATM   13  C   UNL     1     -10.811  13.643  66.847  1.00  0.00    -0.283 A  
HETATM   14  C   UNL     1      -9.717  14.405  66.469  1.00  0.00    -0.290 A  
HETATM   15 BR   UNL     1     -12.525  13.936  66.100  1.00  0.00    -0.422 Br 
HETATM   16  N   UNL     1      -9.801  15.496  65.603  1.00  0.00    -0.346 NA 
HETATM   17  N   UNL     1      -8.486  14.207  66.966  1.00  0.00    -0.192 NA 
HETATM   18  H1  UNL     1      -8.996  16.056  65.325  1.00  0.00     0.000 HD 
HETATM   19  H2  UNL     1     -10.496  16.135  65.989  1.00  0.00     0.000 HD 
HETATM   20  C   UNL     1      -8.307  13.205  67.827  1.00  0.00    -0.171 A  
HETATM   21  N   UNL     1      -9.313  12.398  68.201  1.00  0.00    -0.206 NA 
BRANCH  20  22
HETATM   22  N   UNL     1      -7.070  12.970  68.440  1.00  0.00    -0.095 NA 
HETATM   23  H   UNL     1      -6.346  13.654  68.220  1.00  0.00     0.000 HD 
BRANCH  22  24
HETATM   24  C   UNL     1      -6.665  11.944  69.310  1.00  0.00    -0.099 A  
HETATM   25  C   UNL     1      -5.766  12.144  70.363  1.00  0.00    -0.169 A  
HETATM   26  C   UNL     1      -5.409  11.103  71.226  1.00  0.00    -0.022 A  
HETATM   27  C   UNL     1      -5.936   9.824  71.050  1.00  0.00    -0.079 A  
HETATM   28  C   UNL     1      -5.594   8.768  71.961  1.00  0.00    -0.056 C  
HETATM   29  C   UNL     1      -6.810   9.595  69.985  1.00  0.00    -0.085 A  
HETATM   30  C   UNL     1      -7.159  10.642  69.118  1.00  0.00    -0.095 A  
HETATM   31  N   UNL     1      -5.320   7.922  72.706  1.00  0.00    -0.036 NA 
ENDBRANCH  22  24
ENDBRANCH  20  22
ENDBRANCH  11  12
ENDBRANCH   9  11
TORSDOF 4
ENDMDL
MODEL      153
REMARK 921   NORMALIZED FREE ENERGY PREDICTED BY IDOCK:   -4.73 KCAL/MOL
REMARK 922        TOTAL FREE ENERGY PREDICTED BY IDOCK:   -6.49 KCAL/MOL
REMARK 923 INTER-LIGAND FREE ENERGY PREDICTED BY IDOCK:   -5.49 KCAL/MOL
REMARK 924 INTRA-LIGAND FREE ENERGY PREDICTED BY IDOCK:   -1.00 KCAL/MOL
REMARK 927      BINDING AFFINITY PREDICTED BY RF-SCORE:    0.00 PKD
ROOT
HETATM    1  C   UNL     1      -8.533   5.689  68.558  1.00  0.00    -0.105 C  
HETATM    2  C   UNL     1      -8.310   6.717  69.623  1.00  0.00    -0.132 A  
HETATM    3  C   UNL     1      -8.748   6.292  70.900  1.00  0.00    -0.136 A  
HETATM    4  C   UNL     1      -8.551   7.052  72.045  1.00  0.00    -0.123 A  
HETATM    5  C   UNL     1      -7.875   8.256  71.933  1.00  0.00    -0.158 A  
HETATM    6  C   UNL     1      -9.021   6.566  73.314  1.00  0.00    -0.127 C  
HETATM    7  N   UNL     1      -9.414   6.144  74.314  1.00  0.00    -0.162 NA 
HETATM    8  C   UNL     1      -7.439   8.724  70.672  1.00  0.00    -0.079 A  
HETATM    9  C   UNL     1      -7.696   7.982  69.478  1.00  0.00    -0.103 A  
HETATM   10  C   UNL     1      -6.673  10.027  70.665  1.00  0.00    -0.074 C  
ENDROOT
BRANCH   9  11
HETATM   11  O   UNL     1      -7.437   8.703  68.319  1.00  0.00    -0.092 OA 
BRANCH  11  12
HETATM   12  C   UNL     1      -8.354   9.066  67.332  1.00  0.00    -0.112 A  
HETATM   13  C   UNL     1      -8.112   8.651  66.035  1.00  0.00    -0.109 A  
HETATM   14  C   UNL     1      -9.069   9.014  65.099  1.00  0.00    -0.143 A  
HETATM   15 BR   UNL     1      -6.574   7.665  65.542  1.00  0.00    -0.045 Br 
HETATM   16  N   UNL     1      -9.035   8.606  63.766  1.00  0.00    -0.303 NA 
HETATM   17  N   UNL     1     -10.160   9.730  65.415  1.00  0.00    -0.244 NA 
HETATM   18  H1  UNL     1      -9.738   8.873  63.078  1.00  0.00     0.000 HD 
HETATM   19  H2  UNL     1      -8.980   7.587  63.762  1.00  0.00     0.000 HD 
HETATM   20  C   UNL     1     -10.300  10.144  66.675  1.00  0.00    -0.208 A  
HETATM   21  N   UNL     1      -9.389   9.868  67.621  1.00  0.00    -0.140 NA 
BRANCH  20  22
HETATM   22  N   UNL     1     -11.439  10.840  67.100  1.00  0.00    -0.363 NA 
HETATM   23  H   UNL     1     -12.201  10.870  66.423  1.00  0.00     0.000 HD 
BRANCH  22  24
HETATM   24  C   UNL     1     -11.699  11.505  68.311  1.00  0.00    -0.301 A  
HETATM   25  C   UNL     1     -11.626  12.895  68.449  1.00  0.00    -0.369 A  
HETATM   26  C   UNL     1     -11.920  13.524  69.664  1.00  0.00    -0.397 A  
HETATM   27  C   UNL     1     -12.284  12.772  70.781  1.00  0.00    -0.338 A  
HETATM   28  C   UNL     1     -12.620  13.425  72.015  1.00  0.00    -0.023 C  
HETATM   29  C   UNL     1     -12.330  11.381  70.673  1.00  0.00    -0.466 A  
HETATM   30  C   UNL     1     -12.028  10.755  69.453  1.00  0.00    -0.353 A  
HETATM   31  N   UNL     1     -12.898  13.960  73.007  1.00  0.00    -0.283 NA 
ENDBRANCH  22  24
ENDBRANCH  20  22
ENDBRANCH  11  12
ENDBRANCH   9  11
TORSDOF 4
ENDMDL
MODEL      154
REMARK 921   NORMALIZED FREE ENERGY PREDICTED BY IDOCK:   -4.73 KCAL/MOL
REMARK 922        TOTAL FREE ENERGY PREDICTED BY IDOCK:   -6.49 KCAL/MOL
REMARK 923 INTER-LIGAND FREE ENERGY PREDICTED BY IDOCK:   -5.97 KCAL/MOL
REMARK 924 INTRA-LIGAND FREE ENERGY PREDICTED BY IDOCK:   -0.52 KCAL/MOL
REMARK 927      BINDING AFFINITY PREDICTED BY RF-SCORE:    0.00 PKD
ROOT
HETATM    1  C   UNL     1      -8.095   4.692  69.710  1.00  0.00    -0.068 C  
HETATM    2  C   UNL     1      -7.737   5.733  68.696  1.00  0.00    -0.090 A  
HETATM    3  C   UNL     1      -7.196   5.184  67.509  1.00  0.00    -0.071 A  
HETATM    4  C   UNL     1      -6.885   5.964  66.403  1.00  0.00    -0.059 A  
HETATM    5  C   UNL     1      -7.141   7.324  66.458  1.00  0.00    -0.078 A  
HETATM    6  C   UNL     1      -6.336   5.347  65.226  1.00  0.00    -0.035 C  
HETATM    7  N   UNL     1      -5.897   4.816  64.300  1.00  0.00    -0.017 NA 
HETATM    8  C   UNL     1      -7.662   7.914  67.633  1.00  0.00    -0.117 A  
HETATM    9  C   UNL     1      -7.923   7.130  68.800  1.00  0.00    -0.123 A  
HETATM   10  C   UNL     1      -7.945   9.397  67.575  1.00  0.00    -0.102 C  
ENDROOT
BRANCH   9  11
HETATM   11  O   UNL     1      -8.177   7.899  69.929  1.00  0.00    -0.117 OA 
BRANCH  11  12
HETATM   12  C   UNL     1      -9.416   8.126  70.531  1.00  0.00    -0.163 A  
HETATM   13  C   UNL     1      -9.685   7.487  71.727  1.00  0.00    -0.160 A  
HETATM   14  C   UNL     1     -10.918   7.769  72.295  1.00  0.00    -0.290 A  
HETATM   15 BR   UNL     1      -8.471   6.289  72.547  1.00  0.00    -0.119 Br 
HETATM   16  N   UNL     1     -11.319   7.287  73.542  1.00  0.00    -0.539 NA 
HETATM   17  N   UNL     1     -11.807   8.598  71.728  1.00  0.00    -0.313 NA 
HETATM   18  H1  UNL     1     -12.226   7.493  73.959  1.00  0.00     0.000 HD 
HETATM   19  H2  UNL     1     -10.605   7.562  74.217  1.00  0.00     0.000 HD 
HETATM   20  C   UNL     1     -11.504   9.136  70.546  1.00  0.00    -0.229 A  
HETATM   21  N   UNL     1     -10.348   8.869  69.917  1.00  0.00    -0.200 NA 
BRANCH  20  22
HETATM   22  N   UNL     1     -12.348  10.059  69.916  1.00  0.00    -0.489 NA 
HETATM   23  H   UNL     1     -13.345   9.866  70.015  1.00  0.00     0.000 HD 
BRANCH  22  24
HETATM   24  C   UNL     1     -12.042  11.210  69.170  1.00  0.00    -0.283 A  
HETATM   25  C   UNL     1     -12.153  12.506  69.684  1.00  0.00    -0.272 A  
HETATM   26  C   UNL     1     -11.812  13.626  68.919  1.00  0.00    -0.402 A  
HETATM   27  C   UNL     1     -11.360  13.478  67.608  1.00  0.00    -0.326 A  
HETATM   28  C   UNL     1     -10.977  14.630  66.841  1.00  0.00    -0.324 C  
HETATM   29  C   UNL     1     -11.275  12.195  67.064  1.00  0.00    -0.370 A  
HETATM   30  C   UNL     1     -11.625  11.075  67.835  1.00  0.00    -0.306 A  
HETATM   31  N   UNL     1     -10.662  15.563  66.228  1.00  0.00    -0.310 NA 
ENDBRANCH  22  24
ENDBRANCH  20  22
ENDBRANCH  11  12
ENDBRANCH   9  11
TORSDOF 4
ENDMDL
MODEL      155
REMARK 921   NORMALIZED FREE ENERGY PREDICTED BY IDOCK:   -4.67 KCAL/MOL
REMARK 922        TOTAL FREE ENERGY PREDICTED BY IDOCK:   -6.42 KCAL/MOL
REMARK 923 INTER-LIGAND FREE ENERGY PREDICTED BY IDOCK:   -5.92 KCAL/MOL
REMARK 924 INTRA-LIGAND FREE ENERGY PREDICTED BY IDOCK:   -0.50 KCAL/MOL
REMARK 927      BINDING AFFINITY PREDICTED BY RF-SCORE:    0.00 PKD
ROOT
HETATM    1  C   UNL     1      -9.686   8.696  67.928  1.00  0.00    -0.192 C  
HETATM    2  C   UNL     1      -8.842   8.027  66.887  1.00  0.00    -0.146 A  
HETATM    3  C   UNL     1      -8.849   6.616  66.994  1.00  0.00    -0.114 A  
HETATM    4  C   UNL     1      -8.209   5.798  66.074  1.00  0.00    -0.114 A  
HETATM    5  C   UNL     1      -7.566   6.387  64.997  1.00  0.00    -0.091 A  
HETATM    6  C   UNL     1      -8.252   4.369  66.237  1.00  0.00    -0.102 C  
HETATM    7  N   UNL     1      -8.307   3.229  66.403  1.00  0.00    -0.097 NA 
HETATM    8  C   UNL     1      -7.520   7.794  64.866  1.00  0.00    -0.094 A  
HETATM    9  C   UNL     1      -8.118   8.648  65.845  1.00  0.00    -0.111 A  
HETATM   10  C   UNL     1      -6.831   8.334  63.634  1.00  0.00    -0.080 C  
ENDROOT
BRANCH   9  11
HETATM   11  O   UNL     1      -7.755   9.981  65.701  1.00  0.00    -0.123 OA 
BRANCH  11  12
HETATM   12  C   UNL     1      -8.573  11.098  65.877  1.00  0.00    -0.135 A  
HETATM   13  C   UNL     1      -9.431  11.445  64.850  1.00  0.00    -0.171 A  
HETATM   14  C   UNL     1     -10.241  12.545  65.089  1.00  0.00    -0.279 A  
HETATM   15 BR   UNL     1      -9.503  10.503  63.211  1.00  0.00    -0.383 Br 
HETATM   16  N   UNL     1     -11.228  12.980  64.204  1.00  0.00    -0.379 NA 
HETATM   17  N   UNL     1     -10.199  13.245  66.233  1.00  0.00    -0.289 NA 
HETATM   18  H1  UNL     1     -11.823  13.789  64.379  1.00  0.00     0.000 HD 
HETATM   19  H2  UNL     1     -11.843  12.186  64.022  1.00  0.00     0.000 HD 
HETATM   20  C   UNL     1      -9.306  12.888  67.158  1.00  0.00    -0.229 A  
HETATM   21  N   UNL     1      -8.460  11.862  66.974  1.00  0.00    -0.173 NA 
BRANCH  20  22
HETATM   22  N   UNL     1      -9.240  13.525  68.404  1.00  0.00    -0.272 NA 
HETATM   23  H   UNL     1      -8.295  13.679  68.757  1.00  0.00     0.000 HD 
BRANCH  22  24
HETATM   24  C   UNL     1     -10.266  13.987  69.245  1.00  0.00     0.090 A  
HETATM   25  C   UNL     1     -11.244  13.148  69.788  1.00  0.00    -0.017 A  
HETATM   26  C   UNL     1     -12.235  13.640  70.645  1.00  0.00    -0.434 A  
HETATM   27  C   UNL     1     -12.278  14.994  70.974  1.00  0.00    -0.386 A  
HETATM   28  C   UNL     1     -13.274  15.487  71.883  1.00  0.00    -0.464 C  
HETATM   29  C   UNL     1     -11.331  15.855  70.416  1.00  0.00    -0.399 A  
HETATM   30  C   UNL     1     -10.344  15.357  69.551  1.00  0.00    -0.269 A  
HETATM   31  N   UNL     1     -14.076  15.877  72.625  1.00  0.00    -0.464 NA 
ENDBRANCH  22  24
ENDBRANCH  20  22
ENDBRANCH  11  12
ENDBRANCH   9  11
TORSDOF 4
ENDMDL
MODEL      156
REMARK 921   NORMALIZED FREE ENERGY PREDICTED BY IDOCK:   -4.67 KCAL/MOL
REMARK 922        TOTAL FREE ENERGY PREDICTED BY IDOCK:   -6.41 KCAL/MOL
REMARK 923 INTER-LIGAND FREE ENERGY PREDICTED BY IDOCK:   -6.48 KCAL/MOL
REMARK 924 INTRA-LIGAND FREE ENERGY PREDICTED BY IDOCK:    0.07 KCAL/MOL
REMARK 927      BINDING AFFINITY PREDICTED BY RF-SCORE:    0.00 PKD
ROOT
HETATM    1  C   UNL     1     -10.046   4.805  71.499  1.00  0.00    -0.260 C  
HETATM    2  C   UNL     1      -9.971   5.011  70.018  1.00  0.00    -0.324 A  
HETATM    3  C   UNL     1      -9.675   3.822  69.310  1.00  0.00    -0.120 A  
HETATM    4  C   UNL     1      -9.652   3.769  67.923  1.00  0.00    -0.187 A  
HETATM    5  C   UNL     1      -9.958   4.917  67.210  1.00  0.00    -0.220 A  
HETATM    6  C   UNL     1      -9.343   2.530  67.260  1.00  0.00    -0.078 C  
HETATM    7  N   UNL     1      -9.090   1.519  66.766  1.00  0.00    -0.096 NA 
HETATM    8  C   UNL     1     -10.240   6.129  67.881  1.00  0.00    -0.212 A  
HETATM    9  C   UNL     1     -10.200   6.211  69.308  1.00  0.00    -0.201 A  
HETATM   10  C   UNL     1     -10.604   7.312  67.013  1.00  0.00    -0.415 C  
ENDROOT
BRANCH   9  11
HETATM   11  O   UNL     1     -10.240   7.517  69.782  1.00  0.00    -0.201 OA 
BRANCH  11  12
HETATM   12  C   UNL     1      -9.207   8.455  69.751  1.00  0.00    -0.157 A  
HETATM   13  C   UNL     1      -8.385   8.554  70.858  1.00  0.00    -0.146 A  
HETATM   14  C   UNL     1      -7.358   9.480  70.764  1.00  0.00    -0.084 A  
HETATM   15 BR   UNL     1      -8.635   7.513  72.419  1.00  0.00    -0.166 Br 
HETATM   16  N   UNL     1      -6.381   9.649  71.745  1.00  0.00    -0.302 NA 
HETATM   17  N   UNL     1      -7.167  10.246  69.678  1.00  0.00    -0.123 NA 
HETATM   18  H1  UNL     1      -5.626  10.331  71.676  1.00  0.00     0.000 HD 
HETATM   19  H2  UNL     1      -5.952   8.738  71.905  1.00  0.00     0.000 HD 
HETATM   20  C   UNL     1      -8.032  10.137  68.669  1.00  0.00    -0.103 A  
HETATM   21  N   UNL     1      -9.076   9.294  68.713  1.00  0.00    -0.135 NA 
BRANCH  20  22
HETATM   22  N   UNL     1      -7.869  10.853  67.476  1.00  0.00    -0.112 NA 
HETATM   23  H   UNL     1      -6.903  10.960  67.169  1.00  0.00     0.000 HD 
BRANCH  22  24
HETATM   24  C   UNL     1      -8.824  11.448  66.634  1.00  0.00    -0.183 A  
HETATM   25  C   UNL     1      -9.297  10.841  65.466  1.00  0.00    -0.242 A  
HETATM   26  C   UNL     1     -10.269  11.452  64.668  1.00  0.00    -0.347 A  
HETATM   27  C   UNL     1     -10.789  12.699  65.014  1.00  0.00    -0.321 A  
HETATM   28  C   UNL     1     -11.813  13.304  64.210  1.00  0.00    -0.417 C  
HETATM   29  C   UNL     1     -10.306  13.337  66.158  1.00  0.00    -0.290 A  
HETATM   30  C   UNL     1      -9.325  12.722  66.951  1.00  0.00    -0.234 A  
HETATM   31  N   UNL     1     -12.647  13.785  63.561  1.00  0.00    -0.808 NA 
ENDBRANCH  22  24
ENDBRANCH  20  22
ENDBRANCH  11  12
ENDBRANCH   9  11
TORSDOF 4
ENDMDL
MODEL      157
REMARK 921   NORMALIZED FREE ENERGY PREDICTED BY IDOCK:   -4.64 KCAL/MOL
REMARK 922        TOTAL FREE ENERGY PREDICTED BY IDOCK:   -6.38 KCAL/MOL
REMARK 923 INTER-LIGAND FREE ENERGY PREDICTED BY IDOCK:   -6.24 KCAL/MOL
REMARK 924 INTRA-LIGAND FREE ENERGY PREDICTED BY IDOCK:   -0.14 KCAL/MOL
REMARK 927      BINDING AFFINITY PREDICTED BY RF-SCORE:    0.00 PKD
ROOT
HETATM    1  C   UNL     1     -10.629   9.878  68.779  1.00  0.00    -0.246 C  
HETATM    2  C   UNL     1      -9.331   9.592  69.469  1.00  0.00    -0.199 A  
HETATM    3  C   UNL     1      -9.501   9.084  70.779  1.00  0.00    -0.308 A  
HETATM    4  C   UNL     1      -8.433   8.665  71.559  1.00  0.00    -0.238 A  
HETATM    5  C   UNL     1      -7.157   8.720  71.021  1.00  0.00    -0.084 A  
HETATM    6  C   UNL     1      -8.671   8.159  72.884  1.00  0.00    -0.224 C  
HETATM    7  N   UNL     1      -8.902   7.761  73.942  1.00  0.00    -0.263 NA 
HETATM    8  C   UNL     1      -6.943   9.240  69.724  1.00  0.00    -0.058 A  
HETATM    9  C   UNL     1      -8.029   9.737  68.938  1.00  0.00    -0.092 A  
HETATM   10  C   UNL     1      -5.521   9.216  69.214  1.00  0.00    -0.036 C  
ENDROOT
BRANCH   9  11
HETATM   11  O   UNL     1      -7.613  10.442  67.815  1.00  0.00    -0.088 OA 
BRANCH  11  12
HETATM   12  C   UNL     1      -8.265  10.521  66.583  1.00  0.00    -0.129 A  
HETATM   13  C   UNL     1      -7.997   9.544  65.641  1.00  0.00    -0.108 A  
HETATM   14  C   UNL     1      -8.691   9.655  64.447  1.00  0.00    -0.205 A  
HETATM   15 BR   UNL     1      -6.754   8.148  65.936  1.00  0.00    -0.049 Br 
HETATM   16  N   UNL     1      -8.615   8.710  63.422  1.00  0.00    -0.417 NA 
HETATM   17  N   UNL     1      -9.564  10.644  64.201  1.00  0.00    -0.272 NA 
HETATM   18  H1  UNL     1      -9.125   8.791  62.543  1.00  0.00     0.000 HD 
HETATM   19  H2  UNL     1      -8.852   7.804  63.827  1.00  0.00     0.000 HD 
HETATM   20  C   UNL     1      -9.732  11.583  65.133  1.00  0.00    -0.237 A  
HETATM   21  N   UNL     1      -9.056  11.564  66.294  1.00  0.00    -0.205 NA 
BRANCH  20  22
HETATM   22  N   UNL     1     -10.668  12.614  64.983  1.00  0.00    -0.284 NA 
HETATM   23  H   UNL     1     -11.590  12.313  64.669  1.00  0.00     0.000 HD 
BRANCH  22  24
HETATM   24  C   UNL     1     -10.540  13.997  65.194  1.00  0.00    -0.386 A  
HETATM   25  C   UNL     1     -11.450  14.934  64.693  1.00  0.00    -0.380 A  
HETATM   26  C   UNL     1     -11.305  16.302  64.949  1.00  0.00    -0.161 A  
HETATM   27  C   UNL     1     -10.233  16.771  65.707  1.00  0.00    -0.311 A  
HETATM   28  C   UNL     1     -10.109  18.172  65.997  1.00  0.00    -0.268 C  
HETATM   29  C   UNL     1      -9.294  15.856  66.189  1.00  0.00    -0.385 A  
HETATM   30  C   UNL     1      -9.441  14.485  65.923  1.00  0.00    -0.219 A  
HETATM   31  N   UNL     1     -10.020  19.304  66.234  1.00  0.00    -0.388 NA 
ENDBRANCH  22  24
ENDBRANCH  20  22
ENDBRANCH  11  12
ENDBRANCH   9  11
TORSDOF 4
ENDMDL
MODEL      158
REMARK 921   NORMALIZED FREE ENERGY PREDICTED BY IDOCK:   -4.64 KCAL/MOL
REMARK 922        TOTAL FREE ENERGY PREDICTED BY IDOCK:   -6.38 KCAL/MOL
REMARK 923 INTER-LIGAND FREE ENERGY PREDICTED BY IDOCK:   -6.15 KCAL/MOL
REMARK 924 INTRA-LIGAND FREE ENERGY PREDICTED BY IDOCK:   -0.23 KCAL/MOL
REMARK 927      BINDING AFFINITY PREDICTED BY RF-SCORE:    0.00 PKD
ROOT
HETATM    1  C   UNL     1      -9.179  14.928  67.353  1.00  0.00    -0.198 C  
HETATM    2  C   UNL     1      -8.361  16.111  67.769  1.00  0.00    -0.162 A  
HETATM    3  C   UNL     1      -9.050  17.338  67.621  1.00  0.00    -0.228 A  
HETATM    4  C   UNL     1      -8.511  18.548  68.035  1.00  0.00    -0.302 A  
HETATM    5  C   UNL     1      -7.265  18.546  68.640  1.00  0.00    -0.306 A  
HETATM    6  C   UNL     1      -9.260  19.763  67.856  1.00  0.00    -0.340 C  
HETATM    7  N   UNL     1      -9.891  20.715  67.695  1.00  0.00    -0.368 NA 
HETATM    8  C   UNL     1      -6.536  17.344  68.788  1.00  0.00    -0.201 A  
HETATM    9  C   UNL     1      -7.053  16.102  68.304  1.00  0.00    -0.128 A  
HETATM   10  C   UNL     1      -5.207  17.443  69.500  1.00  0.00    -0.172 C  
ENDROOT
BRANCH   9  11
HETATM   11  O   UNL     1      -6.108  15.083  68.294  1.00  0.00    -0.101 OA 
BRANCH  11  12
HETATM   12  C   UNL     1      -6.352  13.710  68.350  1.00  0.00    -0.098 A  
HETATM   13  C   UNL     1      -6.203  13.072  69.568  1.00  0.00    -0.117 A  
HETATM   14  C   UNL     1      -6.484  11.714  69.574  1.00  0.00    -0.122 A  
HETATM   15 BR   UNL     1      -5.637  13.970  71.135  1.00  0.00    -0.224 Br 
HETATM   16  N   UNL     1      -6.476  10.932  70.729  1.00  0.00    -0.450 NA 
HETATM   17  N   UNL     1      -6.868  11.047  68.475  1.00  0.00    -0.061 NA 
HETATM   18  H1  UNL     1      -6.683   9.933  70.733  1.00  0.00     0.000 HD 
HETATM   19  H2  UNL     1      -7.106  11.374  71.398  1.00  0.00     0.000 HD 
HETATM   20  C   UNL     1      -6.936  11.714  67.322  1.00  0.00    -0.131 A  
HETATM   21  N   UNL     1      -6.632  13.019  67.235  1.00  0.00    -0.197 NA 
BRANCH  20  22
HETATM   22  N   UNL     1      -7.388  11.108  66.143  1.00  0.00    -0.329 NA 
HETATM   23  H   UNL     1      -6.730  10.454  65.718  1.00  0.00     0.000 HD 
BRANCH  22  24
HETATM   24  C   UNL     1      -8.602  11.256  65.452  1.00  0.00     0.066 A  
HETATM   25  C   UNL     1      -8.891  10.579  64.262  1.00  0.00    -0.209 A  
HETATM   26  C   UNL     1     -10.123  10.731  63.616  1.00  0.00    -0.375 A  
HETATM   27  C   UNL     1     -11.099  11.576  64.142  1.00  0.00    -0.417 A  
HETATM   28  C   UNL     1     -12.375  11.699  63.495  1.00  0.00    -0.238 C  
HETATM   29  C   UNL     1     -10.818  12.287  65.311  1.00  0.00    -0.332 A  
HETATM   30  C   UNL     1      -9.578  12.136  65.950  1.00  0.00    -0.226 A  
HETATM   31  N   UNL     1     -13.407  11.788  62.972  1.00  0.00    -0.181 NA 
ENDBRANCH  22  24
ENDBRANCH  20  22
ENDBRANCH  11  12
ENDBRANCH   9  11
TORSDOF 4
ENDMDL
MODEL      159
REMARK 921   NORMALIZED FREE ENERGY PREDICTED BY IDOCK:   -4.62 KCAL/MOL
REMARK 922        TOTAL FREE ENERGY PREDICTED BY IDOCK:   -6.36 KCAL/MOL
REMARK 923 INTER-LIGAND FREE ENERGY PREDICTED BY IDOCK:   -5.95 KCAL/MOL
REMARK 924 INTRA-LIGAND FREE ENERGY PREDICTED BY IDOCK:   -0.41 KCAL/MOL
REMARK 927      BINDING AFFINITY PREDICTED BY RF-SCORE:    0.00 PKD
ROOT
HETATM    1  C   UNL     1      -7.439   9.145  70.984  1.00  0.00    -0.120 C  
HETATM    2  C   UNL     1      -7.953   7.762  71.239  1.00  0.00    -0.094 A  
HETATM    3  C   UNL     1      -6.924   6.838  71.540  1.00  0.00    -0.067 A  
HETATM    4  C   UNL     1      -7.188   5.524  71.901  1.00  0.00    -0.087 A  
HETATM    5  C   UNL     1      -8.508   5.115  71.997  1.00  0.00    -0.126 A  
HETATM    6  C   UNL     1      -6.098   4.632  72.195  1.00  0.00    -0.017 C  
HETATM    7  N   UNL     1      -5.198   3.946  72.421  1.00  0.00     0.000 NA 
HETATM    8  C   UNL     1      -9.563   6.002  71.685  1.00  0.00    -0.170 A  
HETATM    9  C   UNL     1      -9.301   7.338  71.247  1.00  0.00    -0.154 A  
HETATM   10  C   UNL     1     -10.966   5.471  71.863  1.00  0.00    -0.264 C  
ENDROOT
BRANCH   9  11
HETATM   11  O   UNL     1     -10.425   7.976  70.737  1.00  0.00    -0.203 OA 
BRANCH  11  12
HETATM   12  C   UNL     1     -10.466   8.891  69.684  1.00  0.00    -0.216 A  
HETATM   13  C   UNL     1     -10.241   8.420  68.404  1.00  0.00    -0.206 A  
HETATM   14  C   UNL     1     -10.322   9.365  67.393  1.00  0.00    -0.263 A  
HETATM   15 BR   UNL     1      -9.831   6.610  68.033  1.00  0.00    -0.151 Br 
HETATM   16  N   UNL     1     -10.213   9.052  66.037  1.00  0.00    -0.334 NA 
HETATM   17  N   UNL     1     -10.591  10.658  67.626  1.00  0.00    -0.227 NA 
HETATM   18  H1  UNL     1     -10.273   9.747  65.293  1.00  0.00     0.000 HD 
HETATM   19  H2  UNL     1     -10.909   8.334  65.836  1.00  0.00     0.000 HD 
HETATM   20  C   UNL     1     -10.742  11.054  68.891  1.00  0.00    -0.211 A  
HETATM   21  N   UNL     1     -10.630  10.201  69.922  1.00  0.00    -0.269 NA 
BRANCH  20  22
HETATM   22  N   UNL     1     -11.087  12.371  69.217  1.00  0.00    -0.413 NA 
HETATM   23  H   UNL     1     -11.688  12.467  70.035  1.00  0.00     0.000 HD 
BRANCH  22  24
HETATM   24  C   UNL     1     -10.737  13.583  68.597  1.00  0.00    -0.253 A  
HETATM   25  C   UNL     1      -9.531  13.770  67.912  1.00  0.00    -0.214 A  
HETATM   26  C   UNL     1      -9.230  14.983  67.284  1.00  0.00    -0.210 A  
HETATM   27  C   UNL     1     -10.127  16.050  67.334  1.00  0.00    -0.258 A  
HETATM   28  C   UNL     1      -9.828  17.279  66.656  1.00  0.00    -0.295 C  
HETATM   29  C   UNL     1     -11.321  15.895  68.041  1.00  0.00    -0.284 A  
HETATM   30  C   UNL     1     -11.615  14.677  68.676  1.00  0.00    -0.343 A  
HETATM   31  N   UNL     1      -9.585  18.268  66.099  1.00  0.00    -0.498 NA 
ENDBRANCH  22  24
ENDBRANCH  20  22
ENDBRANCH  11  12
ENDBRANCH   9  11
TORSDOF 4
ENDMDL
MODEL      160
REMARK 921   NORMALIZED FREE ENERGY PREDICTED BY IDOCK:   -4.62 KCAL/MOL
REMARK 922        TOTAL FREE ENERGY PREDICTED BY IDOCK:   -6.35 KCAL/MOL
REMARK 923 INTER-LIGAND FREE ENERGY PREDICTED BY IDOCK:   -5.36 KCAL/MOL
REMARK 924 INTRA-LIGAND FREE ENERGY PREDICTED BY IDOCK:   -0.99 KCAL/MOL
REMARK 927      BINDING AFFINITY PREDICTED BY RF-SCORE:    0.00 PKD
ROOT
HETATM    1  C   UNL     1     -10.707  12.881  64.898  1.00  0.00    -0.333 C  
HETATM    2  C   UNL     1     -10.740  11.996  66.105  1.00  0.00    -0.312 A  
HETATM    3  C   UNL     1     -11.206  12.661  67.264  1.00  0.00    -0.346 A  
HETATM    4  C   UNL     1     -11.403  12.002  68.470  1.00  0.00    -0.323 A  
HETATM    5  C   UNL     1     -11.162  10.639  68.528  1.00  0.00    -0.342 A  
HETATM    6  C   UNL     1     -11.878  12.733  69.614  1.00  0.00    -0.317 C  
HETATM    7  N   UNL     1     -12.258  13.354  70.509  1.00  0.00    -0.365 NA 
HETATM    8  C   UNL     1     -10.677   9.943  67.398  1.00  0.00    -0.323 A  
HETATM    9  C   UNL     1     -10.405  10.624  66.170  1.00  0.00    -0.227 A  
HETATM   10  C   UNL     1     -10.487   8.452  67.553  1.00  0.00    -0.328 C  
ENDROOT
BRANCH   9  11
HETATM   11  O   UNL     1      -9.695   9.850  65.260  1.00  0.00    -0.281 OA 
BRANCH  11  12
HETATM   12  C   UNL     1      -8.310   9.796  65.105  1.00  0.00    -0.142 A  
HETATM   13  C   UNL     1      -7.770  10.246  63.914  1.00  0.00    -0.101 A  
HETATM   14  C   UNL     1      -6.388  10.195  63.823  1.00  0.00    -0.131 A  
HETATM   15 BR   UNL     1      -8.832  10.878  62.480  1.00  0.00    -0.363 Br 
HETATM   16  N   UNL     1      -5.670  10.692  62.734  1.00  0.00    -0.189 NA 
HETATM   17  N   UNL     1      -5.610   9.734  64.814  1.00  0.00    -0.068 NA 
HETATM   18  H1  UNL     1      -4.653  10.654  62.667  1.00  0.00     0.000 HD 
HETATM   19  H2  UNL     1      -5.946  11.666  62.608  1.00  0.00     0.000 HD 
HETATM   20  C   UNL     1      -6.201   9.263  65.913  1.00  0.00    -0.056 A  
HETATM   21  N   UNL     1      -7.537   9.238  66.049  1.00  0.00    -0.095 NA 
BRANCH  20  22
HETATM   22  N   UNL     1      -5.462   8.822  67.018  1.00  0.00    -0.040 NA 
HETATM   23  H   UNL     1      -4.530   8.472  66.798  1.00  0.00     0.000 HD 
BRANCH  22  24
HETATM   24  C   UNL     1      -5.799   8.785  68.382  1.00  0.00    -0.042 A  
HETATM   25  C   UNL     1      -5.965   9.935  69.160  1.00  0.00    -0.034 A  
HETATM   26  C   UNL     1      -6.328   9.859  70.508  1.00  0.00    -0.109 A  
HETATM   27  C   UNL     1      -6.525   8.621  71.120  1.00  0.00    -0.055 A  
HETATM   28  C   UNL     1      -6.934   8.550  72.494  1.00  0.00    -0.042 C  
HETATM   29  C   UNL     1      -6.332   7.459  70.370  1.00  0.00    -0.038 A  
HETATM   30  C   UNL     1      -5.961   7.542  69.019  1.00  0.00    -0.034 A  
HETATM   31  N   UNL     1      -7.272   8.499  73.603  1.00  0.00    -0.326 NA 
ENDBRANCH  22  24
ENDBRANCH  20  22
ENDBRANCH  11  12
ENDBRANCH   9  11
TORSDOF 4
ENDMDL
MODEL      161
REMARK 921   NORMALIZED FREE ENERGY PREDICTED BY IDOCK:   -4.58 KCAL/MOL
REMARK 922        TOTAL FREE ENERGY PREDICTED BY IDOCK:   -6.31 KCAL/MOL
REMARK 923 INTER-LIGAND FREE ENERGY PREDICTED BY IDOCK:   -5.88 KCAL/MOL
REMARK 924 INTRA-LIGAND FREE ENERGY PREDICTED BY IDOCK:   -0.43 KCAL/MOL
REMARK 927      BINDING AFFINITY PREDICTED BY RF-SCORE:    0.00 PKD
ROOT
HETATM    1  C   UNL     1      -7.979   9.595  70.156  1.00  0.00    -0.189 C  
HETATM    2  C   UNL     1      -9.311   9.285  70.767  1.00  0.00    -0.322 A  
HETATM    3  C   UNL     1      -9.225   8.367  71.840  1.00  0.00    -0.306 A  
HETATM    4  C   UNL     1     -10.328   8.014  72.607  1.00  0.00    -0.398 A  
HETATM    5  C   UNL     1     -11.548   8.607  72.325  1.00  0.00    -0.424 A  
HETATM    6  C   UNL     1     -10.177   7.074  73.685  1.00  0.00    -0.358 C  
HETATM    7  N   UNL     1     -10.016   6.315  74.539  1.00  0.00    -0.318 NA 
HETATM    8  C   UNL     1     -11.679   9.514  71.249  1.00  0.00    -0.444 A  
HETATM    9  C   UNL     1     -10.564   9.832  70.411  1.00  0.00    -0.304 A  
HETATM   10  C   UNL     1     -13.041  10.137  71.053  1.00  0.00    -0.458 C  
ENDROOT
BRANCH   9  11
HETATM   11  O   UNL     1     -10.926  10.522  69.260  1.00  0.00    -0.212 OA 
BRANCH  11  12
HETATM   12  C   UNL     1     -10.148  10.717  68.118  1.00  0.00    -0.164 A  
HETATM   13  C   UNL     1      -9.682  11.993  67.858  1.00  0.00    -0.194 A  
HETATM   14  C   UNL     1      -8.891  12.125  66.727  1.00  0.00    -0.198 A  
HETATM   15 BR   UNL     1     -10.097  13.481  68.952  1.00  0.00     0.058 Br 
HETATM   16  N   UNL     1      -8.262  13.316  66.363  1.00  0.00    -0.047 NA 
HETATM   17  N   UNL     1      -8.596  11.093  65.921  1.00  0.00    -0.164 NA 
HETATM   18  H1  UNL     1      -7.681  13.414  65.531  1.00  0.00     0.000 HD 
HETATM   19  H2  UNL     1      -7.702  13.619  67.160  1.00  0.00     0.000 HD 
HETATM   20  C   UNL     1      -9.125   9.902  66.202  1.00  0.00    -0.158 A  
HETATM   21  N   UNL     1      -9.937   9.713  67.254  1.00  0.00    -0.185 NA 
BRANCH  20  22
HETATM   22  N   UNL     1      -8.818   8.761  65.449  1.00  0.00    -0.245 NA 
HETATM   23  H   UNL     1      -8.820   8.901  64.439  1.00  0.00     0.000 HD 
BRANCH  22  24
HETATM   24  C   UNL     1      -8.507   7.455  65.863  1.00  0.00    -0.150 A  
HETATM   25  C   UNL     1      -7.305   6.816  65.539  1.00  0.00    -0.079 A  
HETATM   26  C   UNL     1      -7.019   5.524  65.993  1.00  0.00    -0.066 A  
HETATM   27  C   UNL     1      -7.938   4.830  66.779  1.00  0.00    -0.103 A  
HETATM   28  C   UNL     1      -7.624   3.519  67.273  1.00  0.00    -0.078 C  
HETATM   29  C   UNL     1      -9.158   5.437  67.087  1.00  0.00    -0.111 A  
HETATM   30  C   UNL     1      -9.442   6.731  66.622  1.00  0.00    -0.205 A  
HETATM   31  N   UNL     1      -7.360   2.463  67.675  1.00  0.00    -0.055 NA 
ENDBRANCH  22  24
ENDBRANCH  20  22
ENDBRANCH  11  12
ENDBRANCH   9  11
TORSDOF 4
ENDMDL
MODEL      162
REMARK 921   NORMALIZED FREE ENERGY PREDICTED BY IDOCK:   -4.54 KCAL/MOL
REMARK 922        TOTAL FREE ENERGY PREDICTED BY IDOCK:   -6.26 KCAL/MOL
REMARK 923 INTER-LIGAND FREE ENERGY PREDICTED BY IDOCK:   -6.71 KCAL/MOL
REMARK 924 INTRA-LIGAND FREE ENERGY PREDICTED BY IDOCK:    0.45 KCAL/MOL
REMARK 927      BINDING AFFINITY PREDICTED BY RF-SCORE:    0.00 PKD
ROOT
HETATM    1  C   UNL     1      -9.196  14.554  68.520  1.00  0.00    -0.195 C  
HETATM    2  C   UNL     1      -9.834  13.591  67.568  1.00  0.00    -0.227 A  
HETATM    3  C   UNL     1     -10.617  14.231  66.578  1.00  0.00    -0.286 A  
HETATM    4  C   UNL     1     -11.220  13.533  65.540  1.00  0.00    -0.304 A  
HETATM    5  C   UNL     1     -11.022  12.164  65.459  1.00  0.00    -0.343 A  
HETATM    6  C   UNL     1     -12.005  14.240  64.565  1.00  0.00    -0.462 C  
HETATM    7  N   UNL     1     -12.628  14.843  63.803  1.00  0.00    -0.689 NA 
HETATM    8  C   UNL     1     -10.263  11.485  66.440  1.00  0.00    -0.261 A  
HETATM    9  C   UNL     1      -9.694  12.185  67.550  1.00  0.00    -0.185 A  
HETATM   10  C   UNL     1     -10.071  10.000  66.236  1.00  0.00    -0.310 C  
ENDROOT
BRANCH   9  11
HETATM   11  O   UNL     1      -9.213  11.338  68.541  1.00  0.00    -0.175 OA 
BRANCH  11  12
HETATM   12  C   UNL     1      -9.896  10.284  69.150  1.00  0.00    -0.216 A  
HETATM   13  C   UNL     1     -11.078  10.569  69.809  1.00  0.00    -0.295 A  
HETATM   14  C   UNL     1     -11.729   9.482  70.372  1.00  0.00    -0.170 A  
HETATM   15 BR   UNL     1     -11.773  12.323  69.960  1.00  0.00    -0.254 Br 
HETATM   16  N   UNL     1     -12.976   9.569  70.993  1.00  0.00    -0.520 NA 
HETATM   17  N   UNL     1     -11.252   8.230  70.299  1.00  0.00    -0.222 NA 
HETATM   18  H1  UNL     1     -13.455   8.770  71.407  1.00  0.00     0.000 HD 
HETATM   19  H2  UNL     1     -13.618   9.994  70.324  1.00  0.00     0.000 HD 
HETATM   20  C   UNL     1     -10.078   8.037  69.696  1.00  0.00    -0.198 A  
HETATM   21  N   UNL     1      -9.371   9.050  69.171  1.00  0.00    -0.147 NA 
BRANCH  20  22
HETATM   22  N   UNL     1      -9.539   6.756  69.522  1.00  0.00    -0.148 NA 
HETATM   23  H   UNL     1      -9.281   6.278  70.385  1.00  0.00     0.000 HD 
BRANCH  22  24
HETATM   24  C   UNL     1      -9.298   6.023  68.347  1.00  0.00    -0.119 A  
HETATM   25  C   UNL     1     -10.248   5.177  67.766  1.00  0.00    -0.190 A  
HETATM   26  C   UNL     1      -9.980   4.484  66.580  1.00  0.00    -0.263 A  
HETATM   27  C   UNL     1      -8.744   4.613  65.948  1.00  0.00    -0.121 A  
HETATM   28  C   UNL     1      -8.488   3.928  64.712  1.00  0.00    -0.105 C  
HETATM   29  C   UNL     1      -7.769   5.425  66.531  1.00  0.00    -0.099 A  
HETATM   30  C   UNL     1      -8.041   6.112  67.724  1.00  0.00    -0.113 A  
HETATM   31  N   UNL     1      -8.291   3.379  63.709  1.00  0.00    -0.089 NA 
ENDBRANCH  22  24
ENDBRANCH  20  22
ENDBRANCH  11  12
ENDBRANCH   9  11
TORSDOF 4
ENDMDL
MODEL      163
REMARK 921   NORMALIZED FREE ENERGY PREDICTED BY IDOCK:   -4.51 KCAL/MOL
REMARK 922        TOTAL FREE ENERGY PREDICTED BY IDOCK:   -6.21 KCAL/MOL
REMARK 923 INTER-LIGAND FREE ENERGY PREDICTED BY IDOCK:   -5.14 KCAL/MOL
REMARK 924 INTRA-LIGAND FREE ENERGY PREDICTED BY IDOCK:   -1.07 KCAL/MOL
REMARK 927      BINDING AFFINITY PREDICTED BY RF-SCORE:    0.00 PKD
ROOT
HETATM    1  C   UNL     1     -11.236   6.066  69.159  1.00  0.00    -0.337 C  
HETATM    2  C   UNL     1     -11.062   6.698  70.505  1.00  0.00    -0.359 A  
HETATM    3  C   UNL     1     -11.802   7.895  70.653  1.00  0.00    -0.116 A  
HETATM    4  C   UNL     1     -11.858   8.592  71.852  1.00  0.00    -0.407 A  
HETATM    5  C   UNL     1     -11.186   8.078  72.949  1.00  0.00    -0.389 A  
HETATM    6  C   UNL     1     -12.628   9.804  71.939  1.00  0.00    -0.391 C  
HETATM    7  N   UNL     1     -13.254  10.772  71.969  1.00  0.00    -0.455 NA 
HETATM    8  C   UNL     1     -10.419   6.896  72.837  1.00  0.00    -0.271 A  
HETATM    9  C   UNL     1     -10.300   6.207  71.590  1.00  0.00    -0.216 A  
HETATM   10  C   UNL     1      -9.761   6.396  74.102  1.00  0.00    -0.269 C  
ENDROOT
BRANCH   9  11
HETATM   11  O   UNL     1      -9.311   5.231  71.597  1.00  0.00    -0.144 OA 
BRANCH  11  12
HETATM   12  C   UNL     1      -8.180   5.174  70.780  1.00  0.00    -0.105 A  
HETATM   13  C   UNL     1      -7.389   4.042  70.843  1.00  0.00    -0.037 A  
HETATM   14  C   UNL     1      -6.295   4.026  69.992  1.00  0.00    -0.028 A  
HETATM   15 BR   UNL     1      -7.747   2.602  72.018  1.00  0.00    -0.053 Br 
HETATM   16  N   UNL     1      -5.442   2.930  69.855  1.00  0.00    -0.015 NA 
HETATM   17  N   UNL     1      -6.004   5.039  69.162  1.00  0.00    -0.020 NA 
HETATM   18  H1  UNL     1      -4.637   2.918  69.230  1.00  0.00     0.000 HD 
HETATM   19  H2  UNL     1      -6.021   2.123  69.619  1.00  0.00     0.000 HD 
HETATM   20  C   UNL     1      -6.779   6.124  69.195  1.00  0.00    -0.060 A  
HETATM   21  N   UNL     1      -7.827   6.227  70.028  1.00  0.00    -0.104 NA 
BRANCH  20  22
HETATM   22  N   UNL     1      -6.582   7.199  68.318  1.00  0.00    -0.047 NA 
HETATM   23  H   UNL     1      -5.640   7.272  67.934  1.00  0.00     0.000 HD 
BRANCH  22  24
HETATM   24  C   UNL     1      -7.475   8.193  67.884  1.00  0.00    -0.098 A  
HETATM   25  C   UNL     1      -8.643   7.911  67.168  1.00  0.00    -0.128 A  
HETATM   26  C   UNL     1      -9.523   8.927  66.776  1.00  0.00    -0.243 A  
HETATM   27  C   UNL     1      -9.248  10.259  67.083  1.00  0.00    -0.163 A  
HETATM   28  C   UNL     1     -10.172  11.293  66.710  1.00  0.00    -0.226 C  
HETATM   29  C   UNL     1      -8.070  10.565  67.767  1.00  0.00    -0.106 A  
HETATM   30  C   UNL     1      -7.188   9.543  68.151  1.00  0.00    -0.080 A  
HETATM   31  N   UNL     1     -10.927  12.123  66.414  1.00  0.00    -0.274 NA 
ENDBRANCH  22  24
ENDBRANCH  20  22
ENDBRANCH  11  12
ENDBRANCH   9  11
TORSDOF 4
ENDMDL
MODEL      164
REMARK 921   NORMALIZED FREE ENERGY PREDICTED BY IDOCK:   -4.51 KCAL/MOL
REMARK 922        TOTAL FREE ENERGY PREDICTED BY IDOCK:   -6.21 KCAL/MOL
REMARK 923 INTER-LIGAND FREE ENERGY PREDICTED BY IDOCK:   -5.31 KCAL/MOL
REMARK 924 INTRA-LIGAND FREE ENERGY PREDICTED BY IDOCK:   -0.91 KCAL/MOL
REMARK 927      BINDING AFFINITY PREDICTED BY RF-SCORE:    0.00 PKD
ROOT
HETATM    1  C   UNL     1     -10.145   5.863  73.368  1.00  0.00    -0.207 C  
HETATM    2  C   UNL     1     -10.201   7.076  72.492  1.00  0.00    -0.207 A  
HETATM    3  C   UNL     1     -11.471   7.701  72.496  1.00  0.00    -0.405 A  
HETATM    4  C   UNL     1     -11.715   8.893  71.827  1.00  0.00    -0.432 A  
HETATM    5  C   UNL     1     -10.667   9.504  71.157  1.00  0.00    -0.408 A  
HETATM    6  C   UNL     1     -13.028   9.479  71.868  1.00  0.00    -0.425 C  
HETATM    7  N   UNL     1     -14.093   9.917  71.923  1.00  0.00     0.043 NA 
HETATM    8  C   UNL     1      -9.389   8.901  71.113  1.00  0.00    -0.326 A  
HETATM    9  C   UNL     1      -9.145   7.640  71.741  1.00  0.00    -0.133 A  
HETATM   10  C   UNL     1      -8.305   9.669  70.393  1.00  0.00    -0.188 C  
ENDROOT
BRANCH   9  11
HETATM   11  O   UNL     1      -7.927   7.076  71.381  1.00  0.00    -0.102 OA 
BRANCH  11  12
HETATM   12  C   UNL     1      -7.699   6.147  70.364  1.00  0.00    -0.098 A  
HETATM   13  C   UNL     1      -7.036   4.977  70.688  1.00  0.00    -0.053 A  
HETATM   14  C   UNL     1      -6.861   4.078  69.648  1.00  0.00    -0.041 A  
HETATM   15 BR   UNL     1      -6.387   4.613  72.428  1.00  0.00    -0.027 Br 
HETATM   16  N   UNL     1      -6.298   2.812  69.813  1.00  0.00    -0.028 NA 
HETATM   17  N   UNL     1      -7.293   4.316  68.400  1.00  0.00    -0.060 NA 
HETATM   18  H1  UNL     1      -6.169   2.151  69.047  1.00  0.00     0.000 HD 
HETATM   19  H2  UNL     1      -6.832   2.334  70.538  1.00  0.00     0.000 HD 
HETATM   20  C   UNL     1      -7.874   5.490  68.146  1.00  0.00    -0.092 A  
HETATM   21  N   UNL     1      -8.034   6.426  69.096  1.00  0.00    -0.109 NA 
BRANCH  20  22
HETATM   22  N   UNL     1      -8.408   5.792  66.888  1.00  0.00    -0.108 NA 
HETATM   23  H   UNL     1      -8.516   4.992  66.264  1.00  0.00     0.000 HD 
BRANCH  22  24
HETATM   24  C   UNL     1      -8.818   7.022  66.345  1.00  0.00    -0.145 A  
HETATM   25  C   UNL     1      -9.903   7.752  66.842  1.00  0.00    -0.305 A  
HETATM   26  C   UNL     1     -10.264   8.988  66.293  1.00  0.00    -0.237 A  
HETATM   27  C   UNL     1      -9.552   9.521  65.220  1.00  0.00    -0.314 A  
HETATM   28  C   UNL     1      -9.905  10.806  64.684  1.00  0.00    -0.307 C  
HETATM   29  C   UNL     1      -8.487   8.792  64.686  1.00  0.00    -0.169 A  
HETATM   30  C   UNL     1      -8.134   7.550  65.237  1.00  0.00    -0.130 A  
HETATM   31  N   UNL     1     -10.190  11.848  64.262  1.00  0.00    -0.291 NA 
ENDBRANCH  22  24
ENDBRANCH  20  22
ENDBRANCH  11  12
ENDBRANCH   9  11
TORSDOF 4
ENDMDL
MODEL      165
REMARK 921   NORMALIZED FREE ENERGY PREDICTED BY IDOCK:   -4.46 KCAL/MOL
REMARK 922        TOTAL FREE ENERGY PREDICTED BY IDOCK:   -6.15 KCAL/MOL
REMARK 923 INTER-LIGAND FREE ENERGY PREDICTED BY IDOCK:   -5.36 KCAL/MOL
REMARK 924 INTRA-LIGAND FREE ENERGY PREDICTED BY IDOCK:   -0.79 KCAL/MOL
REMARK 927      BINDING AFFINITY PREDICTED BY RF-SCORE:    0.00 PKD
ROOT
HETATM    1  C   UNL     1      -9.201   8.484  68.851  1.00  0.00    -0.146 C  
HETATM    2  C   UNL     1      -8.652   7.929  67.574  1.00  0.00    -0.122 A  
HETATM    3  C   UNL     1      -9.272   6.717  67.186  1.00  0.00    -0.145 A  
HETATM    4  C   UNL     1      -8.980   6.083  65.986  1.00  0.00    -0.157 A  
HETATM    5  C   UNL     1      -8.068   6.676  65.128  1.00  0.00    -0.133 A  
HETATM    6  C   UNL     1      -9.644   4.853  65.649  1.00  0.00    -0.155 C  
HETATM    7  N   UNL     1     -10.196   3.867  65.415  1.00  0.00    -0.101 NA 
HETATM    8  C   UNL     1      -7.412   7.875  65.488  1.00  0.00    -0.079 A  
HETATM    9  C   UNL     1      -7.655   8.501  66.750  1.00  0.00    -0.090 A  
HETATM   10  C   UNL     1      -6.469   8.462  64.463  1.00  0.00    -0.066 C  
ENDROOT
BRANCH   9  11
HETATM   11  O   UNL     1      -6.745   9.509  67.045  1.00  0.00    -0.070 OA 
BRANCH  11  12
HETATM   12  C   UNL     1      -7.025  10.757  67.602  1.00  0.00    -0.082 A  
HETATM   13  C   UNL     1      -6.468  11.062  68.831  1.00  0.00    -0.054 A  
HETATM   14  C   UNL     1      -6.756  12.325  69.324  1.00  0.00    -0.075 A  
HETATM   15 BR   UNL     1      -5.394   9.843  69.801  1.00  0.00    -0.037 Br 
HETATM   16  N   UNL     1      -6.206  12.834  70.502  1.00  0.00    -0.483 NA 
HETATM   17  N   UNL     1      -7.530  13.203  68.669  1.00  0.00    -0.111 NA 
HETATM   18  H1  UNL     1      -6.418  13.763  70.865  1.00  0.00     0.000 HD 
HETATM   19  H2  UNL     1      -5.192  12.766  70.416  1.00  0.00     0.000 HD 
HETATM   20  C   UNL     1      -8.080  12.822  67.515  1.00  0.00    -0.180 A  
HETATM   21  N   UNL     1      -7.882  11.597  67.002  1.00  0.00    -0.159 NA 
BRANCH  20  22
HETATM   22  N   UNL     1      -8.849  13.698  66.738  1.00  0.00    -0.406 NA 
HETATM   23  H   UNL     1      -9.252  13.284  65.898  1.00  0.00     0.000 HD 
BRANCH  22  24
HETATM   24  C   UNL     1      -9.153  15.056  66.931  1.00  0.00    -0.247 A  
HETATM   25  C   UNL     1     -10.335  15.496  67.534  1.00  0.00    -0.271 A  
HETATM   26  C   UNL     1     -10.591  16.857  67.733  1.00  0.00    -0.340 A  
HETATM   27  C   UNL     1      -9.668  17.819  67.322  1.00  0.00    -0.285 A  
HETATM   28  C   UNL     1      -9.919  19.212  67.563  1.00  0.00    -0.351 C  
HETATM   29  C   UNL     1      -8.496  17.402  66.687  1.00  0.00    -0.291 A  
HETATM   30  C   UNL     1      -8.249  16.035  66.484  1.00  0.00    -0.334 A  
HETATM   31  N   UNL     1     -10.123  20.335  67.768  1.00  0.00    -0.395 NA 
ENDBRANCH  22  24
ENDBRANCH  20  22
ENDBRANCH  11  12
ENDBRANCH   9  11
TORSDOF 4
ENDMDL
MODEL      166
REMARK 921   NORMALIZED FREE ENERGY PREDICTED BY IDOCK:   -4.41 KCAL/MOL
REMARK 922        TOTAL FREE ENERGY PREDICTED BY IDOCK:   -6.10 KCAL/MOL
REMARK 923 INTER-LIGAND FREE ENERGY PREDICTED BY IDOCK:   -5.85 KCAL/MOL
REMARK 924 INTRA-LIGAND FREE ENERGY PREDICTED BY IDOCK:   -0.25 KCAL/MOL
REMARK 927      BINDING AFFINITY PREDICTED BY RF-SCORE:    0.00 PKD
ROOT
HETATM    1  C   UNL     1     -10.846   5.046  65.747  1.00  0.00    -0.073 C  
HETATM    2  C   UNL     1      -9.600   4.935  66.570  1.00  0.00    -0.176 A  
HETATM    3  C   UNL     1      -8.547   4.277  65.892  1.00  0.00    -0.114 A  
HETATM    4  C   UNL     1      -7.276   4.150  66.436  1.00  0.00    -0.071 A  
HETATM    5  C   UNL     1      -7.027   4.714  67.676  1.00  0.00    -0.061 A  
HETATM    6  C   UNL     1      -6.247   3.469  65.697  1.00  0.00    -0.031 C  
HETATM    7  N   UNL     1      -5.450   2.915  65.074  1.00  0.00    -0.009 NA 
HETATM    8  C   UNL     1      -8.058   5.362  68.395  1.00  0.00    -0.091 A  
HETATM    9  C   UNL     1      -9.387   5.440  67.873  1.00  0.00    -0.113 A  
HETATM   10  C   UNL     1      -7.672   5.981  69.718  1.00  0.00    -0.096 C  
ENDROOT
BRANCH   9  11
HETATM   11  O   UNL     1     -10.318   5.869  68.811  1.00  0.00    -0.177 OA 
BRANCH  11  12
HETATM   12  C   UNL     1     -10.382   7.125  69.418  1.00  0.00    -0.198 A  
HETATM   13  C   UNL     1     -10.753   7.186  70.748  1.00  0.00    -0.231 A  
HETATM   14  C   UNL     1     -10.773   8.454  71.309  1.00  0.00    -0.230 A  
HETATM   15 BR   UNL     1     -11.222   5.654  71.755  1.00  0.00    -0.163 Br 
HETATM   16  N   UNL     1     -11.033   8.694  72.658  1.00  0.00    -0.153 NA 
HETATM   17  N   UNL     1     -10.464   9.560  70.615  1.00  0.00    -0.286 NA 
HETATM   18  H1  UNL     1     -11.048   9.627  73.071  1.00  0.00     0.000 HD 
HETATM   19  H2  UNL     1     -10.372   8.135  73.199  1.00  0.00     0.000 HD 
HETATM   20  C   UNL     1     -10.170   9.433  69.321  1.00  0.00    -0.202 A  
HETATM   21  N   UNL     1     -10.177   8.241  68.703  1.00  0.00    -0.201 NA 
BRANCH  20  22
HETATM   22  N   UNL     1      -9.776  10.528  68.541  1.00  0.00    -0.159 NA 
HETATM   23  H   UNL     1      -8.894  10.957  68.820  1.00  0.00     0.000 HD 
BRANCH  22  24
HETATM   24  C   UNL     1     -10.403  11.131  67.437  1.00  0.00    -0.196 A  
HETATM   25  C   UNL     1     -11.552  11.920  67.548  1.00  0.00    -0.374 A  
HETATM   26  C   UNL     1     -12.131  12.527  66.429  1.00  0.00    -0.279 A  
HETATM   27  C   UNL     1     -11.579  12.350  65.161  1.00  0.00    -0.408 A  
HETATM   28  C   UNL     1     -12.156  13.005  64.021  1.00  0.00    -0.450 C  
HETATM   29  C   UNL     1     -10.451  11.538  65.024  1.00  0.00    -0.344 A  
HETATM   30  C   UNL     1      -9.878  10.925  66.150  1.00  0.00    -0.268 A  
HETATM   31  N   UNL     1     -12.622  13.544  63.106  1.00  0.00    -0.693 NA 
ENDBRANCH  22  24
ENDBRANCH  20  22
ENDBRANCH  11  12
ENDBRANCH   9  11
TORSDOF 4
ENDMDL
MODEL      167
REMARK 921   NORMALIZED FREE ENERGY PREDICTED BY IDOCK:   -4.40 KCAL/MOL
REMARK 922        TOTAL FREE ENERGY PREDICTED BY IDOCK:   -6.08 KCAL/MOL
REMARK 923 INTER-LIGAND FREE ENERGY PREDICTED BY IDOCK:   -5.61 KCAL/MOL
REMARK 924 INTRA-LIGAND FREE ENERGY PREDICTED BY IDOCK:   -0.46 KCAL/MOL
REMARK 927      BINDING AFFINITY PREDICTED BY RF-SCORE:    0.00 PKD
ROOT
HETATM    1  C   UNL     1      -9.698  11.573  67.255  1.00  0.00    -0.197 C  
HETATM    2  C   UNL     1      -9.017  10.263  67.502  1.00  0.00    -0.138 A  
HETATM    3  C   UNL     1      -9.916   9.236  67.879  1.00  0.00    -0.228 A  
HETATM    4  C   UNL     1      -9.508   7.922  68.064  1.00  0.00    -0.159 A  
HETATM    5  C   UNL     1      -8.179   7.603  67.842  1.00  0.00    -0.123 A  
HETATM    6  C   UNL     1     -10.470   6.924  68.447  1.00  0.00    -0.204 C  
HETATM    7  N   UNL     1     -11.270   6.152  68.757  1.00  0.00    -0.332 NA 
HETATM    8  C   UNL     1      -7.246   8.603  67.485  1.00  0.00    -0.081 A  
HETATM    9  C   UNL     1      -7.642   9.972  67.358  1.00  0.00    -0.091 A  
HETATM   10  C   UNL     1      -5.830   8.144  67.224  1.00  0.00    -0.042 C  
ENDROOT
BRANCH   9  11
HETATM   11  O   UNL     1      -6.565  10.845  67.262  1.00  0.00    -0.069 OA 
BRANCH  11  12
HETATM   12  C   UNL     1      -6.373  12.024  67.985  1.00  0.00    -0.058 A  
HETATM   13  C   UNL     1      -6.183  11.926  69.351  1.00  0.00    -0.108 A  
HETATM   14  C   UNL     1      -5.969  13.124  70.015  1.00  0.00    -0.135 A  
HETATM   15 BR   UNL     1      -6.225  10.277  70.278  1.00  0.00    -0.126 Br 
HETATM   16  N   UNL     1      -5.669  13.206  71.375  1.00  0.00    -0.510 NA 
HETATM   17  N   UNL     1      -5.954  14.310  69.389  1.00  0.00    -0.098 NA 
HETATM   18  H1  UNL     1      -5.512  14.087  71.864  1.00  0.00     0.000 HD 
HETATM   19  H2  UNL     1      -4.852  12.618  71.542  1.00  0.00     0.000 HD 
HETATM   20  C   UNL     1      -6.200  14.335  68.078  1.00  0.00    -0.152 A  
HETATM   21  N   UNL     1      -6.462  13.218  67.381  1.00  0.00    -0.258 NA 
BRANCH  20  22
HETATM   22  N   UNL     1      -6.140  15.523  67.338  1.00  0.00    -0.320 NA 
HETATM   23  H   UNL     1      -5.214  15.763  66.987  1.00  0.00     0.000 HD 
BRANCH  22  24
HETATM   24  C   UNL     1      -7.154  16.437  67.002  1.00  0.00    -0.224 A  
HETATM   25  C   UNL     1      -6.912  17.796  66.776  1.00  0.00    -0.228 A  
HETATM   26  C   UNL     1      -7.943  18.671  66.415  1.00  0.00    -0.298 A  
HETATM   27  C   UNL     1      -9.251  18.207  66.282  1.00  0.00    -0.213 A  
HETATM   28  C   UNL     1     -10.298  19.102  65.875  1.00  0.00    -0.391 C  
HETATM   29  C   UNL     1      -9.519  16.860  66.536  1.00  0.00    -0.296 A  
HETATM   30  C   UNL     1      -8.482  15.989  66.904  1.00  0.00    -0.275 A  
HETATM   31  N   UNL     1     -11.138  19.828  65.539  1.00  0.00    -0.258 NA 
ENDBRANCH  22  24
ENDBRANCH  20  22
ENDBRANCH  11  12
ENDBRANCH   9  11
TORSDOF 4
ENDMDL
MODEL      168
REMARK 921   NORMALIZED FREE ENERGY PREDICTED BY IDOCK:   -4.33 KCAL/MOL
REMARK 922        TOTAL FREE ENERGY PREDICTED BY IDOCK:   -5.99 KCAL/MOL
REMARK 923 INTER-LIGAND FREE ENERGY PREDICTED BY IDOCK:   -5.79 KCAL/MOL
REMARK 924 INTRA-LIGAND FREE ENERGY PREDICTED BY IDOCK:   -0.20 KCAL/MOL
REMARK 927      BINDING AFFINITY PREDICTED BY RF-SCORE:    0.00 PKD
ROOT
HETATM    1  C   UNL     1     -10.402  14.001  68.276  1.00  0.00    -0.247 C  
HETATM    2  C   UNL     1      -9.538  15.164  67.896  1.00  0.00    -0.203 A  
HETATM    3  C   UNL     1     -10.266  16.370  67.759  1.00  0.00    -0.274 A  
HETATM    4  C   UNL     1      -9.648  17.586  67.504  1.00  0.00    -0.265 A  
HETATM    5  C   UNL     1      -8.266  17.621  67.410  1.00  0.00    -0.221 A  
HETATM    6  C   UNL     1     -10.442  18.778  67.375  1.00  0.00    -0.431 C  
HETATM    7  N   UNL     1     -11.113  19.711  67.277  1.00  0.00    -0.308 NA 
HETATM    8  C   UNL     1      -7.505  16.434  67.520  1.00  0.00    -0.165 A  
HETATM    9  C   UNL     1      -8.137  15.166  67.715  1.00  0.00    -0.146 A  
HETATM   10  C   UNL     1      -6.004  16.586  67.445  1.00  0.00    -0.188 C  
ENDROOT
BRANCH   9  11
HETATM   11  O   UNL     1      -7.273  14.092  67.539  1.00  0.00    -0.172 OA 
BRANCH  11  12
HETATM   12  C   UNL     1      -7.144  12.973  68.363  1.00  0.00    -0.103 A  
HETATM   13  C   UNL     1      -6.293  13.060  69.449  1.00  0.00    -0.111 A  
HETATM   14  C   UNL     1      -6.224  11.930  70.250  1.00  0.00    -0.026 A  
HETATM   15 BR   UNL     1      -5.266  14.603  69.829  1.00  0.00    -0.093 Br 
HETATM   16  N   UNL     1      -5.489  11.871  71.435  1.00  0.00    -0.376 NA 
HETATM   17  N   UNL     1      -6.924  10.814  69.995  1.00  0.00    -0.151 NA 
HETATM   18  H1  UNL     1      -5.438  11.040  72.024  1.00  0.00     0.000 HD 
HETATM   19  H2  UNL     1      -5.804  12.641  72.025  1.00  0.00     0.000 HD 
HETATM   20  C   UNL     1      -7.682  10.781  68.899  1.00  0.00    -0.129 A  
HETATM   21  N   UNL     1      -7.759  11.822  68.054  1.00  0.00    -0.115 NA 
BRANCH  20  22
HETATM   22  N   UNL     1      -8.492   9.680  68.594  1.00  0.00    -0.117 NA 
HETATM   23  H   UNL     1      -8.346   9.284  67.665  1.00  0.00     0.000 HD 
BRANCH  22  24
HETATM   24  C   UNL     1      -9.475   9.033  69.362  1.00  0.00    -0.159 A  
HETATM   25  C   UNL     1     -10.136   9.647  70.431  1.00  0.00    -0.336 A  
HETATM   26  C   UNL     1     -11.130   8.980  71.155  1.00  0.00    -0.371 A  
HETATM   27  C   UNL     1     -11.481   7.669  70.834  1.00  0.00    -0.299 A  
HETATM   28  C   UNL     1     -12.527   7.002  71.557  1.00  0.00    -0.386 C  
HETATM   29  C   UNL     1     -10.810   7.026  69.792  1.00  0.00    -0.276 A  
HETATM   30  C   UNL     1      -9.809   7.699  69.073  1.00  0.00    -0.168 A  
HETATM   31  N   UNL     1     -13.379   6.472  72.140  1.00  0.00     0.040 NA 
ENDBRANCH  22  24
ENDBRANCH  20  22
ENDBRANCH  11  12
ENDBRANCH   9  11
TORSDOF 4
ENDMDL
MODEL      169
REMARK 921   NORMALIZED FREE ENERGY PREDICTED BY IDOCK:   -4.30 KCAL/MOL
REMARK 922        TOTAL FREE ENERGY PREDICTED BY IDOCK:   -5.97 KCAL/MOL
REMARK 923 INTER-LIGAND FREE ENERGY PREDICTED BY IDOCK:   -5.13 KCAL/MOL
REMARK 924 INTRA-LIGAND FREE ENERGY PREDICTED BY IDOCK:   -0.84 KCAL/MOL
REMARK 927      BINDING AFFINITY PREDICTED BY RF-SCORE:    0.00 PKD
ROOT
HETATM    1  C   UNL     1      -9.911  12.838  68.986  1.00  0.00     0.285 C  
HETATM    2  C   UNL     1      -8.433  12.732  68.767  1.00  0.00     0.161 A  
HETATM    3  C   UNL     1      -7.854  13.942  68.316  1.00  0.00    -0.146 A  
HETATM    4  C   UNL     1      -6.485  14.090  68.140  1.00  0.00    -0.126 A  
HETATM    5  C   UNL     1      -5.657  13.022  68.446  1.00  0.00    -0.072 A  
HETATM    6  C   UNL     1      -5.956  15.345  67.678  1.00  0.00    -0.105 C  
HETATM    7  N   UNL     1      -5.570  16.366  67.304  1.00  0.00    -0.228 NA 
HETATM    8  C   UNL     1      -6.199  11.791  68.881  1.00  0.00    -0.058 A  
HETATM    9  C   UNL     1      -7.612  11.606  69.000  1.00  0.00    -0.027 A  
HETATM   10  C   UNL     1      -5.209  10.704  69.230  1.00  0.00    -0.038 C  
ENDROOT
BRANCH   9  11
HETATM   11  O   UNL     1      -7.976  10.277  69.181  1.00  0.00    -0.112 OA 
BRANCH  11  12
HETATM   12  C   UNL     1      -8.619   9.449  68.259  1.00  0.00    -0.120 A  
HETATM   13  C   UNL     1      -8.876   8.141  68.628  1.00  0.00    -0.134 A  
HETATM   14  C   UNL     1      -9.541   7.371  67.687  1.00  0.00    -0.138 A  
HETATM   15 BR   UNL     1      -8.349   7.423  70.297  1.00  0.00    -0.136 Br 
HETATM   16  N   UNL     1      -9.962   6.062  67.923  1.00  0.00    -0.123 NA 
HETATM   17  N   UNL     1      -9.910   7.846  66.487  1.00  0.00    -0.225 NA 
HETATM   18  H1  UNL     1     -10.452   5.495  67.230  1.00  0.00     0.000 HD 
HETATM   19  H2  UNL     1     -10.539   6.076  68.764  1.00  0.00     0.000 HD 
HETATM   20  C   UNL     1      -9.580   9.101  66.177  1.00  0.00    -0.266 A  
HETATM   21  N   UNL     1      -8.895   9.887  67.022  1.00  0.00    -0.134 NA 
BRANCH  20  22
HETATM   22  N   UNL     1      -9.981   9.693  64.973  1.00  0.00    -0.391 NA 
HETATM   23  H   UNL     1      -9.903   9.093  64.152  1.00  0.00     0.000 HD 
BRANCH  22  24
HETATM   24  C   UNL     1     -10.474  10.984  64.714  1.00  0.00    -0.316 A  
HETATM   25  C   UNL     1     -11.483  11.243  63.781  1.00  0.00    -0.055 A  
HETATM   26  C   UNL     1     -11.968  12.538  63.570  1.00  0.00    -0.629 A  
HETATM   27  C   UNL     1     -11.444  13.615  64.284  1.00  0.00    -0.393 A  
HETATM   28  C   UNL     1     -11.971  14.937  64.091  1.00  0.00    -0.235 C  
HETATM   29  C   UNL     1     -10.413  13.383  65.196  1.00  0.00    -0.358 A  
HETATM   30  C   UNL     1      -9.926  12.082  65.398  1.00  0.00    -0.279 A  
HETATM   31  N   UNL     1     -12.407  16.001  63.936  1.00  0.00    -0.730 NA 
ENDBRANCH  22  24
ENDBRANCH  20  22
ENDBRANCH  11  12
ENDBRANCH   9  11
TORSDOF 4
ENDMDL
MODEL      170
REMARK 921   NORMALIZED FREE ENERGY PREDICTED BY IDOCK:   -4.29 KCAL/MOL
REMARK 922        TOTAL FREE ENERGY PREDICTED BY IDOCK:   -5.95 KCAL/MOL
REMARK 923 INTER-LIGAND FREE ENERGY PREDICTED BY IDOCK:   -5.97 KCAL/MOL
REMARK 924 INTRA-LIGAND FREE ENERGY PREDICTED BY IDOCK:    0.02 KCAL/MOL
REMARK 927      BINDING AFFINITY PREDICTED BY RF-SCORE:    0.00 PKD
ROOT
HETATM    1  C   UNL     1     -11.106  10.416  70.253  1.00  0.00    -0.379 C  
HETATM    2  C   UNL     1      -9.904  10.068  69.431  1.00  0.00    -0.240 A  
HETATM    3  C   UNL     1      -8.974   9.260  70.128  1.00  0.00    -0.239 A  
HETATM    4  C   UNL     1      -7.835   8.746  69.522  1.00  0.00    -0.091 A  
HETATM    5  C   UNL     1      -7.620   9.013  68.180  1.00  0.00    -0.092 A  
HETATM    6  C   UNL     1      -6.927   7.931  70.284  1.00  0.00    -0.049 C  
HETATM    7  N   UNL     1      -6.223   7.283  70.928  1.00  0.00    -0.036 NA 
HETATM    8  C   UNL     1      -8.515   9.832  67.455  1.00  0.00    -0.121 A  
HETATM    9  C   UNL     1      -9.655  10.422  68.086  1.00  0.00    -0.144 A  
HETATM   10  C   UNL     1      -8.214  10.026  65.987  1.00  0.00    -0.126 C  
ENDROOT
BRANCH   9  11
HETATM   11  O   UNL     1     -10.268  11.396  67.307  1.00  0.00    -0.193 OA 
BRANCH  11  12
HETATM   12  C   UNL     1      -9.755  12.648  66.969  1.00  0.00    -0.225 A  
HETATM   13  C   UNL     1     -10.535  13.483  66.190  1.00  0.00    -0.296 A  
HETATM   14  C   UNL     1      -9.989  14.726  65.907  1.00  0.00    -0.326 A  
HETATM   15 BR   UNL     1     -12.235  12.977  65.528  1.00  0.00    -0.525 Br 
HETATM   16  N   UNL     1     -10.672  15.726  65.215  1.00  0.00    -0.410 NA 
HETATM   17  N   UNL     1      -8.779  15.105  66.345  1.00  0.00    -0.249 NA 
HETATM   18  H1  UNL     1     -10.270  16.640  65.006  1.00  0.00     0.000 HD 
HETATM   19  H2  UNL     1     -11.552  15.887  65.705  1.00  0.00     0.000 HD 
HETATM   20  C   UNL     1      -8.057  14.228  67.045  1.00  0.00    -0.039 A  
HETATM   21  N   UNL     1      -8.505  12.991  67.315  1.00  0.00    -0.196 NA 
BRANCH  20  22
HETATM   22  N   UNL     1      -6.813  14.565  67.592  1.00  0.00    -0.179 NA 
HETATM   23  H   UNL     1      -6.047  13.946  67.328  1.00  0.00     0.000 HD 
BRANCH  22  24
HETATM   24  C   UNL     1      -6.450  15.620  68.446  1.00  0.00    -0.113 A  
HETATM   25  C   UNL     1      -6.681  16.965  68.139  1.00  0.00    -0.149 A  
HETATM   26  C   UNL     1      -6.331  17.987  69.028  1.00  0.00    -0.236 A  
HETATM   27  C   UNL     1      -5.728  17.688  70.249  1.00  0.00    -0.200 A  
HETATM   28  C   UNL     1      -5.405  18.739  71.173  1.00  0.00    -0.256 C  
HETATM   29  C   UNL     1      -5.458  16.354  70.560  1.00  0.00    -0.146 A  
HETATM   30  C   UNL     1      -5.805  15.333  69.661  1.00  0.00    -0.118 A  
HETATM   31  N   UNL     1      -5.153  19.592  71.919  1.00  0.00    -0.593 NA 
ENDBRANCH  22  24
ENDBRANCH  20  22
ENDBRANCH  11  12
ENDBRANCH   9  11
TORSDOF 4
ENDMDL
MODEL      171
REMARK 921   NORMALIZED FREE ENERGY PREDICTED BY IDOCK:   -4.25 KCAL/MOL
REMARK 922        TOTAL FREE ENERGY PREDICTED BY IDOCK:   -5.89 KCAL/MOL
REMARK 923 INTER-LIGAND FREE ENERGY PREDICTED BY IDOCK:   -5.42 KCAL/MOL
REMARK 924 INTRA-LIGAND FREE ENERGY PREDICTED BY IDOCK:   -0.48 KCAL/MOL
REMARK 927      BINDING AFFINITY PREDICTED BY RF-SCORE:    0.00 PKD
ROOT
HETATM    1  C   UNL     1      -7.544  15.309  67.009  1.00  0.00    -0.161 C  
HETATM    2  C   UNL     1      -7.402  13.998  67.720  1.00  0.00    -0.176 A  
HETATM    3  C   UNL     1      -6.742  14.115  68.967  1.00  0.00    -0.107 A  
HETATM    4  C   UNL     1      -6.589  13.040  69.830  1.00  0.00     0.129 A  
HETATM    5  C   UNL     1      -7.129  11.816  69.468  1.00  0.00     0.089 A  
HETATM    6  C   UNL     1      -5.908  13.222  71.084  1.00  0.00     0.013 C  
HETATM    7  N   UNL     1      -5.354  13.407  72.079  1.00  0.00    -0.358 NA 
HETATM    8  C   UNL     1      -7.777  11.654  68.223  1.00  0.00    -0.128 A  
HETATM    9  C   UNL     1      -7.881  12.738  67.296  1.00  0.00    -0.146 A  
HETATM   10  C   UNL     1      -8.368  10.292  67.942  1.00  0.00    -0.114 C  
ENDROOT
BRANCH   9  11
HETATM   11  O   UNL     1      -8.307  12.340  66.034  1.00  0.00     0.266 OA 
BRANCH  11  12
HETATM   12  C   UNL     1      -9.426  12.803  65.340  1.00  0.00     0.177 A  
HETATM   13  C   UNL     1     -10.182  11.883  64.638  1.00  0.00    -0.278 A  
HETATM   14  C   UNL     1     -11.297  12.391  63.990  1.00  0.00    -0.399 A  
HETATM   15 BR   UNL     1      -9.735  10.047  64.540  1.00  0.00    -0.215 Br 
HETATM   16  N   UNL     1     -12.222  11.596  63.312  1.00  0.00    -0.917 NA 
HETATM   17  N   UNL     1     -11.629  13.691  64.025  1.00  0.00    -0.355 NA 
HETATM   18  H1  UNL     1     -13.042  11.970  62.835  1.00  0.00     0.000 HD 
HETATM   19  H2  UNL     1     -12.551  10.888  63.968  1.00  0.00     0.000 HD 
HETATM   20  C   UNL     1     -10.823  14.531  64.675  1.00  0.00    -0.332 A  
HETATM   21  N   UNL     1      -9.702  14.115  65.285  1.00  0.00    -0.137 NA 
BRANCH  20  22
HETATM   22  N   UNL     1     -11.129  15.891  64.812  1.00  0.00    -0.604 NA 
HETATM   23  H   UNL     1     -11.595  16.309  64.007  1.00  0.00     0.000 HD 
BRANCH  22  24
HETATM   24  C   UNL     1     -10.897  16.772  65.882  1.00  0.00    -0.053 A  
HETATM   25  C   UNL     1     -10.862  16.359  67.218  1.00  0.00    -0.194 A  
HETATM   26  C   UNL     1     -10.600  17.262  68.255  1.00  0.00    -0.383 A  
HETATM   27  C   UNL     1     -10.377  18.610  67.980  1.00  0.00    -0.421 A  
HETATM   28  C   UNL     1     -10.073  19.525  69.044  1.00  0.00    -0.364 C  
HETATM   29  C   UNL     1     -10.441  19.050  66.656  1.00  0.00    -0.517 A  
HETATM   30  C   UNL     1     -10.711  18.141  65.621  1.00  0.00    -0.045 A  
HETATM   31  N   UNL     1      -9.819  20.257  69.908  1.00  0.00     0.315 NA 
ENDBRANCH  22  24
ENDBRANCH  20  22
ENDBRANCH  11  12
ENDBRANCH   9  11
TORSDOF 4
ENDMDL
MODEL      172
REMARK 921   NORMALIZED FREE ENERGY PREDICTED BY IDOCK:   -4.16 KCAL/MOL
REMARK 922        TOTAL FREE ENERGY PREDICTED BY IDOCK:   -5.79 KCAL/MOL
REMARK 923 INTER-LIGAND FREE ENERGY PREDICTED BY IDOCK:   -5.22 KCAL/MOL
REMARK 924 INTRA-LIGAND FREE ENERGY PREDICTED BY IDOCK:   -0.57 KCAL/MOL
REMARK 927      BINDING AFFINITY PREDICTED BY RF-SCORE:    0.00 PKD
ROOT
HETATM    1  C   UNL     1     -11.424  12.752  68.383  1.00  0.00    -0.349 C  
HETATM    2  C   UNL     1     -10.367  13.577  67.718  1.00  0.00    -0.241 A  
HETATM    3  C   UNL     1     -10.898  14.561  66.851  1.00  0.00    -0.305 A  
HETATM    4  C   UNL     1     -10.099  15.495  66.206  1.00  0.00    -0.312 A  
HETATM    5  C   UNL     1      -8.734  15.476  66.445  1.00  0.00    -0.333 A  
HETATM    6  C   UNL     1     -10.699  16.470  65.336  1.00  0.00    -0.259 C  
HETATM    7  N   UNL     1     -11.217  17.235  64.645  1.00  0.00    -0.909 NA 
HETATM    8  C   UNL     1      -8.162  14.497  67.288  1.00  0.00    -0.230 A  
HETATM    9  C   UNL     1      -8.969  13.489  67.904  1.00  0.00    -0.200 A  
HETATM   10  C   UNL     1      -6.672  14.590  67.517  1.00  0.00    -0.141 C  
ENDROOT
BRANCH   9  11
HETATM   11  O   UNL     1      -8.223  12.466  68.477  1.00  0.00    -0.150 OA 
BRANCH  11  12
HETATM   12  C   UNL     1      -8.575  11.118  68.567  1.00  0.00    -0.157 A  
HETATM   13  C   UNL     1      -8.562  10.363  67.409  1.00  0.00    -0.125 A  
HETATM   14  C   UNL     1      -8.892   9.025  67.561  1.00  0.00    -0.123 A  
HETATM   15 BR   UNL     1      -8.140  11.090  65.714  1.00  0.00     0.034 Br 
HETATM   16  N   UNL     1      -8.842   8.098  66.519  1.00  0.00    -0.141 NA 
HETATM   17  N   UNL     1      -9.215   8.485  68.746  1.00  0.00    -0.143 NA 
HETATM   18  H1  UNL     1      -9.086   7.114  66.630  1.00  0.00     0.000 HD 
HETATM   19  H2  UNL     1      -7.901   8.134  66.126  1.00  0.00     0.000 HD 
HETATM   20  C   UNL     1      -9.262   9.285  69.812  1.00  0.00    -0.181 A  
HETATM   21  N   UNL     1      -8.999  10.599  69.729  1.00  0.00     0.155 NA 
BRANCH  20  22
HETATM   22  N   UNL     1      -9.528   8.791  71.095  1.00  0.00    -0.216 NA 
HETATM   23  H   UNL     1     -10.147   9.373  71.659  1.00  0.00     0.000 HD 
BRANCH  22  24
HETATM   24  C   UNL     1      -9.078   7.621  71.731  1.00  0.00    -0.133 A  
HETATM   25  C   UNL     1      -9.783   6.413  71.695  1.00  0.00    -0.174 A  
HETATM   26  C   UNL     1      -9.290   5.261  72.316  1.00  0.00    -0.160 A  
HETATM   27  C   UNL     1      -8.077   5.291  73.003  1.00  0.00    -0.105 A  
HETATM   28  C   UNL     1      -7.558   4.097  73.608  1.00  0.00    -0.077 C  
HETATM   29  C   UNL     1      -7.374   6.495  73.080  1.00  0.00    -0.085 A  
HETATM   30  C   UNL     1      -7.878   7.650  72.460  1.00  0.00    -0.119 A  
HETATM   31  N   UNL     1      -7.140   3.126  74.088  1.00  0.00    -0.045 NA 
ENDBRANCH  22  24
ENDBRANCH  20  22
ENDBRANCH  11  12
ENDBRANCH   9  11
TORSDOF 4
ENDMDL
MODEL      173
REMARK 921   NORMALIZED FREE ENERGY PREDICTED BY IDOCK:   -4.15 KCAL/MOL
REMARK 922        TOTAL FREE ENERGY PREDICTED BY IDOCK:   -5.77 KCAL/MOL
REMARK 923 INTER-LIGAND FREE ENERGY PREDICTED BY IDOCK:   -5.37 KCAL/MOL
REMARK 924 INTRA-LIGAND FREE ENERGY PREDICTED BY IDOCK:   -0.40 KCAL/MOL
REMARK 927      BINDING AFFINITY PREDICTED BY RF-SCORE:    0.00 PKD
ROOT
HETATM    1  C   UNL     1     -10.444  16.126  69.955  1.00  0.00    -0.261 C  
HETATM    2  C   UNL     1      -9.575  16.707  68.883  1.00  0.00    -0.252 A  
HETATM    3  C   UNL     1     -10.299  17.479  67.943  1.00  0.00    -0.371 A  
HETATM    4  C   UNL     1      -9.677  18.184  66.922  1.00  0.00    -0.318 A  
HETATM    5  C   UNL     1      -8.294  18.151  66.841  1.00  0.00    -0.258 A  
HETATM    6  C   UNL     1     -10.468  18.951  65.998  1.00  0.00    -0.446 C  
HETATM    7  N   UNL     1     -11.137  19.552  65.275  1.00  0.00    -0.248 NA 
HETATM    8  C   UNL     1      -7.536  17.375  67.748  1.00  0.00    -0.200 A  
HETATM    9  C   UNL     1      -8.172  16.592  68.761  1.00  0.00    -0.248 A  
HETATM   10  C   UNL     1      -6.034  17.441  67.601  1.00  0.00    -0.152 C  
ENDROOT
BRANCH   9  11
HETATM   11  O   UNL     1      -7.308  15.699  69.384  1.00  0.00    -0.194 OA 
BRANCH  11  12
HETATM   12  C   UNL     1      -7.203  14.327  69.149  1.00  0.00    -0.104 A  
HETATM   13  C   UNL     1      -6.279  13.609  69.886  1.00  0.00    -0.118 A  
HETATM   14  C   UNL     1      -6.236  12.247  69.632  1.00  0.00    -0.131 A  
HETATM   15 BR   UNL     1      -5.127  14.415  71.153  1.00  0.00    -0.143 Br 
HETATM   16  N   UNL     1      -5.432  11.357  70.345  1.00  0.00    -0.111 NA 
HETATM   17  N   UNL     1      -7.026  11.651  68.726  1.00  0.00    -0.091 NA 
HETATM   18  H1  UNL     1      -5.400  10.355  70.158  1.00  0.00     0.000 HD 
HETATM   19  H2  UNL     1      -5.655  11.473  71.334  1.00  0.00     0.000 HD 
HETATM   20  C   UNL     1      -7.854  12.414  68.011  1.00  0.00    -0.141 A  
HETATM   21  N   UNL     1      -7.914  13.745  68.172  1.00  0.00    -0.138 NA 
BRANCH  20  22
HETATM   22  N   UNL     1      -8.756  11.864  67.091  1.00  0.00    -0.169 NA 
HETATM   23  H   UNL     1      -9.692  12.268  67.114  1.00  0.00     0.000 HD 
BRANCH  22  24
HETATM   24  C   UNL     1      -8.577  10.844  66.140  1.00  0.00    -0.169 A  
HETATM   25  C   UNL     1      -9.295  10.783  64.942  1.00  0.00    -0.261 A  
HETATM   26  C   UNL     1      -9.070   9.767  64.007  1.00  0.00    -0.280 A  
HETATM   27  C   UNL     1      -8.122   8.774  64.254  1.00  0.00    -0.157 A  
HETATM   28  C   UNL     1      -7.869   7.755  63.274  1.00  0.00    -0.129 C  
HETATM   29  C   UNL     1      -7.418   8.798  65.459  1.00  0.00    -0.086 A  
HETATM   30  C   UNL     1      -7.654   9.816  66.397  1.00  0.00    -0.099 A  
HETATM   31  N   UNL     1      -7.663   6.940  62.475  1.00  0.00    -0.097 NA 
ENDBRANCH  22  24
ENDBRANCH  20  22
ENDBRANCH  11  12
ENDBRANCH   9  11
TORSDOF 4
ENDMDL
MODEL      174
REMARK 921   NORMALIZED FREE ENERGY PREDICTED BY IDOCK:   -4.13 KCAL/MOL
REMARK 922        TOTAL FREE ENERGY PREDICTED BY IDOCK:   -5.75 KCAL/MOL
REMARK 923 INTER-LIGAND FREE ENERGY PREDICTED BY IDOCK:   -6.10 KCAL/MOL
REMARK 924 INTRA-LIGAND FREE ENERGY PREDICTED BY IDOCK:    0.35 KCAL/MOL
REMARK 927      BINDING AFFINITY PREDICTED BY RF-SCORE:    0.00 PKD
ROOT
HETATM    1  C   UNL     1      -7.947  15.334  69.345  1.00  0.00    -0.223 C  
HETATM    2  C   UNL     1      -9.412  15.026  69.318  1.00  0.00    -0.171 A  
HETATM    3  C   UNL     1     -10.051  15.273  70.557  1.00  0.00     0.228 A  
HETATM    4  C   UNL     1     -11.423  15.144  70.724  1.00  0.00    -0.350 A  
HETATM    5  C   UNL     1     -12.194  14.788  69.630  1.00  0.00    -0.310 A  
HETATM    6  C   UNL     1     -12.014  15.409  72.009  1.00  0.00    -0.420 C  
HETATM    7  N   UNL     1     -12.450  15.628  73.054  1.00  0.00    -0.406 NA 
HETATM    8  C   UNL     1     -11.591  14.514  68.381  1.00  0.00    -0.356 A  
HETATM    9  C   UNL     1     -10.173  14.577  68.214  1.00  0.00    -0.234 A  
HETATM   10  C   UNL     1     -12.524  14.176  67.241  1.00  0.00     0.002 C  
ENDROOT
BRANCH   9  11
HETATM   11  O   UNL     1      -9.738  14.029  67.014  1.00  0.00    -0.241 OA 
BRANCH  11  12
HETATM   12  C   UNL     1     -10.116  12.803  66.464  1.00  0.00    -0.258 A  
HETATM   13  C   UNL     1     -10.694  12.804  65.208  1.00  0.00    -0.294 A  
HETATM   14  C   UNL     1     -11.025  11.559  64.698  1.00  0.00    -0.288 A  
HETATM   15 BR   UNL     1     -11.036  14.392  64.237  1.00  0.00     0.088 Br 
HETATM   16  N   UNL     1     -11.531  11.364  63.412  1.00  0.00    -0.797 NA 
HETATM   17  N   UNL     1     -10.813  10.417  65.370  1.00  0.00     0.123 NA 
HETATM   18  H1  UNL     1     -11.775  10.448  63.036  1.00  0.00     0.000 HD 
HETATM   19  H2  UNL     1     -10.874  11.793  62.760  1.00  0.00     0.000 HD 
HETATM   20  C   UNL     1     -10.304  10.495  66.601  1.00  0.00    -0.237 A  
HETATM   21  N   UNL     1     -10.004  11.671  67.175  1.00  0.00    -0.198 NA 
BRANCH  20  22
HETATM   22  N   UNL     1      -9.993   9.350  67.345  1.00  0.00    -0.186 NA 
HETATM   23  H   UNL     1     -10.093   8.470  66.839  1.00  0.00     0.000 HD 
BRANCH  22  24
HETATM   24  C   UNL     1      -9.567   9.219  68.678  1.00  0.00    -0.147 A  
HETATM   25  C   UNL     1     -10.442   9.271  69.768  1.00  0.00    -0.235 A  
HETATM   26  C   UNL     1      -9.984   9.108  71.080  1.00  0.00    -0.367 A  
HETATM   27  C   UNL     1      -8.630   8.900  71.336  1.00  0.00    -0.238 A  
HETATM   28  C   UNL     1      -8.171   8.697  72.682  1.00  0.00     0.033 C  
HETATM   29  C   UNL     1      -7.735   8.879  70.265  1.00  0.00    -0.090 A  
HETATM   30  C   UNL     1      -8.199   9.049  68.951  1.00  0.00    -0.120 A  
HETATM   31  N   UNL     1      -7.808   8.526  73.771  1.00  0.00    -0.405 NA 
ENDBRANCH  22  24
ENDBRANCH  20  22
ENDBRANCH  11  12
ENDBRANCH   9  11
TORSDOF 4
ENDMDL
MODEL      175
REMARK 921   NORMALIZED FREE ENERGY PREDICTED BY IDOCK:   -4.05 KCAL/MOL
REMARK 922        TOTAL FREE ENERGY PREDICTED BY IDOCK:   -5.65 KCAL/MOL
REMARK 923 INTER-LIGAND FREE ENERGY PREDICTED BY IDOCK:   -5.98 KCAL/MOL
REMARK 924 INTRA-LIGAND FREE ENERGY PREDICTED BY IDOCK:    0.33 KCAL/MOL
REMARK 927      BINDING AFFINITY PREDICTED BY RF-SCORE:    0.00 PKD
ROOT
HETATM    1  C   UNL     1     -11.875  15.279  67.838  1.00  0.00    -0.144 C  
HETATM    2  C   UNL     1     -11.985  14.229  68.900  1.00  0.00    -0.356 A  
HETATM    3  C   UNL     1     -12.332  14.758  70.166  1.00  0.00    -0.381 A  
HETATM    4  C   UNL     1     -12.577  13.951  71.268  1.00  0.00    -0.450 A  
HETATM    5  C   UNL     1     -12.506  12.576  71.111  1.00  0.00    -0.322 A  
HETATM    6  C   UNL     1     -12.925  14.549  72.529  1.00  0.00    -0.414 C  
HETATM    7  N   UNL     1     -13.199  15.067  73.523  1.00  0.00    -0.477 NA 
HETATM    8  C   UNL     1     -12.143  12.009  69.868  1.00  0.00    -0.334 A  
HETATM    9  C   UNL     1     -11.823  12.834  68.745  1.00  0.00    -0.307 A  
HETATM   10  C   UNL     1     -12.137  10.500  69.791  1.00  0.00    -0.285 C  
ENDROOT
BRANCH   9  11
HETATM   11  O   UNL     1     -11.241  12.129  67.698  1.00  0.00    -0.250 OA 
BRANCH  11  12
HETATM   12  C   UNL     1      -9.961  11.573  67.668  1.00  0.00    -0.184 A  
HETATM   13  C   UNL     1      -8.923  12.353  67.191  1.00  0.00    -0.195 A  
HETATM   14  C   UNL     1      -7.670  11.762  67.210  1.00  0.00    -0.158 A  
HETATM   15 BR   UNL     1      -9.177  14.110  66.535  1.00  0.00    -0.201 Br 
HETATM   16  N   UNL     1      -6.498  12.431  66.853  1.00  0.00    -0.457 NA 
HETATM   17  N   UNL     1      -7.461  10.511  67.651  1.00  0.00    -0.091 NA 
HETATM   18  H1  UNL     1      -5.576  11.996  66.867  1.00  0.00     0.000 HD 
HETATM   19  H2  UNL     1      -6.444  13.273  67.427  1.00  0.00     0.000 HD 
HETATM   20  C   UNL     1      -8.517   9.797  68.044  1.00  0.00    -0.118 A  
HETATM   21  N   UNL     1      -9.765  10.290  68.008  1.00  0.00    -0.148 NA 
BRANCH  20  22
HETATM   22  N   UNL     1      -8.380   8.508  68.576  1.00  0.00    -0.123 NA 
HETATM   23  H   UNL     1      -8.629   8.423  69.561  1.00  0.00     0.000 HD 
BRANCH  22  24
HETATM   24  C   UNL     1      -7.953   7.315  67.970  1.00  0.00    -0.119 A  
HETATM   25  C   UNL     1      -8.103   7.056  66.603  1.00  0.00    -0.110 A  
HETATM   26  C   UNL     1      -7.641   5.866  66.030  1.00  0.00    -0.086 A  
HETATM   27  C   UNL     1      -7.023   4.895  66.817  1.00  0.00    -0.067 A  
HETATM   28  C   UNL     1      -6.517   3.692  66.217  1.00  0.00    -0.037 C  
HETATM   29  C   UNL     1      -6.893   5.119  68.189  1.00  0.00    -0.060 A  
HETATM   30  C   UNL     1      -7.366   6.311  68.759  1.00  0.00    -0.086 A  
HETATM   31  N   UNL     1      -6.103   2.726  65.725  1.00  0.00    -0.023 NA 
ENDBRANCH  22  24
ENDBRANCH  20  22
ENDBRANCH  11  12
ENDBRANCH   9  11
TORSDOF 4
ENDMDL
MODEL      176
REMARK 921   NORMALIZED FREE ENERGY PREDICTED BY IDOCK:   -4.05 KCAL/MOL
REMARK 922        TOTAL FREE ENERGY PREDICTED BY IDOCK:   -5.65 KCAL/MOL
REMARK 923 INTER-LIGAND FREE ENERGY PREDICTED BY IDOCK:   -4.74 KCAL/MOL
REMARK 924 INTRA-LIGAND FREE ENERGY PREDICTED BY IDOCK:   -0.90 KCAL/MOL
REMARK 927      BINDING AFFINITY PREDICTED BY RF-SCORE:    0.00 PKD
ROOT
HETATM    1  C   UNL     1     -11.022   6.273  67.900  1.00  0.00    -0.421 C  
HETATM    2  C   UNL     1     -10.794   7.223  69.035  1.00  0.00    -0.137 A  
HETATM    3  C   UNL     1     -10.504   8.539  68.603  1.00  0.00    -0.200 A  
HETATM    4  C   UNL     1     -10.351   9.596  69.490  1.00  0.00    -0.235 A  
HETATM    5  C   UNL     1     -10.519   9.354  70.844  1.00  0.00    -0.381 A  
HETATM    6  C   UNL     1     -10.056  10.911  68.990  1.00  0.00    -0.196 C  
HETATM    7  N   UNL     1      -9.818  11.951  68.550  1.00  0.00    -0.204 NA 
HETATM    8  C   UNL     1     -10.789   8.050  71.317  1.00  0.00    -0.267 A  
HETATM    9  C   UNL     1     -10.881   6.942  70.417  1.00  0.00    -0.261 A  
HETATM   10  C   UNL     1     -10.997   7.901  72.806  1.00  0.00    -0.456 C  
ENDROOT
BRANCH   9  11
HETATM   11  O   UNL     1     -10.888   5.712  71.064  1.00  0.00    -0.260 OA 
BRANCH  11  12
HETATM   12  C   UNL     1      -9.846   4.784  71.117  1.00  0.00    -0.190 A  
HETATM   13  C   UNL     1      -9.711   4.024  72.264  1.00  0.00    -0.156 A  
HETATM   14  C   UNL     1      -8.678   3.099  72.253  1.00  0.00    -0.079 A  
HETATM   15 BR   UNL     1     -10.839   4.225  73.769  1.00  0.00    -0.351 Br 
HETATM   16  N   UNL     1      -8.451   2.187  73.284  1.00  0.00    -0.065 NA 
HETATM   17  N   UNL     1      -7.849   2.947  71.208  1.00  0.00    -0.047 NA 
HETATM   18  H1  UNL     1      -7.691   1.507  73.276  1.00  0.00     0.000 HD 
HETATM   19  H2  UNL     1      -9.318   1.669  73.427  1.00  0.00     0.000 HD 
HETATM   20  C   UNL     1      -8.003   3.753  70.157  1.00  0.00    -0.047 A  
HETATM   21  N   UNL     1      -8.953   4.702  70.120  1.00  0.00    -0.086 NA 
BRANCH  20  22
HETATM   22  N   UNL     1      -7.222   3.619  69.002  1.00  0.00    -0.049 NA 
HETATM   23  H   UNL     1      -6.240   3.866  69.119  1.00  0.00     0.000 HD 
BRANCH  22  24
HETATM   24  C   UNL     1      -7.576   3.199  67.709  1.00  0.00    -0.061 A  
HETATM   25  C   UNL     1      -7.579   1.857  67.316  1.00  0.00    -0.060 A  
HETATM   26  C   UNL     1      -7.965   1.474  66.027  1.00  0.00    -0.073 A  
HETATM   27  C   UNL     1      -8.348   2.432  65.089  1.00  0.00    -0.095 A  
HETATM   28  C   UNL     1      -8.777   2.031  63.779  1.00  0.00    -0.085 C  
HETATM   29  C   UNL     1      -8.319   3.780  65.450  1.00  0.00    -0.105 A  
HETATM   30  C   UNL     1      -7.925   4.159  66.743  1.00  0.00    -0.097 A  
HETATM   31  N   UNL     1      -9.131   1.699  62.724  1.00  0.00    -0.082 NA 
ENDBRANCH  22  24
ENDBRANCH  20  22
ENDBRANCH  11  12
ENDBRANCH   9  11
TORSDOF 4
ENDMDL
MODEL      177
REMARK 921   NORMALIZED FREE ENERGY PREDICTED BY IDOCK:   -4.04 KCAL/MOL
REMARK 922        TOTAL FREE ENERGY PREDICTED BY IDOCK:   -5.65 KCAL/MOL
REMARK 923 INTER-LIGAND FREE ENERGY PREDICTED BY IDOCK:   -4.48 KCAL/MOL
REMARK 924 INTRA-LIGAND FREE ENERGY PREDICTED BY IDOCK:   -1.16 KCAL/MOL
REMARK 927      BINDING AFFINITY PREDICTED BY RF-SCORE:    0.00 PKD
ROOT
HETATM    1  C   UNL     1      -6.818   8.978  71.354  1.00  0.00    -0.073 C  
HETATM    2  C   UNL     1      -6.448   9.968  70.294  1.00  0.00    -0.117 A  
HETATM    3  C   UNL     1      -6.155  11.251  70.815  1.00  0.00     0.115 A  
HETATM    4  C   UNL     1      -5.700  12.292  70.016  1.00  0.00    -0.141 A  
HETATM    5  C   UNL     1      -5.498  12.052  68.667  1.00  0.00    -0.049 A  
HETATM    6  C   UNL     1      -5.420  13.574  70.605  1.00  0.00    -0.155 C  
HETATM    7  N   UNL     1      -5.209  14.588  71.113  1.00  0.00    -0.130 NA 
HETATM    8  C   UNL     1      -5.798  10.790  68.105  1.00  0.00    -0.049 A  
HETATM    9  C   UNL     1      -6.331   9.732  68.905  1.00  0.00    -0.041 A  
HETATM   10  C   UNL     1      -5.502  10.619  66.633  1.00  0.00    -0.060 C  
ENDROOT
BRANCH   9  11
HETATM   11  O   UNL     1      -6.808   8.665  68.154  1.00  0.00    -0.067 OA 
BRANCH  11  12
HETATM   12  C   UNL     1      -8.143   8.337  67.914  1.00  0.00    -0.127 A  
HETATM   13  C   UNL     1      -8.633   7.164  68.460  1.00  0.00    -0.124 A  
HETATM   14  C   UNL     1      -9.972   6.901  68.214  1.00  0.00    -0.153 A  
HETATM   15 BR   UNL     1      -7.561   5.974  69.467  1.00  0.00    -0.095 Br 
HETATM   16  N   UNL     1     -10.655   5.814  68.762  1.00  0.00    -0.248 NA 
HETATM   17  N   UNL     1     -10.752   7.715  67.488  1.00  0.00    -0.240 NA 
HETATM   18  H1  UNL     1     -11.639   5.619  68.581  1.00  0.00     0.000 HD 
HETATM   19  H2  UNL     1     -10.537   5.861  69.774  1.00  0.00     0.000 HD 
HETATM   20  C   UNL     1     -10.199   8.800  66.944  1.00  0.00    -0.287 A  
HETATM   21  N   UNL     1      -8.898   9.092  67.102  1.00  0.00    -0.119 NA 
BRANCH  20  22
HETATM   22  N   UNL     1     -10.957   9.734  66.226  1.00  0.00     0.281 NA 
HETATM   23  H   UNL     1     -11.766   9.347  65.740  1.00  0.00     0.000 HD 
BRANCH  22  24
HETATM   24  C   UNL     1     -10.780  11.119  66.066  1.00  0.00    -0.211 A  
HETATM   25  C   UNL     1     -10.143  11.685  64.957  1.00  0.00    -0.305 A  
HETATM   26  C   UNL     1     -10.011  13.071  64.820  1.00  0.00    -0.147 A  
HETATM   27  C   UNL     1     -10.507  13.930  65.800  1.00  0.00    -0.313 A  
HETATM   28  C   UNL     1     -10.401  15.353  65.636  1.00  0.00    -0.372 C  
HETATM   29  C   UNL     1     -11.116  13.384  66.932  1.00  0.00    -0.309 A  
HETATM   30  C   UNL     1     -11.240  11.992  67.067  1.00  0.00    -0.377 A  
HETATM   31  N   UNL     1     -10.320  16.502  65.494  1.00  0.00    -0.572 NA 
ENDBRANCH  22  24
ENDBRANCH  20  22
ENDBRANCH  11  12
ENDBRANCH   9  11
TORSDOF 4
ENDMDL
MODEL      178
REMARK 921   NORMALIZED FREE ENERGY PREDICTED BY IDOCK:   -4.04 KCAL/MOL
REMARK 922        TOTAL FREE ENERGY PREDICTED BY IDOCK:   -5.65 KCAL/MOL
REMARK 923 INTER-LIGAND FREE ENERGY PREDICTED BY IDOCK:   -6.56 KCAL/MOL
REMARK 924 INTRA-LIGAND FREE ENERGY PREDICTED BY IDOCK:    0.92 KCAL/MOL
REMARK 927      BINDING AFFINITY PREDICTED BY RF-SCORE:    0.00 PKD
ROOT
HETATM    1  C   UNL     1     -10.709  17.059  67.282  1.00  0.00    -0.206 C  
HETATM    2  C   UNL     1     -10.799  15.817  68.113  1.00  0.00    -0.307 A  
HETATM    3  C   UNL     1     -11.237  16.067  69.435  1.00  0.00    -0.349 A  
HETATM    4  C   UNL     1     -11.480  15.047  70.344  1.00  0.00    -0.321 A  
HETATM    5  C   UNL     1     -11.315  13.736  69.929  1.00  0.00    -0.150 A  
HETATM    6  C   UNL     1     -11.922  15.366  71.675  1.00  0.00    -0.387 C  
HETATM    7  N   UNL     1     -12.274  15.662  72.733  1.00  0.00    -0.407 NA 
HETATM    8  C   UNL     1     -10.860  13.445  68.623  1.00  0.00    -0.287 A  
HETATM    9  C   UNL     1     -10.542  14.490  67.700  1.00  0.00    -0.251 A  
HETATM   10  C   UNL     1     -10.754  11.983  68.255  1.00  0.00    -0.252 C  
ENDROOT
BRANCH   9  11
HETATM   11  O   UNL     1      -9.868  14.037  66.572  1.00  0.00    -0.272 OA 
BRANCH  11  12
HETATM   12  C   UNL     1     -10.282  13.036  65.692  1.00  0.00    -0.287 A  
HETATM   13  C   UNL     1     -11.508  13.182  65.069  1.00  0.00    -0.308 A  
HETATM   14  C   UNL     1     -11.856  12.173  64.184  1.00  0.00    -0.404 A  
HETATM   15 BR   UNL     1     -12.659  14.647  65.400  1.00  0.00    -0.008 Br 
HETATM   16  N   UNL     1     -13.011  12.202  63.402  1.00  0.00    -0.747 NA 
HETATM   17  N   UNL     1     -11.071  11.113  63.944  1.00  0.00    -0.239 NA 
HETATM   18  H1  UNL     1     -13.268  11.460  62.751  1.00  0.00     0.000 HD 
HETATM   19  H2  UNL     1     -12.998  13.076  62.874  1.00  0.00     0.000 HD 
HETATM   20  C   UNL     1      -9.927  11.008  64.622  1.00  0.00    -0.301 A  
HETATM   21  N   UNL     1      -9.549  11.924  65.528  1.00  0.00    -0.216 NA 
BRANCH  20  22
HETATM   22  N   UNL     1      -9.021   9.967  64.386  1.00  0.00    -0.221 NA 
HETATM   23  H   UNL     1      -8.935   9.686  63.409  1.00  0.00     0.000 HD 
BRANCH  22  24
HETATM   24  C   UNL     1      -8.210   9.246  65.279  1.00  0.00    -0.134 A  
HETATM   25  C   UNL     1      -6.832   9.087  65.102  1.00  0.00    -0.076 A  
HETATM   26  C   UNL     1      -6.053   8.385  66.028  1.00  0.00    -0.045 A  
HETATM   27  C   UNL     1      -6.638   7.811  67.156  1.00  0.00    -0.063 A  
HETATM   28  C   UNL     1      -5.828   7.124  68.122  1.00  0.00    -0.022 C  
HETATM   29  C   UNL     1      -8.018   7.929  67.334  1.00  0.00    -0.122 A  
HETATM   30  C   UNL     1      -8.796   8.629  66.398  1.00  0.00    -0.167 A  
HETATM   31  N   UNL     1      -5.167   6.577  68.903  1.00  0.00    -0.011 NA 
ENDBRANCH  22  24
ENDBRANCH  20  22
ENDBRANCH  11  12
ENDBRANCH   9  11
TORSDOF 4
ENDMDL
MODEL      179
REMARK 921   NORMALIZED FREE ENERGY PREDICTED BY IDOCK:   -3.95 KCAL/MOL
REMARK 922        TOTAL FREE ENERGY PREDICTED BY IDOCK:   -5.53 KCAL/MOL
REMARK 923 INTER-LIGAND FREE ENERGY PREDICTED BY IDOCK:   -4.94 KCAL/MOL
REMARK 924 INTRA-LIGAND FREE ENERGY PREDICTED BY IDOCK:   -0.58 KCAL/MOL
REMARK 927      BINDING AFFINITY PREDICTED BY RF-SCORE:    0.00 PKD
ROOT
HETATM    1  C   UNL     1      -9.231  14.564  68.246  1.00  0.00    -0.201 C  
HETATM    2  C   UNL     1      -8.720  15.970  68.288  1.00  0.00    -0.177 A  
HETATM    3  C   UNL     1      -9.700  16.925  67.924  1.00  0.00    -0.254 A  
HETATM    4  C   UNL     1      -9.466  18.291  67.987  1.00  0.00    -0.298 A  
HETATM    5  C   UNL     1      -8.237  18.733  68.449  1.00  0.00    -0.372 A  
HETATM    6  C   UNL     1     -10.502  19.212  67.602  1.00  0.00    -0.441 C  
HETATM    7  N   UNL     1     -11.358  19.918  67.284  1.00  0.00     0.183 NA 
HETATM    8  C   UNL     1      -7.225  17.812  68.804  1.00  0.00    -0.271 A  
HETATM    9  C   UNL     1      -7.432  16.402  68.679  1.00  0.00    -0.194 A  
HETATM   10  C   UNL     1      -5.938  18.396  69.337  1.00  0.00    -0.252 C  
ENDROOT
BRANCH   9  11
HETATM   11  O   UNL     1      -6.263  15.664  68.816  1.00  0.00    -0.101 OA 
BRANCH  11  12
HETATM   12  C   UNL     1      -6.106  14.458  69.500  1.00  0.00    -0.114 A  
HETATM   13  C   UNL     1      -5.630  14.502  70.797  1.00  0.00    -0.163 A  
HETATM   14  C   UNL     1      -5.519  13.279  71.439  1.00  0.00    -0.160 A  
HETATM   15 BR   UNL     1      -5.138  16.116  71.655  1.00  0.00     0.234 Br 
HETATM   16  N   UNL     1      -5.145  13.143  72.776  1.00  0.00    -0.371 NA 
HETATM   17  N   UNL     1      -5.841  12.117  70.850  1.00  0.00    -0.343 NA 
HETATM   18  H1  UNL     1      -5.063  12.243  73.249  1.00  0.00     0.000 HD 
HETATM   19  H2  UNL     1      -5.781  13.718  73.329  1.00  0.00     0.000 HD 
HETATM   20  C   UNL     1      -6.241  12.143  69.578  1.00  0.00    -0.124 A  
HETATM   21  N   UNL     1      -6.325  13.288  68.881  1.00  0.00    -0.089 NA 
BRANCH  20  22
HETATM   22  N   UNL     1      -6.655  10.984  68.910  1.00  0.00    -0.053 NA 
HETATM   23  H   UNL     1      -6.434  10.111  69.389  1.00  0.00     0.000 HD 
BRANCH  22  24
HETATM   24  C   UNL     1      -7.325  10.830  67.685  1.00  0.00    -0.094 A  
HETATM   25  C   UNL     1      -8.712  10.956  67.551  1.00  0.00    -0.130 A  
HETATM   26  C   UNL     1      -9.341  10.824  66.309  1.00  0.00    -0.205 A  
HETATM   27  C   UNL     1      -8.595  10.550  65.163  1.00  0.00    -0.187 A  
HETATM   28  C   UNL     1      -9.242  10.452  63.885  1.00  0.00    -0.266 C  
HETATM   29  C   UNL     1      -7.213  10.388  65.279  1.00  0.00    -0.106 A  
HETATM   30  C   UNL     1      -6.588  10.514  66.530  1.00  0.00    -0.100 A  
HETATM   31  N   UNL     1      -9.769  10.382  62.853  1.00  0.00    -0.293 NA 
ENDBRANCH  22  24
ENDBRANCH  20  22
ENDBRANCH  11  12
ENDBRANCH   9  11
TORSDOF 4
ENDMDL
MODEL      180
REMARK 921   NORMALIZED FREE ENERGY PREDICTED BY IDOCK:   -3.93 KCAL/MOL
REMARK 922        TOTAL FREE ENERGY PREDICTED BY IDOCK:   -5.50 KCAL/MOL
REMARK 923 INTER-LIGAND FREE ENERGY PREDICTED BY IDOCK:   -5.47 KCAL/MOL
REMARK 924 INTRA-LIGAND FREE ENERGY PREDICTED BY IDOCK:   -0.04 KCAL/MOL
REMARK 927      BINDING AFFINITY PREDICTED BY RF-SCORE:    0.00 PKD
ROOT
HETATM    1  C   UNL     1      -7.530  11.517  66.393  1.00  0.00     0.047 C  
HETATM    2  C   UNL     1      -8.400  10.499  67.063  1.00  0.00    -0.128 A  
HETATM    3  C   UNL     1      -8.283   9.210  66.489  1.00  0.00    -0.111 A  
HETATM    4  C   UNL     1      -8.930   8.101  67.016  1.00  0.00    -0.160 A  
HETATM    5  C   UNL     1      -9.693   8.260  68.161  1.00  0.00    -0.178 A  
HETATM    6  C   UNL     1      -8.773   6.817  66.386  1.00  0.00    -0.138 C  
HETATM    7  N   UNL     1      -8.624   5.805  65.853  1.00  0.00    -0.141 NA 
HETATM    8  C   UNL     1      -9.851   9.534  68.752  1.00  0.00    -0.177 A  
HETATM    9  C   UNL     1      -9.244  10.695  68.179  1.00  0.00    -0.148 A  
HETATM   10  C   UNL     1     -10.667   9.592  70.022  1.00  0.00    -0.298 C  
ENDROOT
BRANCH   9  11
HETATM   11  O   UNL     1      -9.711  11.883  68.727  1.00  0.00    -0.153 OA 
BRANCH  11  12
HETATM   12  C   UNL     1      -9.968  13.077  68.051  1.00  0.00    -0.233 A  
HETATM   13  C   UNL     1     -10.837  13.043  66.976  1.00  0.00    -0.261 A  
HETATM   14  C   UNL     1     -11.078  14.260  66.359  1.00  0.00    -0.325 A  
HETATM   15 BR   UNL     1     -11.644  11.446  66.360  1.00  0.00     0.278 Br 
HETATM   16  N   UNL     1     -11.994  14.428  65.320  1.00  0.00    -0.378 NA 
HETATM   17  N   UNL     1     -10.505  15.405  66.761  1.00  0.00    -0.293 NA 
HETATM   18  H1  UNL     1     -12.171  15.323  64.866  1.00  0.00     0.000 HD 
HETATM   19  H2  UNL     1     -12.892  14.073  65.649  1.00  0.00     0.000 HD 
HETATM   20  C   UNL     1      -9.633  15.355  67.769  1.00  0.00    -0.210 A  
HETATM   21  N   UNL     1      -9.318  14.203  68.382  1.00  0.00    -0.207 NA 
BRANCH  20  22
HETATM   22  N   UNL     1      -9.040  16.512  68.290  1.00  0.00    -0.208 NA 
HETATM   23  H   UNL     1      -9.181  16.653  69.290  1.00  0.00     0.000 HD 
BRANCH  22  24
HETATM   24  C   UNL     1      -8.281  17.510  67.656  1.00  0.00    -0.215 A  
HETATM   25  C   UNL     1      -8.179  18.817  68.142  1.00  0.00    -0.332 A  
HETATM   26  C   UNL     1      -7.390  19.777  67.498  1.00  0.00    -0.298 A  
HETATM   27  C   UNL     1      -6.688  19.453  66.337  1.00  0.00    -0.205 A  
HETATM   28  C   UNL     1      -5.851  20.431  65.701  1.00  0.00    -0.194 C  
HETATM   29  C   UNL     1      -6.803  18.163  65.816  1.00  0.00    -0.305 A  
HETATM   30  C   UNL     1      -7.602  17.207  66.463  1.00  0.00    -0.320 A  
HETATM   31  N   UNL     1      -5.171  21.224  65.197  1.00  0.00    -0.179 NA 
ENDBRANCH  22  24
ENDBRANCH  20  22
ENDBRANCH  11  12
ENDBRANCH   9  11
TORSDOF 4
ENDMDL
MODEL      181
REMARK 921   NORMALIZED FREE ENERGY PREDICTED BY IDOCK:   -3.93 KCAL/MOL
REMARK 922        TOTAL FREE ENERGY PREDICTED BY IDOCK:   -5.50 KCAL/MOL
REMARK 923 INTER-LIGAND FREE ENERGY PREDICTED BY IDOCK:   -4.79 KCAL/MOL
REMARK 924 INTRA-LIGAND FREE ENERGY PREDICTED BY IDOCK:   -0.71 KCAL/MOL
REMARK 927      BINDING AFFINITY PREDICTED BY RF-SCORE:    0.00 PKD
ROOT
HETATM    1  C   UNL     1     -10.192   6.411  73.928  1.00  0.00    -0.330 C  
HETATM    2  C   UNL     1     -10.236   7.468  72.869  1.00  0.00    -0.331 A  
HETATM    3  C   UNL     1     -11.509   8.072  72.744  1.00  0.00    -0.420 A  
HETATM    4  C   UNL     1     -11.746   9.139  71.888  1.00  0.00    -0.436 A  
HETATM    5  C   UNL     1     -10.687   9.647  71.153  1.00  0.00    -0.365 A  
HETATM    6  C   UNL     1     -13.063   9.710  71.806  1.00  0.00    -0.421 C  
HETATM    7  N   UNL     1     -14.133  10.140  71.766  1.00  0.00     0.216 NA 
HETATM    8  C   UNL     1      -9.404   9.058  71.234  1.00  0.00    -0.324 A  
HETATM    9  C   UNL     1      -9.166   7.916  72.061  1.00  0.00    -0.155 A  
HETATM   10  C   UNL     1      -8.309   9.713  70.425  1.00  0.00    -0.188 C  
ENDROOT
BRANCH   9  11
HETATM   11  O   UNL     1      -7.936   7.316  71.822  1.00  0.00    -0.094 OA 
BRANCH  11  12
HETATM   12  C   UNL     1      -7.662   6.292  70.913  1.00  0.00    -0.098 A  
HETATM   13  C   UNL     1      -7.234   5.076  71.412  1.00  0.00    -0.065 A  
HETATM   14  C   UNL     1      -7.004   4.087  70.469  1.00  0.00    -0.034 A  
HETATM   15 BR   UNL     1      -6.957   4.763  73.258  1.00  0.00    -0.076 Br 
HETATM   16  N   UNL     1      -6.657   2.776  70.797  1.00  0.00    -0.031 NA 
HETATM   17  N   UNL     1      -7.172   4.284  69.152  1.00  0.00    -0.051 NA 
HETATM   18  H1  UNL     1      -6.488   2.048  70.103  1.00  0.00     0.000 HD 
HETATM   19  H2  UNL     1      -7.372   2.425  71.435  1.00  0.00     0.000 HD 
HETATM   20  C   UNL     1      -7.533   5.499  68.737  1.00  0.00    -0.079 A  
HETATM   21  N   UNL     1      -7.727   6.516  69.592  1.00  0.00    -0.101 NA 
BRANCH  20  22
HETATM   22  N   UNL     1      -7.791   5.773  67.388  1.00  0.00    -0.101 NA 
HETATM   23  H   UNL     1      -7.376   6.636  67.038  1.00  0.00     0.000 HD 
BRANCH  22  24
HETATM   24  C   UNL     1      -8.530   5.047  66.438  1.00  0.00    -0.111 A  
HETATM   25  C   UNL     1      -9.912   5.193  66.272  1.00  0.00    -0.232 A  
HETATM   26  C   UNL     1     -10.610   4.473  65.296  1.00  0.00    -0.164 A  
HETATM   27  C   UNL     1      -9.941   3.577  64.463  1.00  0.00    -0.171 A  
HETATM   28  C   UNL     1     -10.656   2.869  63.439  1.00  0.00    -0.228 C  
HETATM   29  C   UNL     1      -8.567   3.392  64.635  1.00  0.00    -0.101 A  
HETATM   30  C   UNL     1      -7.874   4.111  65.621  1.00  0.00    -0.090 A  
HETATM   31  N   UNL     1     -11.238   2.306  62.608  1.00  0.00    -0.212 NA 
ENDBRANCH  22  24
ENDBRANCH  20  22
ENDBRANCH  11  12
ENDBRANCH   9  11
TORSDOF 4
ENDMDL
MODEL      182
REMARK 921   NORMALIZED FREE ENERGY PREDICTED BY IDOCK:   -3.89 KCAL/MOL
REMARK 922        TOTAL FREE ENERGY PREDICTED BY IDOCK:   -5.45 KCAL/MOL
REMARK 923 INTER-LIGAND FREE ENERGY PREDICTED BY IDOCK:   -5.27 KCAL/MOL
REMARK 924 INTRA-LIGAND FREE ENERGY PREDICTED BY IDOCK:   -0.18 KCAL/MOL
REMARK 927      BINDING AFFINITY PREDICTED BY RF-SCORE:    0.00 PKD
ROOT
HETATM    1  C   UNL     1     -10.542   9.646  68.858  1.00  0.00    -0.239 C  
HETATM    2  C   UNL     1      -9.527   8.546  68.896  1.00  0.00    -0.147 A  
HETATM    3  C   UNL     1      -9.917   7.464  69.721  1.00  0.00    -0.188 A  
HETATM    4  C   UNL     1      -9.168   6.300  69.824  1.00  0.00    -0.150 A  
HETATM    5  C   UNL     1      -8.012   6.187  69.069  1.00  0.00    -0.108 A  
HETATM    6  C   UNL     1      -9.617   5.235  70.681  1.00  0.00    -0.176 C  
HETATM    7  N   UNL     1     -10.009   4.404  71.378  1.00  0.00    -0.189 NA 
HETATM    8  C   UNL     1      -7.578   7.253  68.249  1.00  0.00    -0.118 A  
HETATM    9  C   UNL     1      -8.306   8.482  68.187  1.00  0.00    -0.127 A  
HETATM   10  C   UNL     1      -6.329   7.012  67.434  1.00  0.00    -0.042 C  
ENDROOT
BRANCH   9  11
HETATM   11  O   UNL     1      -7.608   9.500  67.550  1.00  0.00    -0.094 OA 
BRANCH  11  12
HETATM   12  C   UNL     1      -8.047  10.805  67.320  1.00  0.00    -0.117 A  
HETATM   13  C   UNL     1      -8.766  11.056  66.166  1.00  0.00    -0.184 A  
HETATM   14  C   UNL     1      -9.202  12.362  66.002  1.00  0.00    -0.050 A  
HETATM   15 BR   UNL     1      -9.131   9.723  64.873  1.00  0.00    -0.299 Br 
HETATM   16  N   UNL     1     -10.016  12.774  64.947  1.00  0.00    -0.491 NA 
HETATM   17  N   UNL     1      -8.942  13.333  66.891  1.00  0.00    -0.225 NA 
HETATM   18  H1  UNL     1     -10.336  13.735  64.825  1.00  0.00     0.000 HD 
HETATM   19  H2  UNL     1     -10.844  12.178  64.952  1.00  0.00     0.000 HD 
HETATM   20  C   UNL     1      -8.195  13.032  67.954  1.00  0.00    -0.166 A  
HETATM   21  N   UNL     1      -7.701  11.799  68.152  1.00  0.00    -0.116 NA 
BRANCH  20  22
HETATM   22  N   UNL     1      -7.930  13.969  68.960  1.00  0.00    -0.326 NA 
HETATM   23  H   UNL     1      -8.024  13.614  69.912  1.00  0.00     0.000 HD 
BRANCH  22  24
HETATM   24  C   UNL     1      -7.557  15.321  68.869  1.00  0.00    -0.152 A  
HETATM   25  C   UNL     1      -8.065  16.189  67.897  1.00  0.00    -0.152 A  
HETATM   26  C   UNL     1      -7.690  17.537  67.855  1.00  0.00    -0.213 A  
HETATM   27  C   UNL     1      -6.785  18.050  68.784  1.00  0.00    -0.248 A  
HETATM   28  C   UNL     1      -6.433  19.442  68.758  1.00  0.00    -0.261 C  
HETATM   29  C   UNL     1      -6.241  17.192  69.741  1.00  0.00    -0.204 A  
HETATM   30  C   UNL     1      -6.615  15.839  69.774  1.00  0.00    -0.154 A  
HETATM   31  N   UNL     1      -6.159  20.569  68.738  1.00  0.00    -0.333 NA 
ENDBRANCH  22  24
ENDBRANCH  20  22
ENDBRANCH  11  12
ENDBRANCH   9  11
TORSDOF 4
ENDMDL
MODEL      183
REMARK 921   NORMALIZED FREE ENERGY PREDICTED BY IDOCK:   -3.85 KCAL/MOL
REMARK 922        TOTAL FREE ENERGY PREDICTED BY IDOCK:   -5.41 KCAL/MOL
REMARK 923 INTER-LIGAND FREE ENERGY PREDICTED BY IDOCK:   -4.98 KCAL/MOL
REMARK 924 INTRA-LIGAND FREE ENERGY PREDICTED BY IDOCK:   -0.43 KCAL/MOL
REMARK 927      BINDING AFFINITY PREDICTED BY RF-SCORE:    0.00 PKD
ROOT
HETATM    1  C   UNL     1      -6.767   9.981  69.420  1.00  0.00    -0.060 C  
HETATM    2  C   UNL     1      -6.661   8.531  69.062  1.00  0.00    -0.052 A  
HETATM    3  C   UNL     1      -6.170   7.734  70.124  1.00  0.00    -0.033 A  
HETATM    4  C   UNL     1      -6.083   6.352  70.038  1.00  0.00    -0.030 A  
HETATM    5  C   UNL     1      -6.520   5.731  68.879  1.00  0.00    -0.045 A  
HETATM    6  C   UNL     1      -5.574   5.597  71.151  1.00  0.00    -0.013 C  
HETATM    7  N   UNL     1      -5.160   5.028  72.065  1.00  0.00    -0.004 NA 
HETATM    8  C   UNL     1      -6.999   6.493  67.788  1.00  0.00    -0.082 A  
HETATM    9  C   UNL     1      -7.029   7.921  67.841  1.00  0.00    -0.077 A  
HETATM   10  C   UNL     1      -7.491   5.718  66.588  1.00  0.00    -0.084 C  
ENDROOT
BRANCH   9  11
HETATM   11  O   UNL     1      -7.275   8.509  66.606  1.00  0.00    -0.072 OA 
BRANCH  11  12
HETATM   12  C   UNL     1      -8.307   9.392  66.285  1.00  0.00    -0.115 A  
HETATM   13  C   UNL     1      -8.349   9.904  65.002  1.00  0.00    -0.148 A  
HETATM   14  C   UNL     1      -9.410  10.754  64.729  1.00  0.00    -0.226 A  
HETATM   15 BR   UNL     1      -7.046   9.499  63.691  1.00  0.00    -0.111 Br 
HETATM   16  N   UNL     1      -9.662  11.289  63.465  1.00  0.00    -0.302 NA 
HETATM   17  N   UNL     1     -10.338  11.076  65.643  1.00  0.00    -0.253 NA 
HETATM   18  H1  UNL     1     -10.442  11.914  63.264  1.00  0.00     0.000 HD 
HETATM   19  H2  UNL     1      -9.725  10.507  62.812  1.00  0.00     0.000 HD 
HETATM   20  C   UNL     1     -10.204  10.589  66.878  1.00  0.00    -0.229 A  
HETATM   21  N   UNL     1      -9.175   9.798  67.223  1.00  0.00    -0.134 NA 
BRANCH  20  22
HETATM   22  N   UNL     1     -11.161  10.824  67.873  1.00  0.00    -0.287 NA 
HETATM   23  H   UNL     1     -11.794  10.045  68.050  1.00  0.00     0.000 HD 
BRANCH  22  24
HETATM   24  C   UNL     1     -11.388  11.962  68.666  1.00  0.00    -0.276 A  
HETATM   25  C   UNL     1     -12.068  11.918  69.887  1.00  0.00    -0.344 A  
HETATM   26  C   UNL     1     -12.250  13.068  70.663  1.00  0.00    -0.390 A  
HETATM   27  C   UNL     1     -11.764  14.300  70.228  1.00  0.00    -0.343 A  
HETATM   28  C   UNL     1     -11.922  15.470  71.045  1.00  0.00    -0.381 C  
HETATM   29  C   UNL     1     -11.111  14.372  68.995  1.00  0.00    -0.282 A  
HETATM   30  C   UNL     1     -10.938  13.216  68.218  1.00  0.00    -0.278 A  
HETATM   31  N   UNL     1     -12.045  16.410  71.714  1.00  0.00    -0.325 NA 
ENDBRANCH  22  24
ENDBRANCH  20  22
ENDBRANCH  11  12
ENDBRANCH   9  11
TORSDOF 4
ENDMDL
MODEL      184
REMARK 921   NORMALIZED FREE ENERGY PREDICTED BY IDOCK:   -3.78 KCAL/MOL
REMARK 922        TOTAL FREE ENERGY PREDICTED BY IDOCK:   -5.31 KCAL/MOL
REMARK 923 INTER-LIGAND FREE ENERGY PREDICTED BY IDOCK:   -4.38 KCAL/MOL
REMARK 924 INTRA-LIGAND FREE ENERGY PREDICTED BY IDOCK:   -0.94 KCAL/MOL
REMARK 927      BINDING AFFINITY PREDICTED BY RF-SCORE:    0.00 PKD
ROOT
HETATM    1  C   UNL     1     -10.452  12.341  65.477  1.00  0.00    -0.296 C  
HETATM    2  C   UNL     1     -10.586  11.254  66.498  1.00  0.00    -0.315 A  
HETATM    3  C   UNL     1     -11.123  11.713  67.724  1.00  0.00    -0.309 A  
HETATM    4  C   UNL     1     -11.419  10.854  68.774  1.00  0.00    -0.376 A  
HETATM    5  C   UNL     1     -11.205   9.496  68.600  1.00  0.00     0.060 A  
HETATM    6  C   UNL     1     -11.962  11.381  69.997  1.00  0.00    -0.363 C  
HETATM    7  N   UNL     1     -12.395  11.841  70.962  1.00  0.00    -0.334 NA 
HETATM    8  C   UNL     1     -10.651   9.001  67.397  1.00  0.00    -0.309 A  
HETATM    9  C   UNL     1     -10.281   9.884  66.335  1.00  0.00    -0.222 A  
HETATM   10  C   UNL     1     -10.499   7.502  67.291  1.00  0.00    -0.391 C  
ENDROOT
BRANCH   9  11
HETATM   11  O   UNL     1      -9.520   9.266  65.350  1.00  0.00    -0.254 OA 
BRANCH  11  12
HETATM   12  C   UNL     1      -8.127   9.219  65.269  1.00  0.00    -0.121 A  
HETATM   13  C   UNL     1      -7.516   9.847  64.199  1.00  0.00    -0.139 A  
HETATM   14  C   UNL     1      -6.131   9.794  64.183  1.00  0.00    -0.114 A  
HETATM   15 BR   UNL     1      -8.488  10.714  62.826  1.00  0.00    -0.214 Br 
HETATM   16  N   UNL     1      -5.348  10.448  63.231  1.00  0.00    -0.137 NA 
HETATM   17  N   UNL     1      -5.416   9.170  65.131  1.00  0.00    -0.041 NA 
HETATM   18  H1  UNL     1      -4.329  10.409  63.219  1.00  0.00     0.000 HD 
HETATM   19  H2  UNL     1      -5.612  11.434  63.247  1.00  0.00     0.000 HD 
HETATM   20  C   UNL     1      -6.073   8.537  66.104  1.00  0.00    -0.052 A  
HETATM   21  N   UNL     1      -7.415   8.508  66.156  1.00  0.00    -0.088 NA 
BRANCH  20  22
HETATM   22  N   UNL     1      -5.403   7.916  67.165  1.00  0.00    -0.031 NA 
HETATM   23  H   UNL     1      -4.410   8.139  67.234  1.00  0.00     0.000 HD 
BRANCH  22  24
HETATM   24  C   UNL     1      -5.879   7.035  68.151  1.00  0.00    -0.022 A  
HETATM   25  C   UNL     1      -5.981   7.383  69.502  1.00  0.00    -0.027 A  
HETATM   26  C   UNL     1      -6.487   6.487  70.450  1.00  0.00    -0.044 A  
HETATM   27  C   UNL     1      -6.895   5.209  70.070  1.00  0.00    -0.052 A  
HETATM   28  C   UNL     1      -7.448   4.308  71.042  1.00  0.00    -0.048 C  
HETATM   29  C   UNL     1      -6.771   4.830  68.732  1.00  0.00    -0.050 A  
HETATM   30  C   UNL     1      -6.256   5.731  67.786  1.00  0.00    -0.030 A  
HETATM   31  N   UNL     1      -7.901   3.587  71.830  1.00  0.00    -0.060 NA 
ENDBRANCH  22  24
ENDBRANCH  20  22
ENDBRANCH  11  12
ENDBRANCH   9  11
TORSDOF 4
ENDMDL
MODEL      185
REMARK 921   NORMALIZED FREE ENERGY PREDICTED BY IDOCK:   -3.74 KCAL/MOL
REMARK 922        TOTAL FREE ENERGY PREDICTED BY IDOCK:   -5.27 KCAL/MOL
REMARK 923 INTER-LIGAND FREE ENERGY PREDICTED BY IDOCK:   -4.69 KCAL/MOL
REMARK 924 INTRA-LIGAND FREE ENERGY PREDICTED BY IDOCK:   -0.59 KCAL/MOL
REMARK 927      BINDING AFFINITY PREDICTED BY RF-SCORE:    0.00 PKD
ROOT
HETATM    1  C   UNL     1      -9.997   5.031  68.708  1.00  0.00    -0.225 C  
HETATM    2  C   UNL     1      -8.964   5.651  67.819  1.00  0.00    -0.107 A  
HETATM    3  C   UNL     1      -8.635   4.841  66.706  1.00  0.00    -0.108 A  
HETATM    4  C   UNL     1      -7.770   5.265  65.707  1.00  0.00    -0.091 A  
HETATM    5  C   UNL     1      -7.234   6.540  65.792  1.00  0.00    -0.070 A  
HETATM    6  C   UNL     1      -7.475   4.395  64.600  1.00  0.00    -0.072 C  
HETATM    7  N   UNL     1      -7.261   3.668  63.730  1.00  0.00    -0.050 NA 
HETATM    8  C   UNL     1      -7.522   7.372  66.898  1.00  0.00    -0.097 A  
HETATM    9  C   UNL     1      -8.357   6.919  67.966  1.00  0.00    -0.121 A  
HETATM   10  C   UNL     1      -6.921   8.758  66.873  1.00  0.00    -0.074 C  
ENDROOT
BRANCH   9  11
HETATM   11  O   UNL     1      -8.321   7.750  69.079  1.00  0.00    -0.128 OA 
BRANCH  11  12
HETATM   12  C   UNL     1      -9.279   8.691  69.457  1.00  0.00    -0.150 A  
HETATM   13  C   UNL     1     -10.022   8.442  70.596  1.00  0.00    -0.185 A  
HETATM   14  C   UNL     1     -10.939   9.422  70.942  1.00  0.00    -0.320 A  
HETATM   15 BR   UNL     1      -9.828   6.865  71.624  1.00  0.00    -0.179 Br 
HETATM   16  N   UNL     1     -11.707   9.381  72.106  1.00  0.00    -0.191 NA 
HETATM   17  N   UNL     1     -11.114  10.542  70.222  1.00  0.00    -0.303 NA 
HETATM   18  H1  UNL     1     -12.382  10.102  72.360  1.00  0.00     0.000 HD 
HETATM   19  H2  UNL     1     -11.063   9.280  72.890  1.00  0.00     0.000 HD 
HETATM   20  C   UNL     1     -10.402  10.690  69.104  1.00  0.00    -0.221 A  
HETATM   21  N   UNL     1      -9.530   9.759  68.685  1.00  0.00    -0.148 NA 
BRANCH  20  22
HETATM   22  N   UNL     1     -10.477  11.855  68.330  1.00  0.00    -0.211 NA 
HETATM   23  H   UNL     1     -11.148  11.818  67.563  1.00  0.00     0.000 HD 
BRANCH  22  24
HETATM   24  C   UNL     1      -9.776  13.068  68.442  1.00  0.00    -0.192 A  
HETATM   25  C   UNL     1      -8.446  13.221  68.038  1.00  0.00    -0.170 A  
HETATM   26  C   UNL     1      -7.790  14.453  68.138  1.00  0.00    -0.138 A  
HETATM   27  C   UNL     1      -8.448  15.566  68.659  1.00  0.00    -0.174 A  
HETATM   28  C   UNL     1      -7.782  16.836  68.726  1.00  0.00    -0.242 C  
HETATM   29  C   UNL     1      -9.766  15.426  69.100  1.00  0.00    -0.252 A  
HETATM   30  C   UNL     1     -10.417  14.186  69.002  1.00  0.00    -0.193 A  
HETATM   31  N   UNL     1      -7.240  17.861  68.769  1.00  0.00    -0.270 NA 
ENDBRANCH  22  24
ENDBRANCH  20  22
ENDBRANCH  11  12
ENDBRANCH   9  11
TORSDOF 4
ENDMDL
MODEL      186
REMARK 921   NORMALIZED FREE ENERGY PREDICTED BY IDOCK:   -3.72 KCAL/MOL
REMARK 922        TOTAL FREE ENERGY PREDICTED BY IDOCK:   -5.24 KCAL/MOL
REMARK 923 INTER-LIGAND FREE ENERGY PREDICTED BY IDOCK:   -4.24 KCAL/MOL
REMARK 924 INTRA-LIGAND FREE ENERGY PREDICTED BY IDOCK:   -1.00 KCAL/MOL
REMARK 927      BINDING AFFINITY PREDICTED BY RF-SCORE:    0.00 PKD
ROOT
HETATM    1  C   UNL     1     -10.912   5.781  69.235  1.00  0.00    -0.330 C  
HETATM    2  C   UNL     1     -10.838   6.507  70.542  1.00  0.00    -0.323 A  
HETATM    3  C   UNL     1     -11.274   7.851  70.453  1.00  0.00    -0.240 A  
HETATM    4  C   UNL     1     -11.375   8.675  71.565  1.00  0.00    -0.358 A  
HETATM    5  C   UNL     1     -11.064   8.151  72.809  1.00  0.00    -0.407 A  
HETATM    6  C   UNL     1     -11.824  10.033  71.409  1.00  0.00    -0.363 C  
HETATM    7  N   UNL     1     -12.186  11.115  71.243  1.00  0.00    -0.278 NA 
HETATM    8  C   UNL     1     -10.606   6.820  72.937  1.00  0.00    -0.278 A  
HETATM    9  C   UNL     1     -10.433   5.983  71.791  1.00  0.00    -0.221 A  
HETATM   10  C   UNL     1     -10.335   6.332  74.342  1.00  0.00    -0.278 C  
ENDROOT
BRANCH   9  11
HETATM   11  O   UNL     1      -9.735   4.814  72.067  1.00  0.00    -0.150 OA 
BRANCH  11  12
HETATM   12  C   UNL     1      -8.355   4.620  71.987  1.00  0.00    -0.117 A  
HETATM   13  C   UNL     1      -7.763   3.771  72.904  1.00  0.00    -0.073 A  
HETATM   14  C   UNL     1      -6.396   3.593  72.762  1.00  0.00    -0.013 A  
HETATM   15 BR   UNL     1      -8.733   2.911  74.282  1.00  0.00    -0.080 Br 
HETATM   16  N   UNL     1      -5.651   2.704  73.539  1.00  0.00     0.000 NA 
HETATM   17  N   UNL     1      -5.677   4.205  71.808  1.00  0.00    -0.008 NA 
HETATM   18  H1  UNL     1      -4.645   2.573  73.435  1.00  0.00     0.000 HD 
HETATM   19  H2  UNL     1      -6.087   1.786  73.450  1.00  0.00     0.000 HD 
HETATM   20  C   UNL     1      -6.305   5.053  70.992  1.00  0.00    -0.023 A  
HETATM   21  N   UNL     1      -7.618   5.309  71.103  1.00  0.00    -0.093 NA 
BRANCH  20  22
HETATM   22  N   UNL     1      -5.642   5.684  69.932  1.00  0.00    -0.008 NA 
HETATM   23  H   UNL     1      -4.708   5.325  69.735  1.00  0.00     0.000 HD 
BRANCH  22  24
HETATM   24  C   UNL     1      -6.058   6.733  69.094  1.00  0.00    -0.026 A  
HETATM   25  C   UNL     1      -5.415   7.974  69.047  1.00  0.00    -0.030 A  
HETATM   26  C   UNL     1      -5.842   8.985  68.179  1.00  0.00    -0.039 A  
HETATM   27  C   UNL     1      -6.936   8.782  67.339  1.00  0.00    -0.075 A  
HETATM   28  C   UNL     1      -7.347   9.810  66.424  1.00  0.00    -0.095 C  
HETATM   29  C   UNL     1      -7.613   7.562  67.395  1.00  0.00    -0.109 A  
HETATM   30  C   UNL     1      -7.185   6.554  68.273  1.00  0.00    -0.085 A  
HETATM   31  N   UNL     1      -7.668  10.642  65.682  1.00  0.00    -0.140 NA 
ENDBRANCH  22  24
ENDBRANCH  20  22
ENDBRANCH  11  12
ENDBRANCH   9  11
TORSDOF 4
ENDMDL
MODEL      187
REMARK 921   NORMALIZED FREE ENERGY PREDICTED BY IDOCK:   -3.64 KCAL/MOL
REMARK 922        TOTAL FREE ENERGY PREDICTED BY IDOCK:   -5.15 KCAL/MOL
REMARK 923 INTER-LIGAND FREE ENERGY PREDICTED BY IDOCK:   -6.16 KCAL/MOL
REMARK 924 INTRA-LIGAND FREE ENERGY PREDICTED BY IDOCK:    1.01 KCAL/MOL
REMARK 927      BINDING AFFINITY PREDICTED BY RF-SCORE:    0.00 PKD
ROOT
HETATM    1  C   UNL     1      -5.373  10.365  66.589  1.00  0.00    -0.044 C  
HETATM    2  C   UNL     1      -6.558   9.805  67.314  1.00  0.00    -0.070 A  
HETATM    3  C   UNL     1      -6.527   8.393  67.412  1.00  0.00    -0.058 A  
HETATM    4  C   UNL     1      -7.479   7.677  68.125  1.00  0.00    -0.108 A  
HETATM    5  C   UNL     1      -8.476   8.375  68.786  1.00  0.00    -0.124 A  
HETATM    6  C   UNL     1      -7.394   6.242  68.187  1.00  0.00    -0.089 C  
HETATM    7  N   UNL     1      -7.293   5.094  68.213  1.00  0.00    -0.070 NA 
HETATM    8  C   UNL     1      -8.553   9.784  68.695  1.00  0.00    -0.121 A  
HETATM    9  C   UNL     1      -7.617  10.526  67.908  1.00  0.00    -0.092 A  
HETATM   10  C   UNL     1      -9.652  10.452  69.488  1.00  0.00    -0.182 C  
ENDROOT
BRANCH   9  11
HETATM   11  O   UNL     1      -7.992  11.851  67.719  1.00  0.00    -0.127 OA 
BRANCH  11  12
HETATM   12  C   UNL     1      -9.196  12.316  67.188  1.00  0.00    -0.196 A  
HETATM   13  C   UNL     1      -9.720  11.659  66.090  1.00  0.00    -0.229 A  
HETATM   14  C   UNL     1     -10.930  12.145  65.620  1.00  0.00    -0.295 A  
HETATM   15 BR   UNL     1      -8.851  10.199  65.256  1.00  0.00    -0.223 Br 
HETATM   16  N   UNL     1     -11.647  11.549  64.582  1.00  0.00    -0.125 NA 
HETATM   17  N   UNL     1     -11.560  13.190  66.178  1.00  0.00    -0.338 NA 
HETATM   18  H1  UNL     1     -12.537  11.906  64.236  1.00  0.00     0.000 HD 
HETATM   19  H2  UNL     1     -11.792  10.571  64.836  1.00  0.00     0.000 HD 
HETATM   20  C   UNL     1     -10.969  13.811  67.200  1.00  0.00    -0.290 A  
HETATM   21  N   UNL     1      -9.775  13.424  67.675  1.00  0.00    -0.217 NA 
BRANCH  20  22
HETATM   22  N   UNL     1     -11.588  14.869  67.878  1.00  0.00    -0.339 NA 
HETATM   23  H   UNL     1     -11.883  15.644  67.284  1.00  0.00     0.000 HD 
BRANCH  22  24
HETATM   24  C   UNL     1     -11.866  15.034  69.245  1.00  0.00    -0.315 A  
HETATM   25  C   UNL     1     -12.391  14.015  70.046  1.00  0.00    -0.397 A  
HETATM   26  C   UNL     1     -12.629  14.208  71.411  1.00  0.00    -0.445 A  
HETATM   27  C   UNL     1     -12.357  15.438  72.010  1.00  0.00    -0.450 A  
HETATM   28  C   UNL     1     -12.569  15.619  73.419  1.00  0.00    -0.533 C  
HETATM   29  C   UNL     1     -11.865  16.479  71.222  1.00  0.00     0.045 A  
HETATM   30  C   UNL     1     -11.634  16.281  69.851  1.00  0.00    -0.140 A  
HETATM   31  N   UNL     1     -12.734  15.757  74.559  1.00  0.00    -0.585 NA 
ENDBRANCH  22  24
ENDBRANCH  20  22
ENDBRANCH  11  12
ENDBRANCH   9  11
TORSDOF 4
ENDMDL
MODEL      188
REMARK 921   NORMALIZED FREE ENERGY PREDICTED BY IDOCK:   -3.59 KCAL/MOL
REMARK 922        TOTAL FREE ENERGY PREDICTED BY IDOCK:   -5.08 KCAL/MOL
REMARK 923 INTER-LIGAND FREE ENERGY PREDICTED BY IDOCK:   -4.23 KCAL/MOL
REMARK 924 INTRA-LIGAND FREE ENERGY PREDICTED BY IDOCK:   -0.85 KCAL/MOL
REMARK 927      BINDING AFFINITY PREDICTED BY RF-SCORE:    0.00 PKD
ROOT
HETATM    1  C   UNL     1      -7.520   8.554  67.683  1.00  0.00    -0.094 C  
HETATM    2  C   UNL     1      -6.989   9.632  68.575  1.00  0.00    -0.065 A  
HETATM    3  C   UNL     1      -6.534   9.143  69.823  1.00  0.00    -0.039 A  
HETATM    4  C   UNL     1      -5.918   9.958  70.762  1.00  0.00    -0.092 A  
HETATM    5  C   UNL     1      -5.717  11.293  70.451  1.00  0.00    -0.146 A  
HETATM    6  C   UNL     1      -5.478   9.401  72.013  1.00  0.00    -0.071 C  
HETATM    7  N   UNL     1      -5.141   8.918  73.005  1.00  0.00    -0.062 NA 
HETATM    8  C   UNL     1      -6.175  11.825  69.224  1.00  0.00    -0.092 A  
HETATM    9  C   UNL     1      -6.871  11.009  68.278  1.00  0.00    -0.067 A  
HETATM   10  C   UNL     1      -5.868  13.281  68.963  1.00  0.00    -0.079 C  
ENDROOT
BRANCH   9  11
HETATM   11  O   UNL     1      -7.472  11.742  67.262  1.00  0.00    -0.133 OA 
BRANCH  11  12
HETATM   12  C   UNL     1      -8.772  11.594  66.775  1.00  0.00    -0.189 A  
HETATM   13  C   UNL     1      -8.938  11.366  65.422  1.00  0.00    -0.047 A  
HETATM   14  C   UNL     1     -10.247  11.200  64.997  1.00  0.00    -0.296 A  
HETATM   15 BR   UNL     1      -7.489  11.298  64.206  1.00  0.00     1.566 Br 
HETATM   16  N   UNL     1     -10.594  10.872  63.686  1.00  0.00    -0.545 NA 
HETATM   17  N   UNL     1     -11.296  11.262  65.831  1.00  0.00    -0.103 NA 
HETATM   18  H1  UNL     1     -11.557  10.749  63.373  1.00  0.00     0.000 HD 
HETATM   19  H2  UNL     1     -10.087  10.021  63.442  1.00  0.00     0.000 HD 
HETATM   20  C   UNL     1     -11.066  11.542  67.115  1.00  0.00    -0.297 A  
HETATM   21  N   UNL     1      -9.828  11.761  67.585  1.00  0.00    -0.182 NA 
BRANCH  20  22
HETATM   22  N   UNL     1     -12.097  11.563  68.062  1.00  0.00    -0.598 NA 
HETATM   23  H   UNL     1     -12.830  10.870  67.913  1.00  0.00     0.000 HD 
BRANCH  22  24
HETATM   24  C   UNL     1     -12.284  12.387  69.185  1.00  0.00    -0.009 A  
HETATM   25  C   UNL     1     -12.658  11.895  70.440  1.00  0.00    -0.153 A  
HETATM   26  C   UNL     1     -12.807  12.744  71.542  1.00  0.00    -0.369 A  
HETATM   27  C   UNL     1     -12.595  14.116  71.413  1.00  0.00    -0.445 A  
HETATM   28  C   UNL     1     -12.714  14.978  72.556  1.00  0.00    -0.353 C  
HETATM   29  C   UNL     1     -12.255  14.632  70.161  1.00  0.00    -0.391 A  
HETATM   30  C   UNL     1     -12.113  13.777  69.057  1.00  0.00    -0.359 A  
HETATM   31  N   UNL     1     -12.804  15.667  73.485  1.00  0.00    -0.521 NA 
ENDBRANCH  22  24
ENDBRANCH  20  22
ENDBRANCH  11  12
ENDBRANCH   9  11
TORSDOF 4
ENDMDL
MODEL      189
REMARK 921   NORMALIZED FREE ENERGY PREDICTED BY IDOCK:   -3.51 KCAL/MOL
REMARK 922        TOTAL FREE ENERGY PREDICTED BY IDOCK:   -4.98 KCAL/MOL
REMARK 923 INTER-LIGAND FREE ENERGY PREDICTED BY IDOCK:   -5.82 KCAL/MOL
REMARK 924 INTRA-LIGAND FREE ENERGY PREDICTED BY IDOCK:    0.84 KCAL/MOL
REMARK 927      BINDING AFFINITY PREDICTED BY RF-SCORE:    0.00 PKD
ROOT
HETATM    1  C   UNL     1      -5.926   8.845  66.175  1.00  0.00    -0.055 C  
HETATM    2  C   UNL     1      -7.178   8.802  66.996  1.00  0.00    -0.079 A  
HETATM    3  C   UNL     1      -7.518   7.494  67.417  1.00  0.00    -0.104 A  
HETATM    4  C   UNL     1      -8.588   7.240  68.264  1.00  0.00    -0.123 A  
HETATM    5  C   UNL     1      -9.328   8.312  68.736  1.00  0.00    -0.143 A  
HETATM    6  C   UNL     1      -8.883   5.888  68.656  1.00  0.00    -0.111 C  
HETATM    7  N   UNL     1      -9.090   4.791  68.945  1.00  0.00    -0.109 NA 
HETATM    8  C   UNL     1      -9.033   9.631  68.324  1.00  0.00    -0.123 A  
HETATM    9  C   UNL     1      -7.976   9.897  67.398  1.00  0.00    -0.106 A  
HETATM   10  C   UNL     1      -9.872  10.731  68.930  1.00  0.00    -0.209 C  
ENDROOT
BRANCH   9  11
HETATM   11  O   UNL     1      -7.995  11.196  66.906  1.00  0.00    -0.137 OA 
BRANCH  11  12
HETATM   12  C   UNL     1      -9.078  11.861  66.328  1.00  0.00    -0.188 A  
HETATM   13  C   UNL     1      -9.776  11.216  65.323  1.00  0.00    -0.241 A  
HETATM   14  C   UNL     1     -10.859  11.909  64.804  1.00  0.00    -0.307 A  
HETATM   15 BR   UNL     1      -9.293   9.507  64.671  1.00  0.00    -0.099 Br 
HETATM   16  N   UNL     1     -11.728  11.376  63.852  1.00  0.00    -0.382 NA 
HETATM   17  N   UNL     1     -11.213  13.131  65.232  1.00  0.00    -0.288 NA 
HETATM   18  H1  UNL     1     -12.524  11.886  63.470  1.00  0.00     0.000 HD 
HETATM   19  H2  UNL     1     -12.083  10.496  64.226  1.00  0.00     0.000 HD 
HETATM   20  C   UNL     1     -10.461  13.716  66.165  1.00  0.00    -0.297 A  
HETATM   21  N   UNL     1      -9.372  13.122  66.678  1.00  0.00    -0.250 NA 
BRANCH  20  22
HETATM   22  N   UNL     1     -10.798  14.961  66.711  1.00  0.00    -0.314 NA 
HETATM   23  H   UNL     1     -11.799  15.128  66.812  1.00  0.00     0.000 HD 
BRANCH  22  24
HETATM   24  C   UNL     1      -9.977  16.017  67.141  1.00  0.00    -0.249 A  
HETATM   25  C   UNL     1      -9.299  16.009  68.364  1.00  0.00    -0.207 A  
HETATM   26  C   UNL     1      -8.468  17.067  68.746  1.00  0.00    -0.237 A  
HETATM   27  C   UNL     1      -8.302  18.173  67.913  1.00  0.00    -0.254 A  
HETATM   28  C   UNL     1      -7.419  19.240  68.294  1.00  0.00    -0.300 C  
HETATM   29  C   UNL     1      -8.996  18.217  66.703  1.00  0.00    -0.296 A  
HETATM   30  C   UNL     1      -9.834  17.155  66.328  1.00  0.00    -0.306 A  
HETATM   31  N   UNL     1      -6.698  20.095  68.603  1.00  0.00    -0.305 NA 
ENDBRANCH  22  24
ENDBRANCH  20  22
ENDBRANCH  11  12
ENDBRANCH   9  11
TORSDOF 4
ENDMDL
MODEL      190
REMARK 921   NORMALIZED FREE ENERGY PREDICTED BY IDOCK:   -3.50 KCAL/MOL
REMARK 922        TOTAL FREE ENERGY PREDICTED BY IDOCK:   -4.97 KCAL/MOL
REMARK 923 INTER-LIGAND FREE ENERGY PREDICTED BY IDOCK:   -4.51 KCAL/MOL
REMARK 924 INTRA-LIGAND FREE ENERGY PREDICTED BY IDOCK:   -0.46 KCAL/MOL
REMARK 927      BINDING AFFINITY PREDICTED BY RF-SCORE:    0.00 PKD
ROOT
HETATM    1  C   UNL     1      -6.276  12.971  69.912  1.00  0.00    -0.089 C  
HETATM    2  C   UNL     1      -7.170  13.860  69.105  1.00  0.00    -0.038 A  
HETATM    3  C   UNL     1      -6.853  15.232  69.241  1.00  0.00    -0.155 A  
HETATM    4  C   UNL     1      -7.496  16.221  68.509  1.00  0.00    -0.176 A  
HETATM    5  C   UNL     1      -8.462  15.843  67.591  1.00  0.00    -0.170 A  
HETATM    6  C   UNL     1      -7.129  17.599  68.693  1.00  0.00    -0.245 C  
HETATM    7  N   UNL     1      -6.808  18.693  68.870  1.00  0.00    -0.276 NA 
HETATM    8  C   UNL     1      -8.822  14.484  67.439  1.00  0.00    -0.207 A  
HETATM    9  C   UNL     1      -8.214  13.465  68.237  1.00  0.00    -0.160 A  
HETATM   10  C   UNL     1      -9.855  14.173  66.381  1.00  0.00    -0.308 C  
ENDROOT
BRANCH   9  11
HETATM   11  O   UNL     1      -8.863  12.240  68.147  1.00  0.00    -0.178 OA 
BRANCH  11  12
HETATM   12  C   UNL     1      -8.364  10.994  68.529  1.00  0.00    -0.149 A  
HETATM   13  C   UNL     1      -7.579  10.302  67.624  1.00  0.00    -0.090 A  
HETATM   14  C   UNL     1      -7.087   9.083  68.065  1.00  0.00    -0.079 A  
HETATM   15 BR   UNL     1      -7.203  10.949  65.886  1.00  0.00     0.030 Br 
HETATM   16  N   UNL     1      -6.207   8.295  67.322  1.00  0.00    -0.055 NA 
HETATM   17  N   UNL     1      -7.353   8.589  69.284  1.00  0.00    -0.070 NA 
HETATM   18  H1  UNL     1      -5.844   7.399  67.646  1.00  0.00     0.000 HD 
HETATM   19  H2  UNL     1      -5.403   8.879  67.087  1.00  0.00     0.000 HD 
HETATM   20  C   UNL     1      -8.162   9.284  70.084  1.00  0.00    -0.167 A  
HETATM   21  N   UNL     1      -8.712  10.448  69.704  1.00  0.00    -0.104 NA 
BRANCH  20  22
HETATM   22  N   UNL     1      -8.440   8.871  71.393  1.00  0.00    -0.272 NA 
HETATM   23  H   UNL     1      -8.177   9.538  72.118  1.00  0.00     0.000 HD 
BRANCH  22  24
HETATM   24  C   UNL     1      -9.023   7.684  71.868  1.00  0.00    -0.120 A  
HETATM   25  C   UNL     1      -8.453   6.421  71.672  1.00  0.00    -0.128 A  
HETATM   26  C   UNL     1      -9.049   5.264  72.185  1.00  0.00    -0.148 A  
HETATM   27  C   UNL     1     -10.243   5.339  72.900  1.00  0.00    -0.218 A  
HETATM   28  C   UNL     1     -10.831   4.152  73.455  1.00  0.00    -0.254 C  
HETATM   29  C   UNL     1     -10.847   6.586  73.078  1.00  0.00    -0.291 A  
HETATM   30  C   UNL     1     -10.248   7.743  72.555  1.00  0.00    -0.320 A  
HETATM   31  N   UNL     1     -11.296   3.190  73.908  1.00  0.00    -0.078 NA 
ENDBRANCH  22  24
ENDBRANCH  20  22
ENDBRANCH  11  12
ENDBRANCH   9  11
TORSDOF 4
ENDMDL
MODEL      191
REMARK 921   NORMALIZED FREE ENERGY PREDICTED BY IDOCK:   -3.42 KCAL/MOL
REMARK 922        TOTAL FREE ENERGY PREDICTED BY IDOCK:   -4.87 KCAL/MOL
REMARK 923 INTER-LIGAND FREE ENERGY PREDICTED BY IDOCK:   -4.42 KCAL/MOL
REMARK 924 INTRA-LIGAND FREE ENERGY PREDICTED BY IDOCK:   -0.46 KCAL/MOL
REMARK 927      BINDING AFFINITY PREDICTED BY RF-SCORE:    0.00 PKD
ROOT
HETATM    1  C   UNL     1     -10.857   9.148  66.767  1.00  0.00     0.041 C  
HETATM    2  C   UNL     1      -9.488   8.541  66.782  1.00  0.00    -0.253 A  
HETATM    3  C   UNL     1      -9.399   7.400  67.615  1.00  0.00    -0.145 A  
HETATM    4  C   UNL     1      -8.248   6.630  67.701  1.00  0.00    -0.122 A  
HETATM    5  C   UNL     1      -7.158   6.977  66.919  1.00  0.00    -0.075 A  
HETATM    6  C   UNL     1      -8.219   5.482  68.567  1.00  0.00    -0.098 C  
HETATM    7  N   UNL     1      -8.235   4.570  69.274  1.00  0.00    -0.068 NA 
HETATM    8  C   UNL     1      -7.200   8.120  66.089  1.00  0.00    -0.066 A  
HETATM    9  C   UNL     1      -8.358   8.959  66.044  1.00  0.00    -0.124 A  
HETATM   10  C   UNL     1      -5.976   8.387  65.245  1.00  0.00    -0.045 C  
ENDROOT
BRANCH   9  11
HETATM   11  O   UNL     1      -8.134  10.165  65.390  1.00  0.00    -0.137 OA 
BRANCH  11  12
HETATM   12  C   UNL     1      -9.040  11.215  65.230  1.00  0.00    -0.167 A  
HETATM   13  C   UNL     1      -9.861  11.200  64.117  1.00  0.00    -0.291 A  
HETATM   14  C   UNL     1     -10.761  12.251  64.022  1.00  0.00    -0.396 A  
HETATM   15 BR   UNL     1      -9.771   9.854  62.791  1.00  0.00     0.472 Br 
HETATM   16  N   UNL     1     -11.725  12.349  63.018  1.00  0.00    -0.666 NA 
HETATM   17  N   UNL     1     -10.835  13.231  64.935  1.00  0.00    -0.326 NA 
HETATM   18  H1  UNL     1     -12.386  13.122  62.947  1.00  0.00     0.000 HD 
HETATM   19  H2  UNL     1     -12.269  11.486  63.035  1.00  0.00     0.000 HD 
HETATM   20  C   UNL     1      -9.974  13.211  65.954  1.00  0.00    -0.269 A  
HETATM   21  N   UNL     1      -9.045  12.249  66.083  1.00  0.00    -0.137 NA 
BRANCH  20  22
HETATM   22  N   UNL     1     -10.025  14.159  66.983  1.00  0.00    -0.255 NA 
HETATM   23  H   UNL     1     -10.950  14.304  67.387  1.00  0.00     0.000 HD 
BRANCH  22  24
HETATM   24  C   UNL     1      -9.005  14.945  67.548  1.00  0.00    -0.185 A  
HETATM   25  C   UNL     1      -7.900  15.400  66.821  1.00  0.00    -0.105 A  
HETATM   26  C   UNL     1      -6.919  16.204  67.411  1.00  0.00    -0.215 A  
HETATM   27  C   UNL     1      -7.014  16.565  68.755  1.00  0.00    -0.180 A  
HETATM   28  C   UNL     1      -6.023  17.421  69.345  1.00  0.00    -0.237 C  
HETATM   29  C   UNL     1      -8.092  16.093  69.507  1.00  0.00     0.036 A  
HETATM   30  C   UNL     1      -9.069  15.281  68.911  1.00  0.00    -0.209 A  
HETATM   31  N   UNL     1      -5.224  18.119  69.815  1.00  0.00    -0.193 NA 
ENDBRANCH  22  24
ENDBRANCH  20  22
ENDBRANCH  11  12
ENDBRANCH   9  11
TORSDOF 4
ENDMDL
MODEL      192
REMARK 921   NORMALIZED FREE ENERGY PREDICTED BY IDOCK:   -3.39 KCAL/MOL
REMARK 922        TOTAL FREE ENERGY PREDICTED BY IDOCK:   -4.84 KCAL/MOL
REMARK 923 INTER-LIGAND FREE ENERGY PREDICTED BY IDOCK:   -6.39 KCAL/MOL
REMARK 924 INTRA-LIGAND FREE ENERGY PREDICTED BY IDOCK:    1.55 KCAL/MOL
REMARK 927      BINDING AFFINITY PREDICTED BY RF-SCORE:    0.00 PKD
ROOT
HETATM    1  C   UNL     1     -10.370   5.050  72.279  1.00  0.00    -0.267 C  
HETATM    2  C   UNL     1     -10.244   5.230  70.798  1.00  0.00    -0.317 A  
HETATM    3  C   UNL     1      -9.766   4.072  70.140  1.00  0.00    -0.265 A  
HETATM    4  C   UNL     1      -9.663   3.991  68.758  1.00  0.00    -0.143 A  
HETATM    5  C   UNL     1     -10.072   5.075  67.998  1.00  0.00    -0.169 A  
HETATM    6  C   UNL     1      -9.169   2.786  68.148  1.00  0.00    -0.202 C  
HETATM    7  N   UNL     1      -8.767   1.803  67.697  1.00  0.00    -0.091 NA 
HETATM    8  C   UNL     1     -10.536   6.257  68.619  1.00  0.00    -0.274 A  
HETATM    9  C   UNL     1     -10.582   6.376  70.043  1.00  0.00    -0.236 A  
HETATM   10  C   UNL     1     -10.997   7.365  67.700  1.00  0.00    -0.136 C  
ENDROOT
BRANCH   9  11
HETATM   11  O   UNL     1     -10.808   7.677  70.476  1.00  0.00    -0.232 OA 
BRANCH  11  12
HETATM   12  C   UNL     1     -10.280   8.848  69.931  1.00  0.00    -0.200 A  
HETATM   13  C   UNL     1      -8.923   8.888  69.665  1.00  0.00    -0.147 A  
HETATM   14  C   UNL     1      -8.456  10.064  69.099  1.00  0.00    -0.156 A  
HETATM   15 BR   UNL     1      -7.758   7.448  70.055  1.00  0.00    -0.096 Br 
HETATM   16  N   UNL     1      -7.137  10.245  68.682  1.00  0.00    -0.073 NA 
HETATM   17  N   UNL     1      -9.254  11.109  68.830  1.00  0.00    -0.172 NA 
HETATM   18  H1  UNL     1      -6.793  11.110  68.266  1.00  0.00     0.000 HD 
HETATM   19  H2  UNL     1      -6.918   9.489  68.032  1.00  0.00     0.000 HD 
HETATM   20  C   UNL     1     -10.542  11.022  69.165  1.00  0.00    -0.219 A  
HETATM   21  N   UNL     1     -11.052   9.931  69.758  1.00  0.00    -0.249 NA 
BRANCH  20  22
HETATM   22  N   UNL     1     -11.453  12.041  68.862  1.00  0.00    -0.275 NA 
HETATM   23  H   UNL     1     -12.402  11.723  68.662  1.00  0.00     0.000 HD 
BRANCH  22  24
HETATM   24  C   UNL     1     -11.271  13.433  68.788  1.00  0.00    -0.275 A  
HETATM   25  C   UNL     1     -11.651  14.308  69.811  1.00  0.00    -0.350 A  
HETATM   26  C   UNL     1     -11.428  15.685  69.714  1.00  0.00    -0.346 A  
HETATM   27  C   UNL     1     -10.826  16.227  68.579  1.00  0.00    -0.330 A  
HETATM   28  C   UNL     1     -10.566  17.637  68.501  1.00  0.00    -0.280 C  
HETATM   29  C   UNL     1     -10.469  15.375  67.532  1.00  0.00    -0.275 A  
HETATM   30  C   UNL     1     -10.702  13.994  67.632  1.00  0.00    -0.261 A  
HETATM   31  N   UNL     1     -10.351  18.776  68.447  1.00  0.00    -0.353 NA 
ENDBRANCH  22  24
ENDBRANCH  20  22
ENDBRANCH  11  12
ENDBRANCH   9  11
TORSDOF 4
ENDMDL
MODEL      193
REMARK 921   NORMALIZED FREE ENERGY PREDICTED BY IDOCK:   -3.28 KCAL/MOL
REMARK 922        TOTAL FREE ENERGY PREDICTED BY IDOCK:   -4.71 KCAL/MOL
REMARK 923 INTER-LIGAND FREE ENERGY PREDICTED BY IDOCK:   -6.45 KCAL/MOL
REMARK 924 INTRA-LIGAND FREE ENERGY PREDICTED BY IDOCK:    1.74 KCAL/MOL
REMARK 927      BINDING AFFINITY PREDICTED BY RF-SCORE:    0.00 PKD
ROOT
HETATM    1  C   UNL     1      -8.872   9.100  62.824  1.00  0.00    -0.151 C  
HETATM    2  C   UNL     1      -8.278   9.407  64.164  1.00  0.00    -0.158 A  
HETATM    3  C   UNL     1      -7.411   8.390  64.630  1.00  0.00    -0.098 A  
HETATM    4  C   UNL     1      -6.683   8.515  65.805  1.00  0.00    -0.063 A  
HETATM    5  C   UNL     1      -6.790   9.690  66.530  1.00  0.00    -0.084 A  
HETATM    6  C   UNL     1      -5.818   7.445  66.226  1.00  0.00    -0.036 C  
HETATM    7  N   UNL     1      -5.138   6.565  66.531  1.00  0.00    -0.012 NA 
HETATM    8  C   UNL     1      -7.660  10.722  66.108  1.00  0.00    -0.139 A  
HETATM    9  C   UNL     1      -8.466  10.576  64.936  1.00  0.00    -0.158 A  
HETATM   10  C   UNL     1      -7.671  11.979  66.945  1.00  0.00    -0.078 C  
ENDROOT
BRANCH   9  11
HETATM   11  O   UNL     1      -9.442  11.558  64.818  1.00  0.00    -0.199 OA 
BRANCH  11  12
HETATM   12  C   UNL     1     -10.247  12.070  65.837  1.00  0.00    -0.232 A  
HETATM   13  C   UNL     1     -10.788  11.180  66.747  1.00  0.00    -0.268 A  
HETATM   14  C   UNL     1     -11.556  11.744  67.754  1.00  0.00    -0.304 A  
HETATM   15 BR   UNL     1     -10.525   9.310  66.636  1.00  0.00    -0.173 Br 
HETATM   16  N   UNL     1     -12.103  11.010  68.807  1.00  0.00    -0.712 NA 
HETATM   17  N   UNL     1     -11.778  13.064  67.848  1.00  0.00    -0.344 NA 
HETATM   18  H1  UNL     1     -12.668  11.424  69.548  1.00  0.00     0.000 HD 
HETATM   19  H2  UNL     1     -11.336  10.509  69.257  1.00  0.00     0.000 HD 
HETATM   20  C   UNL     1     -11.271  13.858  66.903  1.00  0.00    -0.312 A  
HETATM   21  N   UNL     1     -10.557  13.374  65.874  1.00  0.00    -0.279 NA 
BRANCH  20  22
HETATM   22  N   UNL     1     -11.402  15.251  66.960  1.00  0.00    -0.282 NA 
HETATM   23  H   UNL     1     -12.293  15.612  66.619  1.00  0.00     0.000 HD 
BRANCH  22  24
HETATM   24  C   UNL     1     -10.503  16.231  67.412  1.00  0.00    -0.304 A  
HETATM   25  C   UNL     1     -10.831  17.177  68.389  1.00  0.00    -0.309 A  
HETATM   26  C   UNL     1      -9.899  18.121  68.834  1.00  0.00    -0.322 A  
HETATM   27  C   UNL     1      -8.611  18.150  68.302  1.00  0.00    -0.298 A  
HETATM   28  C   UNL     1      -7.647  19.096  68.789  1.00  0.00    -0.353 C  
HETATM   29  C   UNL     1      -8.273  17.236  67.302  1.00  0.00    -0.213 A  
HETATM   30  C   UNL     1      -9.214  16.296  66.854  1.00  0.00    -0.237 A  
HETATM   31  N   UNL     1      -6.871  19.859  69.192  1.00  0.00    -0.326 NA 
ENDBRANCH  22  24
ENDBRANCH  20  22
ENDBRANCH  11  12
ENDBRANCH   9  11
TORSDOF 4
ENDMDL
MODEL      194
REMARK 921   NORMALIZED FREE ENERGY PREDICTED BY IDOCK:   -3.24 KCAL/MOL
REMARK 922        TOTAL FREE ENERGY PREDICTED BY IDOCK:   -4.65 KCAL/MOL
REMARK 923 INTER-LIGAND FREE ENERGY PREDICTED BY IDOCK:   -3.75 KCAL/MOL
REMARK 924 INTRA-LIGAND FREE ENERGY PREDICTED BY IDOCK:   -0.89 KCAL/MOL
REMARK 927      BINDING AFFINITY PREDICTED BY RF-SCORE:    0.00 PKD
ROOT
HETATM    1  C   UNL     1      -8.194   7.573  67.838  1.00  0.00    -0.123 C  
HETATM    2  C   UNL     1      -7.736   8.444  68.967  1.00  0.00    -0.097 A  
HETATM    3  C   UNL     1      -8.223   8.018  70.225  1.00  0.00    -0.123 A  
HETATM    4  C   UNL     1      -7.844   8.627  71.414  1.00  0.00    -0.162 A  
HETATM    5  C   UNL     1      -6.935   9.671  71.364  1.00  0.00     0.289 A  
HETATM    6  C   UNL     1      -8.374   8.148  72.662  1.00  0.00    -0.177 C  
HETATM    7  N   UNL     1      -8.822   7.737  73.643  1.00  0.00    -0.241 NA 
HETATM    8  C   UNL     1      -6.441  10.139  70.124  1.00  0.00    -0.118 A  
HETATM    9  C   UNL     1      -6.876   9.563  68.890  1.00  0.00    -0.055 A  
HETATM   10  C   UNL     1      -5.421  11.252  70.181  1.00  0.00    -0.097 C  
ENDROOT
BRANCH   9  11
HETATM   11  O   UNL     1      -6.500  10.306  67.777  1.00  0.00    -0.061 OA 
BRANCH  11  12
HETATM   12  C   UNL     1      -7.283  10.603  66.661  1.00  0.00    -0.128 A  
HETATM   13  C   UNL     1      -6.882  10.107  65.434  1.00  0.00    -0.128 A  
HETATM   14  C   UNL     1      -7.711  10.408  64.364  1.00  0.00    -0.042 A  
HETATM   15 BR   UNL     1      -5.300   9.095  65.203  1.00  0.00    -0.041 Br 
HETATM   16  N   UNL     1      -7.511   9.916  63.074  1.00  0.00    -0.126 NA 
HETATM   17  N   UNL     1      -8.828  11.140  64.493  1.00  0.00     0.003 NA 
HETATM   18  H1  UNL     1      -8.120  10.137  62.287  1.00  0.00     0.000 HD 
HETATM   19  H2  UNL     1      -7.463   8.899  63.142  1.00  0.00     0.000 HD 
HETATM   20  C   UNL     1      -9.125  11.633  65.697  1.00  0.00    -0.080 A  
HETATM   21  N   UNL     1      -8.342  11.420  66.766  1.00  0.00    -0.159 NA 
BRANCH  20  22
HETATM   22  N   UNL     1     -10.303  12.352  65.930  1.00  0.00    -0.251 NA 
HETATM   23  H   UNL     1     -10.915  12.447  65.120  1.00  0.00     0.000 HD 
BRANCH  22  24
HETATM   24  C   UNL     1     -10.778  12.966  67.102  1.00  0.00    -0.253 A  
HETATM   25  C   UNL     1     -10.174  14.091  67.673  1.00  0.00    -0.241 A  
HETATM   26  C   UNL     1     -10.692  14.691  68.826  1.00  0.00    -0.252 A  
HETATM   27  C   UNL     1     -11.828  14.171  69.446  1.00  0.00    -0.378 A  
HETATM   28  C   UNL     1     -12.376  14.813  70.607  1.00  0.00    -0.337 C  
HETATM   29  C   UNL     1     -12.426  13.028  68.911  1.00  0.00     0.347 A  
HETATM   30  C   UNL     1     -11.897  12.426  67.759  1.00  0.00    -0.362 A  
HETATM   31  N   UNL     1     -12.819  15.341  71.541  1.00  0.00    -0.363 NA 
ENDBRANCH  22  24
ENDBRANCH  20  22
ENDBRANCH  11  12
ENDBRANCH   9  11
TORSDOF 4
ENDMDL
MODEL      195
REMARK 921   NORMALIZED FREE ENERGY PREDICTED BY IDOCK:   -3.18 KCAL/MOL
REMARK 922        TOTAL FREE ENERGY PREDICTED BY IDOCK:   -4.58 KCAL/MOL
REMARK 923 INTER-LIGAND FREE ENERGY PREDICTED BY IDOCK:   -3.81 KCAL/MOL
REMARK 924 INTRA-LIGAND FREE ENERGY PREDICTED BY IDOCK:   -0.77 KCAL/MOL
REMARK 927      BINDING AFFINITY PREDICTED BY RF-SCORE:    0.00 PKD
ROOT
HETATM    1  C   UNL     1     -10.908   6.312  66.671  1.00  0.00    -0.268 C  
HETATM    2  C   UNL     1     -10.333   4.930  66.626  1.00  0.00    -0.285 A  
HETATM    3  C   UNL     1     -10.423   4.336  65.345  1.00  0.00    -0.192 A  
HETATM    4  C   UNL     1      -9.868   3.097  65.059  1.00  0.00     0.017 A  
HETATM    5  C   UNL     1      -9.177   2.433  66.060  1.00  0.00    -0.023 A  
HETATM    6  C   UNL     1      -9.994   2.545  63.737  1.00  0.00    -0.147 C  
HETATM    7  N   UNL     1     -10.117   2.136  62.665  1.00  0.00    -0.095 NA 
HETATM    8  C   UNL     1      -9.082   2.984  67.358  1.00  0.00    -0.208 A  
HETATM    9  C   UNL     1      -9.708   4.228  67.682  1.00  0.00    -0.134 A  
HETATM   10  C   UNL     1      -8.270   2.202  68.365  1.00  0.00    -0.073 C  
ENDROOT
BRANCH   9  11
HETATM   11  O   UNL     1      -9.738   4.487  69.047  1.00  0.00    -0.166 OA 
BRANCH  11  12
HETATM   12  C   UNL     1      -9.081   5.516  69.722  1.00  0.00    -0.132 A  
HETATM   13  C   UNL     1      -8.358   5.193  70.856  1.00  0.00    -0.114 A  
HETATM   14  C   UNL     1      -7.702   6.247  71.471  1.00  0.00    -0.100 A  
HETATM   15 BR   UNL     1      -8.268   3.434  71.549  1.00  0.00    -0.075 Br 
HETATM   16  N   UNL     1      -6.855   6.091  72.569  1.00  0.00    -0.073 NA 
HETATM   17  N   UNL     1      -7.763   7.508  71.014  1.00  0.00    -0.088 NA 
HETATM   18  H1  UNL     1      -6.373   6.867  73.022  1.00  0.00     0.000 HD 
HETATM   19  H2  UNL     1      -6.146   5.405  72.309  1.00  0.00     0.000 HD 
HETATM   20  C   UNL     1      -8.524   7.757  69.948  1.00  0.00    -0.132 A  
HETATM   21  N   UNL     1      -9.224   6.791  69.331  1.00  0.00    -0.143 NA 
BRANCH  20  22
HETATM   22  N   UNL     1      -8.593   9.031  69.371  1.00  0.00    -0.133 NA 
HETATM   23  H   UNL     1      -8.717   9.796  70.034  1.00  0.00     0.000 HD 
BRANCH  22  24
HETATM   24  C   UNL     1      -8.518   9.424  68.024  1.00  0.00    -0.120 A  
HETATM   25  C   UNL     1      -7.319   9.462  67.305  1.00  0.00    -0.087 A  
HETATM   26  C   UNL     1      -7.288   9.833  65.956  1.00  0.00    -0.102 A  
HETATM   27  C   UNL     1      -8.461  10.188  65.292  1.00  0.00    -0.165 A  
HETATM   28  C   UNL     1      -8.429  10.532  63.898  1.00  0.00    -0.120 C  
HETATM   29  C   UNL     1      -9.665  10.189  66.001  1.00  0.00    -0.285 A  
HETATM   30  C   UNL     1      -9.688   9.823  67.356  1.00  0.00    -0.202 A  
HETATM   31  N   UNL     1      -8.396  10.801  62.770  1.00  0.00    -0.167 NA 
ENDBRANCH  22  24
ENDBRANCH  20  22
ENDBRANCH  11  12
ENDBRANCH   9  11
TORSDOF 4
ENDMDL
MODEL      196
REMARK 921   NORMALIZED FREE ENERGY PREDICTED BY IDOCK:   -3.10 KCAL/MOL
REMARK 922        TOTAL FREE ENERGY PREDICTED BY IDOCK:   -4.47 KCAL/MOL
REMARK 923 INTER-LIGAND FREE ENERGY PREDICTED BY IDOCK:   -3.61 KCAL/MOL
REMARK 924 INTRA-LIGAND FREE ENERGY PREDICTED BY IDOCK:   -0.87 KCAL/MOL
REMARK 927      BINDING AFFINITY PREDICTED BY RF-SCORE:    0.00 PKD
ROOT
HETATM    1  C   UNL     1      -9.259  10.033  65.451  1.00  0.00    -0.259 C  
HETATM    2  C   UNL     1      -9.727   9.190  66.596  1.00  0.00    -0.287 A  
HETATM    3  C   UNL     1     -10.225   9.954  67.677  1.00  0.00    -0.255 A  
HETATM    4  C   UNL     1     -10.796   9.371  68.800  1.00  0.00    -0.147 A  
HETATM    5  C   UNL     1     -10.905   7.990  68.846  1.00  0.00    -0.001 A  
HETATM    6  C   UNL     1     -11.284  10.202  69.867  1.00  0.00    -0.287 C  
HETATM    7  N   UNL     1     -11.662  10.902  70.703  1.00  0.00    -0.340 NA 
HETATM    8  C   UNL     1     -10.402   7.191  67.795  1.00  0.00    -0.257 A  
HETATM    9  C   UNL     1      -9.751   7.778  66.665  1.00  0.00    -0.222 A  
HETATM   10  C   UNL     1     -10.609   5.699  67.923  1.00  0.00    -0.266 C  
ENDROOT
BRANCH   9  11
HETATM   11  O   UNL     1      -9.093   6.849  65.869  1.00  0.00    -0.118 OA 
BRANCH  11  12
HETATM   12  C   UNL     1      -7.784   6.389  66.021  1.00  0.00    -0.093 A  
HETATM   13  C   UNL     1      -7.204   5.714  64.963  1.00  0.00    -0.066 A  
HETATM   14  C   UNL     1      -5.894   5.304  65.157  1.00  0.00    -0.017 A  
HETATM   15 BR   UNL     1      -8.126   5.347  63.351  1.00  0.00    -0.104 Br 
HETATM   16  N   UNL     1      -5.125   4.692  64.166  1.00  0.00    -0.009 NA 
HETATM   17  N   UNL     1      -5.222   5.532  66.295  1.00  0.00    -0.008 NA 
HETATM   18  H1  UNL     1      -4.162   4.390  64.308  1.00  0.00     0.000 HD 
HETATM   19  H2  UNL     1      -5.132   5.309  63.353  1.00  0.00     0.000 HD 
HETATM   20  C   UNL     1      -5.861   6.139  67.295  1.00  0.00    -0.017 A  
HETATM   21  N   UNL     1      -7.145   6.521  67.193  1.00  0.00    -0.074 NA 
BRANCH  20  22
HETATM   22  N   UNL     1      -5.214   6.471  68.492  1.00  0.00    -0.010 NA 
HETATM   23  H   UNL     1      -4.199   6.381  68.470  1.00  0.00     0.000 HD 
BRANCH  22  24
HETATM   24  C   UNL     1      -5.741   6.907  69.720  1.00  0.00    -0.019 A  
HETATM   25  C   UNL     1      -5.620   8.223  70.178  1.00  0.00    -0.022 A  
HETATM   26  C   UNL     1      -6.181   8.628  71.394  1.00  0.00    -0.053 A  
HETATM   27  C   UNL     1      -6.873   7.717  72.193  1.00  0.00    -0.060 A  
HETATM   28  C   UNL     1      -7.479   8.147  73.422  1.00  0.00    -0.145 C  
HETATM   29  C   UNL     1      -6.976   6.390  71.770  1.00  0.00    -0.076 A  
HETATM   30  C   UNL     1      -6.404   5.989  70.552  1.00  0.00    -0.036 A  
HETATM   31  N   UNL     1      -7.973   8.502  74.410  1.00  0.00    -0.355 NA 
ENDBRANCH  22  24
ENDBRANCH  20  22
ENDBRANCH  11  12
ENDBRANCH   9  11
TORSDOF 4
ENDMDL
MODEL      197
REMARK 921   NORMALIZED FREE ENERGY PREDICTED BY IDOCK:   -3.01 KCAL/MOL
REMARK 922        TOTAL FREE ENERGY PREDICTED BY IDOCK:   -4.37 KCAL/MOL
REMARK 923 INTER-LIGAND FREE ENERGY PREDICTED BY IDOCK:   -5.78 KCAL/MOL
REMARK 924 INTRA-LIGAND FREE ENERGY PREDICTED BY IDOCK:    1.41 KCAL/MOL
REMARK 927      BINDING AFFINITY PREDICTED BY RF-SCORE:    0.00 PKD
ROOT
HETATM    1  C   UNL     1      -8.969  19.911  67.770  1.00  0.00    -0.402 C  
HETATM    2  C   UNL     1      -7.729  19.290  68.336  1.00  0.00    -0.362 A  
HETATM    3  C   UNL     1      -7.182  20.031  69.411  1.00  0.00    -0.128 A  
HETATM    4  C   UNL     1      -6.088  19.586  70.140  1.00  0.00    -0.285 A  
HETATM    5  C   UNL     1      -5.532  18.358  69.818  1.00  0.00    -0.218 A  
HETATM    6  C   UNL     1      -5.578  20.384  71.222  1.00  0.00    -0.252 C  
HETATM    7  N   UNL     1      -5.197  21.053  72.081  1.00  0.00    -0.449 NA 
HETATM    8  C   UNL     1      -6.036  17.598  68.738  1.00  0.00    -0.189 A  
HETATM    9  C   UNL     1      -7.120  18.079  67.938  1.00  0.00    -0.216 A  
HETATM   10  C   UNL     1      -5.388  16.255  68.498  1.00  0.00    -0.102 C  
ENDROOT
BRANCH   9  11
HETATM   11  O   UNL     1      -7.311  17.341  66.777  1.00  0.00    -0.170 OA 
BRANCH  11  12
HETATM   12  C   UNL     1      -8.388  16.504  66.480  1.00  0.00    -0.292 A  
HETATM   13  C   UNL     1      -9.522  17.074  65.930  1.00  0.00    -0.082 A  
HETATM   14  C   UNL     1     -10.550  16.195  65.628  1.00  0.00    -0.363 A  
HETATM   15 BR   UNL     1      -9.688  18.933  65.616  1.00  0.00     0.642 Br 
HETATM   16  N   UNL     1     -11.728  16.580  64.987  1.00  0.00     0.284 NA 
HETATM   17  N   UNL     1     -10.470  14.875  65.858  1.00  0.00    -0.297 NA 
HETATM   18  H1  UNL     1     -12.485  15.934  64.765  1.00  0.00     0.000 HD 
HETATM   19  H2  UNL     1     -11.462  17.043  64.118  1.00  0.00     0.000 HD 
HETATM   20  C   UNL     1      -9.368  14.402  66.442  1.00  0.00    -0.258 A  
HETATM   21  N   UNL     1      -8.353  15.203  66.803  1.00  0.00    -0.228 NA 
BRANCH  20  22
HETATM   22  N   UNL     1      -9.178  13.032  66.659  1.00  0.00    -0.323 NA 
HETATM   23  H   UNL     1      -8.490  12.592  66.047  1.00  0.00     0.000 HD 
BRANCH  22  24
HETATM   24  C   UNL     1      -9.783  12.165  67.585  1.00  0.00    -0.188 A  
HETATM   25  C   UNL     1      -9.054  11.322  68.431  1.00  0.00    -0.170 A  
HETATM   26  C   UNL     1      -9.692  10.493  69.360  1.00  0.00    -0.188 A  
HETATM   27  C   UNL     1     -11.082  10.477  69.459  1.00  0.00    -0.320 A  
HETATM   28  C   UNL     1     -11.729   9.651  70.440  1.00  0.00    -0.202 C  
HETATM   29  C   UNL     1     -11.830  11.285  68.600  1.00  0.00    -0.369 A  
HETATM   30  C   UNL     1     -11.185  12.110  67.665  1.00  0.00    -0.345 A  
HETATM   31  N   UNL     1     -12.245   8.987  71.240  1.00  0.00    -0.309 NA 
ENDBRANCH  22  24
ENDBRANCH  20  22
ENDBRANCH  11  12
ENDBRANCH   9  11
TORSDOF 4
ENDMDL
MODEL      198
REMARK 921   NORMALIZED FREE ENERGY PREDICTED BY IDOCK:   -2.97 KCAL/MOL
REMARK 922        TOTAL FREE ENERGY PREDICTED BY IDOCK:   -4.31 KCAL/MOL
REMARK 923 INTER-LIGAND FREE ENERGY PREDICTED BY IDOCK:   -3.96 KCAL/MOL
REMARK 924 INTRA-LIGAND FREE ENERGY PREDICTED BY IDOCK:   -0.35 KCAL/MOL
REMARK 927      BINDING AFFINITY PREDICTED BY RF-SCORE:    0.00 PKD
ROOT
HETATM    1  C   UNL     1      -8.188  10.138  65.674  1.00  0.00    -0.150 C  
HETATM    2  C   UNL     1      -9.082   9.293  66.529  1.00  0.00    -0.191 A  
HETATM    3  C   UNL     1      -9.608   9.995  67.639  1.00  0.00    -0.171 A  
HETATM    4  C   UNL     1     -10.532   9.428  68.507  1.00  0.00    -0.239 A  
HETATM    5  C   UNL     1     -10.973   8.139  68.256  1.00  0.00     0.163 A  
HETATM    6  C   UNL     1     -11.030  10.193  69.619  1.00  0.00    -0.264 C  
HETATM    7  N   UNL     1     -11.404  10.837  70.500  1.00  0.00    -0.279 NA 
HETATM    8  C   UNL     1     -10.456   7.398  67.169  1.00  0.00    -0.403 A  
HETATM    9  C   UNL     1      -9.454   7.948  66.309  1.00  0.00    -0.151 A  
HETATM   10  C   UNL     1     -11.034   6.018  66.957  1.00  0.00    -0.364 C  
ENDROOT
BRANCH   9  11
HETATM   11  O   UNL     1      -8.878   7.004  65.468  1.00  0.00    -0.083 OA 
BRANCH  11  12
HETATM   12  C   UNL     1      -7.970   6.005  65.823  1.00  0.00    -0.113 A  
HETATM   13  C   UNL     1      -7.110   5.531  64.850  1.00  0.00    -0.061 A  
HETATM   14  C   UNL     1      -6.210   4.561  65.263  1.00  0.00    -0.034 A  
HETATM   15 BR   UNL     1      -7.149   6.142  63.059  1.00  0.00    -0.055 Br 
HETATM   16  N   UNL     1      -5.212   4.037  64.441  1.00  0.00    -0.009 NA 
HETATM   17  N   UNL     1      -6.171   4.093  66.520  1.00  0.00    -0.031 NA 
HETATM   18  H1  UNL     1      -4.551   3.323  64.745  1.00  0.00     0.000 HD 
HETATM   19  H2  UNL     1      -4.666   4.824  64.089  1.00  0.00     0.000 HD 
HETATM   20  C   UNL     1      -7.068   4.555  67.394  1.00  0.00    -0.065 A  
HETATM   21  N   UNL     1      -7.997   5.461  67.049  1.00  0.00    -0.101 NA 
BRANCH  20  22
HETATM   22  N   UNL     1      -7.056   4.167  68.739  1.00  0.00    -0.051 NA 
HETATM   23  H   UNL     1      -6.426   3.394  68.957  1.00  0.00     0.000 HD 
BRANCH  22  24
HETATM   24  C   UNL     1      -7.772   4.671  69.838  1.00  0.00    -0.058 A  
HETATM   25  C   UNL     1      -9.080   4.279  70.142  1.00  0.00    -0.174 A  
HETATM   26  C   UNL     1      -9.752   4.782  71.261  1.00  0.00    -0.245 A  
HETATM   27  C   UNL     1      -9.132   5.704  72.103  1.00  0.00    -0.147 A  
HETATM   28  C   UNL     1      -9.813   6.189  73.271  1.00  0.00    -0.166 C  
HETATM   29  C   UNL     1      -7.839   6.135  71.799  1.00  0.00    -0.102 A  
HETATM   30  C   UNL     1      -7.173   5.631  70.670  1.00  0.00    -0.078 A  
HETATM   31  N   UNL     1     -10.365   6.571  74.217  1.00  0.00    -0.343 NA 
ENDBRANCH  22  24
ENDBRANCH  20  22
ENDBRANCH  11  12
ENDBRANCH   9  11
TORSDOF 4
ENDMDL
MODEL      199
REMARK 921   NORMALIZED FREE ENERGY PREDICTED BY IDOCK:   -2.91 KCAL/MOL
REMARK 922        TOTAL FREE ENERGY PREDICTED BY IDOCK:   -4.25 KCAL/MOL
REMARK 923 INTER-LIGAND FREE ENERGY PREDICTED BY IDOCK:   -4.20 KCAL/MOL
REMARK 924 INTRA-LIGAND FREE ENERGY PREDICTED BY IDOCK:   -0.04 KCAL/MOL
REMARK 927      BINDING AFFINITY PREDICTED BY RF-SCORE:    0.00 PKD
ROOT
HETATM    1  C   UNL     1      -9.441  12.297  66.977  1.00  0.00    -0.204 C  
HETATM    2  C   UNL     1      -8.610  13.241  67.789  1.00  0.00    -0.184 A  
HETATM    3  C   UNL     1      -9.067  14.579  67.718  1.00  0.00    -0.190 A  
HETATM    4  C   UNL     1      -8.499  15.600  68.468  1.00  0.00    -0.175 A  
HETATM    5  C   UNL     1      -7.467  15.288  69.337  1.00  0.00    -0.212 A  
HETATM    6  C   UNL     1      -9.008  16.940  68.351  1.00  0.00    -0.244 C  
HETATM    7  N   UNL     1      -9.442  18.002  68.228  1.00  0.00    -0.291 NA 
HETATM    8  C   UNL     1      -6.969  13.967  69.422  1.00  0.00    -0.050 A  
HETATM    9  C   UNL     1      -7.501  12.922  68.605  1.00  0.00    -0.092 A  
HETATM   10  C   UNL     1      -5.871  13.724  70.432  1.00  0.00    -0.162 C  
ENDROOT
BRANCH   9  11
HETATM   11  O   UNL     1      -6.731  11.766  68.625  1.00  0.00    -0.062 OA 
BRANCH  11  12
HETATM   12  C   UNL     1      -7.169  10.469  68.896  1.00  0.00    -0.086 A  
HETATM   13  C   UNL     1      -6.634   9.818  69.993  1.00  0.00    -0.081 A  
HETATM   14  C   UNL     1      -7.124   8.543  70.233  1.00  0.00    -0.043 A  
HETATM   15 BR   UNL     1      -5.307  10.590  71.100  1.00  0.00    -0.067 Br 
HETATM   16  N   UNL     1      -6.767   7.779  71.344  1.00  0.00    -0.044 NA 
HETATM   17  N   UNL     1      -8.050   7.962  69.455  1.00  0.00    -0.119 NA 
HETATM   18  H1  UNL     1      -7.127   6.841  71.521  1.00  0.00     0.000 HD 
HETATM   19  H2  UNL     1      -6.964   8.339  72.174  1.00  0.00     0.000 HD 
HETATM   20  C   UNL     1      -8.480   8.626  68.381  1.00  0.00    -0.131 A  
HETATM   21  N   UNL     1      -8.014   9.844  68.063  1.00  0.00    -0.100 NA 
BRANCH  20  22
HETATM   22  N   UNL     1      -9.489   8.117  67.554  1.00  0.00    -0.149 NA 
HETATM   23  H   UNL     1     -10.303   8.723  67.449  1.00  0.00     0.000 HD 
BRANCH  22  24
HETATM   24  C   UNL     1      -9.560   6.906  66.845  1.00  0.00    -0.162 A  
HETATM   25  C   UNL     1     -10.738   6.161  66.723  1.00  0.00    -0.371 A  
HETATM   26  C   UNL     1     -10.776   4.973  65.984  1.00  0.00    -0.241 A  
HETATM   27  C   UNL     1      -9.628   4.492  65.356  1.00  0.00    -0.185 A  
HETATM   28  C   UNL     1      -9.682   3.292  64.570  1.00  0.00    -0.162 C  
HETATM   29  C   UNL     1      -8.434   5.203  65.494  1.00  0.00    -0.138 A  
HETATM   30  C   UNL     1      -8.400   6.391  66.242  1.00  0.00    -0.123 A  
HETATM   31  N   UNL     1      -9.735   2.326  63.929  1.00  0.00    -0.135 NA 
ENDBRANCH  22  24
ENDBRANCH  20  22
ENDBRANCH  11  12
ENDBRANCH   9  11
TORSDOF 4
ENDMDL
MODEL      200
REMARK 921   NORMALIZED FREE ENERGY PREDICTED BY IDOCK:   -2.88 KCAL/MOL
REMARK 922        TOTAL FREE ENERGY PREDICTED BY IDOCK:   -4.21 KCAL/MOL
REMARK 923 INTER-LIGAND FREE ENERGY PREDICTED BY IDOCK:   -5.45 KCAL/MOL
REMARK 924 INTRA-LIGAND FREE ENERGY PREDICTED BY IDOCK:    1.24 KCAL/MOL
REMARK 927      BINDING AFFINITY PREDICTED BY RF-SCORE:    0.00 PKD
ROOT
HETATM    1  C   UNL     1      -8.150   6.502  69.932  1.00  0.00    -0.121 C  
HETATM    2  C   UNL     1      -7.956   6.585  68.449  1.00  0.00    -0.110 A  
HETATM    3  C   UNL     1      -7.821   5.315  67.838  1.00  0.00    -0.092 A  
HETATM    4  C   UNL     1      -7.727   5.159  66.463  1.00  0.00    -0.092 A  
HETATM    5  C   UNL     1      -7.796   6.286  65.661  1.00  0.00    -0.098 A  
HETATM    6  C   UNL     1      -7.590   3.841  65.901  1.00  0.00    -0.085 C  
HETATM    7  N   UNL     1      -7.480   2.769  65.489  1.00  0.00    -0.071 NA 
HETATM    8  C   UNL     1      -7.910   7.573  66.234  1.00  0.00    -0.102 A  
HETATM    9  C   UNL     1      -7.940   7.751  67.652  1.00  0.00    -0.124 A  
HETATM   10  C   UNL     1      -8.021   8.733  65.271  1.00  0.00    -0.118 C  
ENDROOT
BRANCH   9  11
HETATM   11  O   UNL     1      -7.790   9.077  68.040  1.00  0.00    -0.099 OA 
BRANCH  11  12
HETATM   12  C   UNL     1      -8.658  10.136  67.769  1.00  0.00    -0.118 A  
HETATM   13  C   UNL     1     -10.016   9.916  67.908  1.00  0.00    -0.160 A  
HETATM   14  C   UNL     1     -10.831  11.008  67.654  1.00  0.00    -0.256 A  
HETATM   15 BR   UNL     1     -10.739   8.237  68.398  1.00  0.00     0.008 Br 
HETATM   16  N   UNL     1     -12.215  10.994  67.833  1.00  0.00    -0.433 NA 
HETATM   17  N   UNL     1     -10.350  12.205  67.285  1.00  0.00    -0.211 NA 
HETATM   18  H1  UNL     1     -12.815  11.797  67.645  1.00  0.00     0.000 HD 
HETATM   19  H2  UNL     1     -12.393  10.701  68.794  1.00  0.00     0.000 HD 
HETATM   20  C   UNL     1      -9.033  12.330  67.116  1.00  0.00    -0.192 A  
HETATM   21  N   UNL     1      -8.189  11.302  67.300  1.00  0.00    -0.134 NA 
BRANCH  20  22
HETATM   22  N   UNL     1      -8.443  13.559  66.795  1.00  0.00    -0.437 NA 
HETATM   23  H   UNL     1      -7.644  13.500  66.163  1.00  0.00     0.000 HD 
BRANCH  22  24
HETATM   24  C   UNL     1      -8.776  14.862  67.203  1.00  0.00    -0.219 A  
HETATM   25  C   UNL     1      -8.852  15.943  66.319  1.00  0.00    -0.386 A  
HETATM   26  C   UNL     1      -9.214  17.222  66.758  1.00  0.00    -0.270 A  
HETATM   27  C   UNL     1      -9.499  17.454  68.103  1.00  0.00    -0.288 A  
HETATM   28  C   UNL     1      -9.906  18.759  68.542  1.00  0.00    -0.396 C  
HETATM   29  C   UNL     1      -9.396  16.395  69.008  1.00  0.00    -0.248 A  
HETATM   30  C   UNL     1      -9.026  15.117  68.562  1.00  0.00    -0.186 A  
HETATM   31  N   UNL     1     -10.242  19.814  68.888  1.00  0.00    -0.409 NA 
ENDBRANCH  22  24
ENDBRANCH  20  22
ENDBRANCH  11  12
ENDBRANCH   9  11
TORSDOF 4
ENDMDL
MODEL      201
REMARK 921   NORMALIZED FREE ENERGY PREDICTED BY IDOCK:   -2.86 KCAL/MOL
REMARK 922        TOTAL FREE ENERGY PREDICTED BY IDOCK:   -4.19 KCAL/MOL
REMARK 923 INTER-LIGAND FREE ENERGY PREDICTED BY IDOCK:   -4.48 KCAL/MOL
REMARK 924 INTRA-LIGAND FREE ENERGY PREDICTED BY IDOCK:    0.30 KCAL/MOL
REMARK 927      BINDING AFFINITY PREDICTED BY RF-SCORE:    0.00 PKD
ROOT
HETATM    1  C   UNL     1     -10.107   4.519  72.458  1.00  0.00    -0.233 C  
HETATM    2  C   UNL     1     -10.024   4.803  70.990  1.00  0.00    -0.279 A  
HETATM    3  C   UNL     1      -9.754   3.647  70.219  1.00  0.00    -0.193 A  
HETATM    4  C   UNL     1      -9.729   3.668  68.832  1.00  0.00    -0.058 A  
HETATM    5  C   UNL     1     -10.006   4.859  68.182  1.00  0.00    -0.171 A  
HETATM    6  C   UNL     1      -9.448   2.459  68.104  1.00  0.00    -0.158 C  
HETATM    7  N   UNL     1      -9.218   1.471  67.556  1.00  0.00    -0.128 NA 
HETATM    8  C   UNL     1     -10.260   6.040  68.916  1.00  0.00    -0.246 A  
HETATM    9  C   UNL     1     -10.222   6.045  70.346  1.00  0.00    -0.204 A  
HETATM   10  C   UNL     1     -10.593   7.276  68.113  1.00  0.00    -0.228 C  
ENDROOT
BRANCH   9  11
HETATM   11  O   UNL     1     -10.233   7.323  70.889  1.00  0.00    -0.197 OA 
BRANCH  11  12
HETATM   12  C   UNL     1      -9.195   8.256  70.863  1.00  0.00    -0.155 A  
HETATM   13  C   UNL     1      -8.306   8.271  71.922  1.00  0.00    -0.157 A  
HETATM   14  C   UNL     1      -7.279   9.197  71.832  1.00  0.00     0.250 A  
HETATM   15 BR   UNL     1      -8.471   7.121  73.417  1.00  0.00    -0.169 Br 
HETATM   16  N   UNL     1      -6.243   9.290  72.763  1.00  0.00    -0.302 NA 
HETATM   17  N   UNL     1      -7.147  10.039  70.796  1.00  0.00    -0.334 NA 
HETATM   18  H1  UNL     1      -5.487   9.971  72.697  1.00  0.00     0.000 HD 
HETATM   19  H2  UNL     1      -5.813   8.367  72.830  1.00  0.00     0.000 HD 
HETATM   20  C   UNL     1      -8.073  10.008  69.836  1.00  0.00    -0.166 A  
HETATM   21  N   UNL     1      -9.119   9.168  69.882  1.00  0.00    -0.165 NA 
BRANCH  20  22
HETATM   22  N   UNL     1      -7.975  10.807  68.690  1.00  0.00    -0.124 NA 
HETATM   23  H   UNL     1      -7.923  10.292  67.811  1.00  0.00     0.000 HD 
BRANCH  22  24
HETATM   24  C   UNL     1      -7.939  12.206  68.557  1.00  0.00    -0.119 A  
HETATM   25  C   UNL     1      -6.748  12.934  68.470  1.00  0.00    -0.091 A  
HETATM   26  C   UNL     1      -6.751  14.324  68.310  1.00  0.00    -0.108 A  
HETATM   27  C   UNL     1      -7.954  15.026  68.244  1.00  0.00    -0.128 A  
HETATM   28  C   UNL     1      -7.952  16.447  68.043  1.00  0.00    -0.156 C  
HETATM   29  C   UNL     1      -9.154  14.322  68.363  1.00  0.00    -0.194 A  
HETATM   30  C   UNL     1      -9.144  12.928  68.530  1.00  0.00    -0.049 A  
HETATM   31  N   UNL     1      -7.944  17.595  67.872  1.00  0.00    -0.225 NA 
ENDBRANCH  22  24
ENDBRANCH  20  22
ENDBRANCH  11  12
ENDBRANCH   9  11
TORSDOF 4
ENDMDL
MODEL      202
REMARK 921   NORMALIZED FREE ENERGY PREDICTED BY IDOCK:   -2.85 KCAL/MOL
REMARK 922        TOTAL FREE ENERGY PREDICTED BY IDOCK:   -4.17 KCAL/MOL
REMARK 923 INTER-LIGAND FREE ENERGY PREDICTED BY IDOCK:   -3.94 KCAL/MOL
REMARK 924 INTRA-LIGAND FREE ENERGY PREDICTED BY IDOCK:   -0.23 KCAL/MOL
REMARK 927      BINDING AFFINITY PREDICTED BY RF-SCORE:    0.00 PKD
ROOT
HETATM    1  C   UNL     1     -10.193   4.530  68.247  1.00  0.00     0.064 C  
HETATM    2  C   UNL     1      -9.570   5.495  67.285  1.00  0.00    -0.132 A  
HETATM    3  C   UNL     1      -8.878   4.853  66.230  1.00  0.00    -0.116 A  
HETATM    4  C   UNL     1      -8.308   5.557  65.179  1.00  0.00    -0.146 A  
HETATM    5  C   UNL     1      -8.448   6.935  65.150  1.00  0.00    -0.029 A  
HETATM    6  C   UNL     1      -7.617   4.847  64.136  1.00  0.00    -0.069 C  
HETATM    7  N   UNL     1      -7.070   4.243  63.320  1.00  0.00    -0.044 NA 
HETATM    8  C   UNL     1      -9.114   7.615  66.196  1.00  0.00    -0.189 A  
HETATM    9  C   UNL     1      -9.646   6.905  67.317  1.00  0.00    -0.142 A  
HETATM   10  C   UNL     1      -9.250   9.112  66.048  1.00  0.00    -0.271 C  
ENDROOT
BRANCH   9  11
HETATM   11  O   UNL     1     -10.027   7.740  68.361  1.00  0.00    -0.167 OA 
BRANCH  11  12
HETATM   12  C   UNL     1      -9.194   8.322  69.318  1.00  0.00    -0.151 A  
HETATM   13  C   UNL     1      -9.437   8.041  70.650  1.00  0.00    -0.162 A  
HETATM   14  C   UNL     1      -8.564   8.623  71.556  1.00  0.00    -0.195 A  
HETATM   15 BR   UNL     1     -10.873   6.949  71.223  1.00  0.00    -0.274 Br 
HETATM   16  N   UNL     1      -8.603   8.376  72.929  1.00  0.00    -0.336 NA 
HETATM   17  N   UNL     1      -7.550   9.417  71.181  1.00  0.00    -0.329 NA 
HETATM   18  H1  UNL     1      -7.961   8.804  73.595  1.00  0.00     0.000 HD 
HETATM   19  H2  UNL     1      -8.542   7.365  73.057  1.00  0.00     0.000 HD 
HETATM   20  C   UNL     1      -7.408   9.691  69.884  1.00  0.00    -0.120 A  
HETATM   21  N   UNL     1      -8.246   9.199  68.956  1.00  0.00    -0.112 NA 
BRANCH  20  22
HETATM   22  N   UNL     1      -6.340  10.459  69.403  1.00  0.00    -0.048 NA 
HETATM   23  H   UNL     1      -5.612   9.928  68.925  1.00  0.00     0.000 HD 
BRANCH  22  24
HETATM   24  C   UNL     1      -6.111  11.843  69.473  1.00  0.00    -0.108 A  
HETATM   25  C   UNL     1      -6.185  12.687  68.360  1.00  0.00    -0.067 A  
HETATM   26  C   UNL     1      -5.978  14.066  68.474  1.00  0.00    -0.092 A  
HETATM   27  C   UNL     1      -5.679  14.637  69.711  1.00  0.00    -0.104 A  
HETATM   28  C   UNL     1      -5.504  16.058  69.828  1.00  0.00    -0.137 C  
HETATM   29  C   UNL     1      -5.568  13.808  70.828  1.00  0.00    -0.180 A  
HETATM   30  C   UNL     1      -5.770  12.424  70.706  1.00  0.00    -0.095 A  
HETATM   31  N   UNL     1      -5.372  17.207  69.918  1.00  0.00    -0.185 NA 
ENDBRANCH  22  24
ENDBRANCH  20  22
ENDBRANCH  11  12
ENDBRANCH   9  11
TORSDOF 4
ENDMDL
MODEL      203
REMARK 921   NORMALIZED FREE ENERGY PREDICTED BY IDOCK:   -2.58 KCAL/MOL
REMARK 922        TOTAL FREE ENERGY PREDICTED BY IDOCK:   -3.84 KCAL/MOL
REMARK 923 INTER-LIGAND FREE ENERGY PREDICTED BY IDOCK:   -3.50 KCAL/MOL
REMARK 924 INTRA-LIGAND FREE ENERGY PREDICTED BY IDOCK:   -0.34 KCAL/MOL
REMARK 927      BINDING AFFINITY PREDICTED BY RF-SCORE:    0.00 PKD
ROOT
HETATM    1  C   UNL     1      -9.012  11.921  67.179  1.00  0.00    -0.178 C  
HETATM    2  C   UNL     1      -7.772  12.309  67.923  1.00  0.00    -0.133 A  
HETATM    3  C   UNL     1      -7.277  13.581  67.546  1.00  0.00    -0.165 A  
HETATM    4  C   UNL     1      -6.193  14.174  68.177  1.00  0.00    -0.133 A  
HETATM    5  C   UNL     1      -5.594  13.506  69.234  1.00  0.00    -0.078 A  
HETATM    6  C   UNL     1      -5.736  15.468  67.747  1.00  0.00    -0.129 C  
HETATM    7  N   UNL     1      -5.399  16.506  67.373  1.00  0.00    -0.137 NA 
HETATM    8  C   UNL     1      -6.046  12.226  69.628  1.00  0.00    -0.132 A  
HETATM    9  C   UNL     1      -7.119  11.577  68.940  1.00  0.00    -0.111 A  
HETATM   10  C   UNL     1      -5.354  11.603  70.817  1.00  0.00    -0.141 C  
ENDROOT
BRANCH   9  11
HETATM   11  O   UNL     1      -7.256  10.237  69.282  1.00  0.00    -0.072 OA 
BRANCH  11  12
HETATM   12  C   UNL     1      -8.039   9.280  68.635  1.00  0.00    -0.105 A  
HETATM   13  C   UNL     1      -9.203   8.863  69.255  1.00  0.00    -0.145 A  
HETATM   14  C   UNL     1      -9.956   7.933  68.556  1.00  0.00    -0.187 A  
HETATM   15 BR   UNL     1      -9.743   9.496  70.955  1.00  0.00    -0.138 Br 
HETATM   16  N   UNL     1     -11.201   7.471  68.986  1.00  0.00    -0.413 NA 
HETATM   17  N   UNL     1      -9.589   7.452  67.358  1.00  0.00    -0.142 NA 
HETATM   18  H1  UNL     1     -11.755   6.787  68.472  1.00  0.00     0.000 HD 
HETATM   19  H2  UNL     1     -11.792   8.289  69.135  1.00  0.00     0.000 HD 
HETATM   20  C   UNL     1      -8.426   7.856  66.845  1.00  0.00    -0.128 A  
HETATM   21  N   UNL     1      -7.624   8.719  67.489  1.00  0.00    -0.093 NA 
BRANCH  20  22
HETATM   22  N   UNL     1      -7.999   7.451  65.574  1.00  0.00    -0.115 NA 
HETATM   23  H   UNL     1      -7.450   8.143  65.065  1.00  0.00     0.000 HD 
BRANCH  22  24
HETATM   24  C   UNL     1      -8.207   6.243  64.887  1.00  0.00    -0.119 A  
HETATM   25  C   UNL     1      -8.355   6.170  63.498  1.00  0.00     0.083 A  
HETATM   26  C   UNL     1      -8.532   4.944  62.846  1.00  0.00    -0.118 A  
HETATM   27  C   UNL     1      -8.576   3.755  63.573  1.00  0.00    -0.093 A  
HETATM   28  C   UNL     1      -8.721   2.498  62.895  1.00  0.00    -0.085 C  
HETATM   29  C   UNL     1      -8.463   3.809  64.964  1.00  0.00    -0.108 A  
HETATM   30  C   UNL     1      -8.293   5.042  65.613  1.00  0.00    -0.120 A  
HETATM   31  N   UNL     1      -8.830   1.484  62.341  1.00  0.00    -0.067 NA 
ENDBRANCH  22  24
ENDBRANCH  20  22
ENDBRANCH  11  12
ENDBRANCH   9  11
TORSDOF 4
ENDMDL
MODEL      204
REMARK 921   NORMALIZED FREE ENERGY PREDICTED BY IDOCK:   -2.56 KCAL/MOL
REMARK 922        TOTAL FREE ENERGY PREDICTED BY IDOCK:   -3.82 KCAL/MOL
REMARK 923 INTER-LIGAND FREE ENERGY PREDICTED BY IDOCK:   -4.19 KCAL/MOL
REMARK 924 INTRA-LIGAND FREE ENERGY PREDICTED BY IDOCK:    0.38 KCAL/MOL
REMARK 927      BINDING AFFINITY PREDICTED BY RF-SCORE:    0.00 PKD
ROOT
HETATM    1  C   UNL     1      -6.384  15.070  69.930  1.00  0.00    -0.162 C  
HETATM    2  C   UNL     1      -6.647  16.503  69.587  1.00  0.00    -0.169 A  
HETATM    3  C   UNL     1      -6.118  17.405  70.541  1.00  0.00     0.418 A  
HETATM    4  C   UNL     1      -6.167  18.782  70.370  1.00  0.00     0.074 A  
HETATM    5  C   UNL     1      -6.729  19.286  69.208  1.00  0.00    -0.356 A  
HETATM    6  C   UNL     1      -5.612  19.647  71.376  1.00  0.00    -0.296 C  
HETATM    7  N   UNL     1      -5.158  20.307  72.206  1.00  0.00    -0.312 NA 
HETATM    8  C   UNL     1      -7.286  18.419  68.241  1.00  0.00    -0.274 A  
HETATM    9  C   UNL     1      -7.302  17.002  68.438  1.00  0.00    -0.213 A  
HETATM   10  C   UNL     1      -7.835  19.066  66.991  1.00  0.00    -0.255 C  
ENDROOT
BRANCH   9  11
HETATM   11  O   UNL     1      -8.110  16.332  67.529  1.00  0.00    -0.139 OA 
BRANCH  11  12
HETATM   12  C   UNL     1      -9.298  15.651  67.802  1.00  0.00    -0.202 A  
HETATM   13  C   UNL     1     -10.444  16.398  68.005  1.00  0.00    -0.303 A  
HETATM   14  C   UNL     1     -11.600  15.671  68.244  1.00  0.00    -0.319 A  
HETATM   15 BR   UNL     1     -10.456  18.290  67.976  1.00  0.00    -0.356 Br 
HETATM   16  N   UNL     1     -12.861  16.253  68.379  1.00  0.00     1.201 NA 
HETATM   17  N   UNL     1     -11.620  14.330  68.290  1.00  0.00    -0.305 NA 
HETATM   18  H1  UNL     1     -13.711  15.719  68.556  1.00  0.00     0.000 HD 
HETATM   19  H2  UNL     1     -13.025  16.816  67.544  1.00  0.00     0.000 HD 
HETATM   20  C   UNL     1     -10.466  13.676  68.142  1.00  0.00    -0.247 A  
HETATM   21  N   UNL     1      -9.302  14.319  67.953  1.00  0.00    -0.192 NA 
BRANCH  20  22
HETATM   22  N   UNL     1     -10.409  12.277  68.114  1.00  0.00    -0.210 NA 
HETATM   23  H   UNL     1     -10.872  11.814  68.895  1.00  0.00     0.000 HD 
BRANCH  22  24
HETATM   24  C   UNL     1      -9.815  11.410  67.181  1.00  0.00    -0.190 A  
HETATM   25  C   UNL     1      -8.799  10.509  67.515  1.00  0.00    -0.131 A  
HETATM   26  C   UNL     1      -8.251   9.641  66.564  1.00  0.00    -0.119 A  
HETATM   27  C   UNL     1      -8.703   9.660  65.245  1.00  0.00    -0.186 A  
HETATM   28  C   UNL     1      -8.163   8.741  64.282  1.00  0.00    -0.163 C  
HETATM   29  C   UNL     1      -9.693  10.575  64.883  1.00  0.00    -0.360 A  
HETATM   30  C   UNL     1     -10.234  11.449  65.840  1.00  0.00    -0.292 A  
HETATM   31  N   UNL     1      -7.729   7.991  63.511  1.00  0.00    -0.134 NA 
ENDBRANCH  22  24
ENDBRANCH  20  22
ENDBRANCH  11  12
ENDBRANCH   9  11
TORSDOF 4
ENDMDL
MODEL      205
REMARK 921   NORMALIZED FREE ENERGY PREDICTED BY IDOCK:   -2.53 KCAL/MOL
REMARK 922        TOTAL FREE ENERGY PREDICTED BY IDOCK:   -3.77 KCAL/MOL
REMARK 923 INTER-LIGAND FREE ENERGY PREDICTED BY IDOCK:   -4.24 KCAL/MOL
REMARK 924 INTRA-LIGAND FREE ENERGY PREDICTED BY IDOCK:    0.47 KCAL/MOL
REMARK 927      BINDING AFFINITY PREDICTED BY RF-SCORE:    0.00 PKD
ROOT
HETATM    1  C   UNL     1      -6.906  10.969  70.215  1.00  0.00     0.199 C  
HETATM    2  C   UNL     1      -7.803  10.473  69.123  1.00  0.00    -0.138 A  
HETATM    3  C   UNL     1      -8.502  11.514  68.467  1.00  0.00    -0.143 A  
HETATM    4  C   UNL     1      -9.315  11.284  67.365  1.00  0.00    -0.168 A  
HETATM    5  C   UNL     1      -9.419   9.992  66.876  1.00  0.00    -0.203 A  
HETATM    6  C   UNL     1     -10.001  12.384  66.742  1.00  0.00    -0.225 C  
HETATM    7  N   UNL     1     -10.535  13.291  66.271  1.00  0.00    -0.282 NA 
HETATM    8  C   UNL     1      -8.752   8.922  67.516  1.00  0.00    -0.124 A  
HETATM    9  C   UNL     1      -7.967   9.137  68.692  1.00  0.00    -0.101 A  
HETATM   10  C   UNL     1      -8.896   7.560  66.878  1.00  0.00    -0.145 C  
ENDROOT
BRANCH   9  11
HETATM   11  O   UNL     1      -7.606   7.958  69.331  1.00  0.00    -0.098 OA 
BRANCH  11  12
HETATM   12  C   UNL     1      -8.455   6.926  69.735  1.00  0.00    -0.133 A  
HETATM   13  C   UNL     1      -9.440   7.219  70.661  1.00  0.00    -0.164 A  
HETATM   14  C   UNL     1     -10.273   6.166  71.006  1.00  0.00    -0.196 A  
HETATM   15 BR   UNL     1      -9.645   8.935  71.433  1.00  0.00    -0.356 Br 
HETATM   16  N   UNL     1     -11.373   6.302  71.853  1.00  0.00    -0.285 NA 
HETATM   17  N   UNL     1     -10.139   4.934  70.491  1.00  0.00    -0.244 NA 
HETATM   18  H1  UNL     1     -11.986   5.527  72.107  1.00  0.00     0.000 HD 
HETATM   19  H2  UNL     1     -11.963   7.040  71.468  1.00  0.00     0.000 HD 
HETATM   20  C   UNL     1      -9.133   4.710  69.645  1.00  0.00    -0.109 A  
HETATM   21  N   UNL     1      -8.261   5.671  69.303  1.00  0.00    -0.096 NA 
BRANCH  20  22
HETATM   22  N   UNL     1      -8.961   3.471  69.014  1.00  0.00    -0.111 NA 
HETATM   23  H   UNL     1      -8.707   2.704  69.637  1.00  0.00     0.000 HD 
BRANCH  22  24
HETATM   24  C   UNL     1      -9.082   3.115  67.660  1.00  0.00    -0.178 A  
HETATM   25  C   UNL     1      -8.680   1.872  67.159  1.00  0.00    -0.130 A  
HETATM   26  C   UNL     1      -8.842   1.543  65.808  1.00  0.00    -0.120 A  
HETATM   27  C   UNL     1      -9.403   2.459  64.919  1.00  0.00    -0.104 A  
HETATM   28  C   UNL     1      -9.601   2.102  63.542  1.00  0.00    -0.106 C  
HETATM   29  C   UNL     1      -9.780   3.717  65.392  1.00  0.00    -0.157 A  
HETATM   30  C   UNL     1      -9.608   4.044  66.747  1.00  0.00    -0.234 A  
HETATM   31  N   UNL     1      -9.765   1.804  62.432  1.00  0.00    -0.088 NA 
ENDBRANCH  22  24
ENDBRANCH  20  22
ENDBRANCH  11  12
ENDBRANCH   9  11
TORSDOF 4
ENDMDL
MODEL      206
REMARK 921   NORMALIZED FREE ENERGY PREDICTED BY IDOCK:   -2.44 KCAL/MOL
REMARK 922        TOTAL FREE ENERGY PREDICTED BY IDOCK:   -3.67 KCAL/MOL
REMARK 923 INTER-LIGAND FREE ENERGY PREDICTED BY IDOCK:   -3.90 KCAL/MOL
REMARK 924 INTRA-LIGAND FREE ENERGY PREDICTED BY IDOCK:    0.23 KCAL/MOL
REMARK 927      BINDING AFFINITY PREDICTED BY RF-SCORE:    0.00 PKD
ROOT
HETATM    1  C   UNL     1      -8.924  19.840  67.828  1.00  0.00    -0.396 C  
HETATM    2  C   UNL     1      -7.730  19.181  68.447  1.00  0.00    -0.359 A  
HETATM    3  C   UNL     1      -7.151  19.950  69.484  1.00  0.00    -0.212 A  
HETATM    4  C   UNL     1      -6.094  19.484  70.253  1.00  0.00    -0.264 A  
HETATM    5  C   UNL     1      -5.610  18.208  70.012  1.00  0.00    -0.243 A  
HETATM    6  C   UNL     1      -5.547  20.314  71.293  1.00  0.00    -0.305 C  
HETATM    7  N   UNL     1      -5.135  21.009  72.116  1.00  0.00    -0.508 NA 
HETATM    8  C   UNL     1      -6.149  17.416  68.972  1.00  0.00    -0.202 A  
HETATM    9  C   UNL     1      -7.192  17.913  68.130  1.00  0.00    -0.231 A  
HETATM   10  C   UNL     1      -5.581  16.024  68.821  1.00  0.00    -0.108 C  
ENDROOT
BRANCH   9  11
HETATM   11  O   UNL     1      -7.416  17.119  67.011  1.00  0.00    -0.162 OA 
BRANCH  11  12
HETATM   12  C   UNL     1      -8.521  16.303  66.767  1.00  0.00    -0.247 A  
HETATM   13  C   UNL     1      -9.564  16.825  66.024  1.00  0.00    -0.234 A  
HETATM   14  C   UNL     1     -10.624  15.963  65.787  1.00  0.00    -0.355 A  
HETATM   15 BR   UNL     1      -9.574  18.603  65.376  1.00  0.00     1.543 Br 
HETATM   16  N   UNL     1     -11.716  16.290  64.982  1.00  0.00     0.256 NA 
HETATM   17  N   UNL     1     -10.655  14.704  66.250  1.00  0.00    -0.298 NA 
HETATM   18  H1  UNL     1     -12.496  15.656  64.808  1.00  0.00     0.000 HD 
HETATM   19  H2  UNL     1     -11.348  16.574  64.074  1.00  0.00     0.000 HD 
HETATM   20  C   UNL     1      -9.640  14.285  67.007  1.00  0.00    -0.257 A  
HETATM   21  N   UNL     1      -8.604  15.082  67.315  1.00  0.00    -0.192 NA 
BRANCH  20  22
HETATM   22  N   UNL     1      -9.564  12.968  67.477  1.00  0.00    -0.198 NA 
HETATM   23  H   UNL     1     -10.129  12.775  68.304  1.00  0.00     0.000 HD 
BRANCH  22  24
HETATM   24  C   UNL     1      -8.834  11.870  66.992  1.00  0.00    -0.190 A  
HETATM   25  C   UNL     1      -7.845  11.220  67.738  1.00  0.00    -0.115 A  
HETATM   26  C   UNL     1      -7.159  10.111  67.232  1.00  0.00    -0.088 A  
HETATM   27  C   UNL     1      -7.438   9.628  65.954  1.00  0.00    -0.099 A  
HETATM   28  C   UNL     1      -6.757   8.468  65.454  1.00  0.00    -0.063 C  
HETATM   29  C   UNL     1      -8.398  10.283  65.179  1.00  0.00    -0.162 A  
HETATM   30  C   UNL     1      -9.079  11.399  65.690  1.00  0.00    -0.173 A  
HETATM   31  N   UNL     1      -6.208   7.524  65.059  1.00  0.00    -0.038 NA 
ENDBRANCH  22  24
ENDBRANCH  20  22
ENDBRANCH  11  12
ENDBRANCH   9  11
TORSDOF 4
ENDMDL
MODEL      207
REMARK 921   NORMALIZED FREE ENERGY PREDICTED BY IDOCK:   -2.42 KCAL/MOL
REMARK 922        TOTAL FREE ENERGY PREDICTED BY IDOCK:   -3.65 KCAL/MOL
REMARK 923 INTER-LIGAND FREE ENERGY PREDICTED BY IDOCK:   -3.36 KCAL/MOL
REMARK 924 INTRA-LIGAND FREE ENERGY PREDICTED BY IDOCK:   -0.29 KCAL/MOL
REMARK 927      BINDING AFFINITY PREDICTED BY RF-SCORE:    0.00 PKD
ROOT
HETATM    1  C   UNL     1      -6.133  11.003  67.176  1.00  0.00    -0.074 C  
HETATM    2  C   UNL     1      -6.558   9.588  67.421  1.00  0.00    -0.070 A  
HETATM    3  C   UNL     1      -6.021   8.679  66.478  1.00  0.00    -0.052 A  
HETATM    4  C   UNL     1      -6.212   7.308  66.575  1.00  0.00    -0.040 A  
HETATM    5  C   UNL     1      -6.930   6.813  67.652  1.00  0.00    -0.083 A  
HETATM    6  C   UNL     1      -5.640   6.435  65.585  1.00  0.00    -0.017 C  
HETATM    7  N   UNL     1      -5.168   5.768  64.770  1.00  0.00    -0.010 NA 
HETATM    8  C   UNL     1      -7.499   7.689  68.604  1.00  0.00    -0.103 A  
HETATM    9  C   UNL     1      -7.366   9.107  68.476  1.00  0.00    -0.077 A  
HETATM   10  C   UNL     1      -8.227   7.047  69.762  1.00  0.00    -0.131 C  
ENDROOT
BRANCH   9  11
HETATM   11  O   UNL     1      -8.198   9.814  69.336  1.00  0.00    -0.110 OA 
BRANCH  11  12
HETATM   12  C   UNL     1      -9.105  10.817  68.993  1.00  0.00    -0.143 A  
HETATM   13  C   UNL     1     -10.356  10.437  68.542  1.00  0.00    -0.176 A  
HETATM   14  C   UNL     1     -11.226  11.473  68.242  1.00  0.00    -0.261 A  
HETATM   15 BR   UNL     1     -10.862   8.627  68.325  1.00  0.00     0.091 Br 
HETATM   16  N   UNL     1     -12.555  11.276  67.862  1.00  0.00     0.695 NA 
HETATM   17  N   UNL     1     -10.889  12.766  68.367  1.00  0.00    -0.240 NA 
HETATM   18  H1  UNL     1     -13.195  12.038  67.641  1.00  0.00     0.000 HD 
HETATM   19  H2  UNL     1     -12.996  10.711  68.588  1.00  0.00     0.000 HD 
HETATM   20  C   UNL     1      -9.647  13.060  68.754  1.00  0.00     0.093 A  
HETATM   21  N   UNL     1      -8.738  12.107  69.015  1.00  0.00     0.272 NA 
BRANCH  20  22
HETATM   22  N   UNL     1      -9.234  14.381  68.969  1.00  0.00    -0.387 NA 
HETATM   23  H   UNL     1      -8.586  14.506  69.747  1.00  0.00     0.000 HD 
BRANCH  22  24
HETATM   24  C   UNL     1      -9.569  15.562  68.285  1.00  0.00    -0.201 A  
HETATM   25  C   UNL     1      -9.877  16.761  68.937  1.00  0.00    -0.264 A  
HETATM   26  C   UNL     1     -10.179  17.924  68.221  1.00  0.00    -0.391 A  
HETATM   27  C   UNL     1     -10.191  17.915  66.827  1.00  0.00    -0.360 A  
HETATM   28  C   UNL     1     -10.465  19.121  66.098  1.00  0.00    -0.477 C  
HETATM   29  C   UNL     1      -9.919  16.720  66.157  1.00  0.00    -0.345 A  
HETATM   30  C   UNL     1      -9.624  15.554  66.881  1.00  0.00    -0.241 A  
HETATM   31  N   UNL     1     -10.679  20.101  65.514  1.00  0.00    -0.260 NA 
ENDBRANCH  22  24
ENDBRANCH  20  22
ENDBRANCH  11  12
ENDBRANCH   9  11
TORSDOF 4
ENDMDL
MODEL      208
REMARK 921   NORMALIZED FREE ENERGY PREDICTED BY IDOCK:   -2.37 KCAL/MOL
REMARK 922        TOTAL FREE ENERGY PREDICTED BY IDOCK:   -3.58 KCAL/MOL
REMARK 923 INTER-LIGAND FREE ENERGY PREDICTED BY IDOCK:   -4.24 KCAL/MOL
REMARK 924 INTRA-LIGAND FREE ENERGY PREDICTED BY IDOCK:    0.66 KCAL/MOL
REMARK 927      BINDING AFFINITY PREDICTED BY RF-SCORE:    0.00 PKD
ROOT
HETATM    1  C   UNL     1     -11.915  14.374  66.455  1.00  0.00    -0.402 C  
HETATM    2  C   UNL     1     -10.824  15.248  66.991  1.00  0.00    -0.321 A  
HETATM    3  C   UNL     1     -10.874  16.568  66.481  1.00  0.00    -0.046 A  
HETATM    4  C   UNL     1     -10.013  17.566  66.917  1.00  0.00    -0.313 A  
HETATM    5  C   UNL     1      -9.094  17.263  67.908  1.00  0.00    -0.239 A  
HETATM    6  C   UNL     1     -10.113  18.888  66.360  1.00  0.00    -0.409 C  
HETATM    7  N   UNL     1     -10.222  19.935  65.888  1.00  0.00    -0.484 NA 
HETATM    8  C   UNL     1      -8.999  15.952  68.428  1.00  0.00    -0.189 A  
HETATM    9  C   UNL     1      -9.835  14.900  67.938  1.00  0.00    -0.214 A  
HETATM   10  C   UNL     1      -7.994  15.736  69.535  1.00  0.00    -0.145 C  
ENDROOT
BRANCH   9  11
HETATM   11  O   UNL     1      -9.434  13.639  68.364  1.00  0.00    -0.208 OA 
BRANCH  11  12
HETATM   12  C   UNL     1      -8.906  12.615  67.577  1.00  0.00    -0.186 A  
HETATM   13  C   UNL     1      -7.654  12.801  67.020  1.00  0.00     0.042 A  
HETATM   14  C   UNL     1      -7.166  11.741  66.271  1.00  0.00     0.342 A  
HETATM   15 BR   UNL     1      -6.660  14.397  67.238  1.00  0.00     0.493 Br 
HETATM   16  N   UNL     1      -5.887  11.718  65.713  1.00  0.00    -0.219 NA 
HETATM   17  N   UNL     1      -7.855  10.606  66.082  1.00  0.00    -0.148 NA 
HETATM   18  H1  UNL     1      -5.528  10.939  65.162  1.00  0.00     0.000 HD 
HETATM   19  H2  UNL     1      -5.224  11.884  66.470  1.00  0.00     0.000 HD 
HETATM   20  C   UNL     1      -9.080  10.517  66.602  1.00  0.00    -0.155 A  
HETATM   21  N   UNL     1      -9.633  11.523  67.299  1.00  0.00    -0.172 NA 
BRANCH  20  22
HETATM   22  N   UNL     1      -9.840   9.344  66.505  1.00  0.00    -0.237 NA 
HETATM   23  H   UNL     1     -10.699   9.434  65.963  1.00  0.00     0.000 HD 
BRANCH  22  24
HETATM   24  C   UNL     1      -9.610   8.064  67.036  1.00  0.00    -0.196 A  
HETATM   25  C   UNL     1     -10.242   6.913  66.555  1.00  0.00    -0.127 A  
HETATM   26  C   UNL     1      -9.965   5.650  67.091  1.00  0.00    -0.188 A  
HETATM   27  C   UNL     1      -9.052   5.508  68.135  1.00  0.00    -0.111 A  
HETATM   28  C   UNL     1      -8.745   4.206  68.655  1.00  0.00    -0.097 C  
HETATM   29  C   UNL     1      -8.435   6.649  68.652  1.00  0.00    -0.122 A  
HETATM   30  C   UNL     1      -8.722   7.914  68.115  1.00  0.00    -0.126 A  
HETATM   31  N   UNL     1      -8.495   3.150  69.066  1.00  0.00    -0.060 NA 
ENDBRANCH  22  24
ENDBRANCH  20  22
ENDBRANCH  11  12
ENDBRANCH   9  11
TORSDOF 4
ENDMDL
MODEL      209
REMARK 921   NORMALIZED FREE ENERGY PREDICTED BY IDOCK:   -2.24 KCAL/MOL
REMARK 922        TOTAL FREE ENERGY PREDICTED BY IDOCK:   -3.41 KCAL/MOL
REMARK 923 INTER-LIGAND FREE ENERGY PREDICTED BY IDOCK:   -6.31 KCAL/MOL
REMARK 924 INTRA-LIGAND FREE ENERGY PREDICTED BY IDOCK:    2.90 KCAL/MOL
REMARK 927      BINDING AFFINITY PREDICTED BY RF-SCORE:    0.00 PKD
ROOT
HETATM    1  C   UNL     1      -8.844   9.593  62.380  1.00  0.00    -0.262 C  
HETATM    2  C   UNL     1      -8.014   9.470  63.621  1.00  0.00    -0.141 A  
HETATM    3  C   UNL     1      -7.288   8.256  63.680  1.00  0.00    -0.108 A  
HETATM    4  C   UNL     1      -6.385   7.979  64.697  1.00  0.00    -0.052 A  
HETATM    5  C   UNL     1      -6.169   8.940  65.672  1.00  0.00    -0.052 A  
HETATM    6  C   UNL     1      -5.677   6.727  64.703  1.00  0.00    -0.031 C  
HETATM    7  N   UNL     1      -5.131   5.712  64.674  1.00  0.00    -0.009 NA 
HETATM    8  C   UNL     1      -6.889  10.156  65.658  1.00  0.00    -0.124 A  
HETATM    9  C   UNL     1      -7.871  10.423  64.654  1.00  0.00    -0.077 A  
HETATM   10  C   UNL     1      -6.548  11.154  66.741  1.00  0.00    -0.133 C  
ENDROOT
BRANCH   9  11
HETATM   11  O   UNL     1      -8.658  11.532  64.940  1.00  0.00     0.251 OA 
BRANCH  11  12
HETATM   12  C   UNL     1      -9.613  11.646  65.951  1.00  0.00    -0.229 A  
HETATM   13  C   UNL     1     -10.149  10.484  66.474  1.00  0.00    -0.225 A  
HETATM   14  C   UNL     1     -11.072  10.653  67.495  1.00  0.00    -0.300 A  
HETATM   15 BR   UNL     1      -9.679   8.762  65.844  1.00  0.00    -0.102 Br 
HETATM   16  N   UNL     1     -11.643   9.593  68.200  1.00  0.00    -0.266 NA 
HETATM   17  N   UNL     1     -11.439  11.861  67.949  1.00  0.00    -0.296 NA 
HETATM   18  H1  UNL     1     -12.322   9.718  68.950  1.00  0.00     0.000 HD 
HETATM   19  H2  UNL     1     -10.878   9.032  68.574  1.00  0.00     0.000 HD 
HETATM   20  C   UNL     1     -10.925  12.941  67.360  1.00  0.00    -0.260 A  
HETATM   21  N   UNL     1     -10.062  12.850  66.335  1.00  0.00    -0.263 NA 
BRANCH  20  22
HETATM   22  N   UNL     1     -11.207  14.236  67.814  1.00  0.00    -0.280 NA 
HETATM   23  H   UNL     1     -11.166  14.960  67.097  1.00  0.00     0.000 HD 
BRANCH  22  24
HETATM   24  C   UNL     1     -11.538  14.697  69.099  1.00  0.00    -0.301 A  
HETATM   25  C   UNL     1     -12.368  13.989  69.974  1.00  0.00    -0.397 A  
HETATM   26  C   UNL     1     -12.653  14.468  71.258  1.00  0.00    -0.415 A  
HETATM   27  C   UNL     1     -12.119  15.678  71.697  1.00  0.00    -0.496 A  
HETATM   28  C   UNL     1     -12.384  16.146  73.029  1.00  0.00    -0.525 C  
HETATM   29  C   UNL     1     -11.314  16.417  70.827  1.00  0.00    -0.211 A  
HETATM   30  C   UNL     1     -11.038  15.935  69.538  1.00  0.00    -0.315 A  
HETATM   31  N   UNL     1     -12.596  16.514  74.109  1.00  0.00    -0.689 NA 
ENDBRANCH  22  24
ENDBRANCH  20  22
ENDBRANCH  11  12
ENDBRANCH   9  11
TORSDOF 4
ENDMDL
MODEL      210
REMARK 921   NORMALIZED FREE ENERGY PREDICTED BY IDOCK:   -2.15 KCAL/MOL
REMARK 922        TOTAL FREE ENERGY PREDICTED BY IDOCK:   -3.30 KCAL/MOL
REMARK 923 INTER-LIGAND FREE ENERGY PREDICTED BY IDOCK:   -2.55 KCAL/MOL
REMARK 924 INTRA-LIGAND FREE ENERGY PREDICTED BY IDOCK:   -0.75 KCAL/MOL
REMARK 927      BINDING AFFINITY PREDICTED BY RF-SCORE:    0.00 PKD
ROOT
HETATM    1  C   UNL     1      -5.392   9.312  69.038  1.00  0.00    -0.037 C  
HETATM    2  C   UNL     1      -6.309  10.317  68.412  1.00  0.00    -0.048 A  
HETATM    3  C   UNL     1      -6.330  11.552  69.104  1.00  0.00    -0.078 A  
HETATM    4  C   UNL     1      -7.040  12.651  68.642  1.00  0.00    -0.096 A  
HETATM    5  C   UNL     1      -7.729  12.540  67.446  1.00  0.00    -0.167 A  
HETATM    6  C   UNL     1      -7.022  13.879  69.391  1.00  0.00    -0.022 C  
HETATM    7  N   UNL     1      -6.984  14.845  70.020  1.00  0.00    -0.159 NA 
HETATM    8  C   UNL     1      -7.750  11.318  66.736  1.00  0.00    -0.155 A  
HETATM    9  C   UNL     1      -7.078  10.160  67.237  1.00  0.00    -0.088 A  
HETATM   10  C   UNL     1      -8.495  11.314  65.421  1.00  0.00     0.128 C  
ENDROOT
BRANCH   9  11
HETATM   11  O   UNL     1      -7.417   8.995  66.560  1.00  0.00    -0.087 OA 
BRANCH  11  12
HETATM   12  C   UNL     1      -8.559   8.216  66.747  1.00  0.00    -0.132 A  
HETATM   13  C   UNL     1      -8.930   7.350  65.735  1.00  0.00    -0.022 A  
HETATM   14  C   UNL     1     -10.055   6.580  65.984  1.00  0.00     0.397 A  
HETATM   15 BR   UNL     1      -7.987   7.219  64.099  1.00  0.00    -0.037 Br 
HETATM   16  N   UNL     1     -10.519   5.591  65.116  1.00  0.00     0.315 NA 
HETATM   17  N   UNL     1     -10.756   6.665  67.126  1.00  0.00    -0.326 NA 
HETATM   18  H1  UNL     1     -11.347   5.025  65.299  1.00  0.00     0.000 HD 
HETATM   19  H2  UNL     1      -9.745   4.949  64.948  1.00  0.00     0.000 HD 
HETATM   20  C   UNL     1     -10.374   7.562  68.036  1.00  0.00    -0.204 A  
HETATM   21  N   UNL     1      -9.322   8.372  67.839  1.00  0.00    -0.135 NA 
BRANCH  20  22
HETATM   22  N   UNL     1     -11.012   7.671  69.278  1.00  0.00    -0.425 NA 
HETATM   23  H   UNL     1     -11.577   8.512  69.397  1.00  0.00     0.000 HD 
BRANCH  22  24
HETATM   24  C   UNL     1     -10.998   6.808  70.387  1.00  0.00    -0.283 A  
HETATM   25  C   UNL     1     -12.159   6.394  71.047  1.00  0.00    -0.189 A  
HETATM   26  C   UNL     1     -12.107   5.511  72.131  1.00  0.00     0.256 A  
HETATM   27  C   UNL     1     -10.883   5.025  72.591  1.00  0.00    -0.286 A  
HETATM   28  C   UNL     1     -10.839   4.091  73.680  1.00  0.00    -0.255 C  
HETATM   29  C   UNL     1      -9.710   5.452  71.967  1.00  0.00    -0.198 A  
HETATM   30  C   UNL     1      -9.768   6.344  70.884  1.00  0.00    -0.193 A  
HETATM   31  N   UNL     1     -10.810   3.329  74.556  1.00  0.00    -0.026 NA 
ENDBRANCH  22  24
ENDBRANCH  20  22
ENDBRANCH  11  12
ENDBRANCH   9  11
TORSDOF 4
ENDMDL
MODEL      211
REMARK 921   NORMALIZED FREE ENERGY PREDICTED BY IDOCK:   -2.04 KCAL/MOL
REMARK 922        TOTAL FREE ENERGY PREDICTED BY IDOCK:   -3.18 KCAL/MOL
REMARK 923 INTER-LIGAND FREE ENERGY PREDICTED BY IDOCK:   -3.17 KCAL/MOL
REMARK 924 INTRA-LIGAND FREE ENERGY PREDICTED BY IDOCK:   -0.00 KCAL/MOL
REMARK 927      BINDING AFFINITY PREDICTED BY RF-SCORE:    0.00 PKD
ROOT
HETATM    1  C   UNL     1      -9.509  12.287  65.647  1.00  0.00    -0.078 C  
HETATM    2  C   UNL     1     -10.103  11.250  66.549  1.00  0.00    -0.256 A  
HETATM    3  C   UNL     1     -10.730  11.805  67.690  1.00  0.00    -0.254 A  
HETATM    4  C   UNL     1     -11.425  11.029  68.608  1.00  0.00    -0.375 A  
HETATM    5  C   UNL     1     -11.530   9.666  68.379  1.00  0.00     0.273 A  
HETATM    6  C   UNL     1     -12.040  11.652  69.749  1.00  0.00    -0.289 C  
HETATM    7  N   UNL     1     -12.519  12.187  70.652  1.00  0.00    -0.288 NA 
HETATM    8  C   UNL     1     -10.901   9.071  67.262  1.00  0.00    -0.100 A  
HETATM    9  C   UNL     1     -10.126   9.851  66.347  1.00  0.00    -0.240 A  
HETATM   10  C   UNL     1     -11.112   7.586  67.080  1.00  0.00     0.111 C  
ENDROOT
BRANCH   9  11
HETATM   11  O   UNL     1      -9.372   9.079  65.472  1.00  0.00    -0.230 OA 
BRANCH  11  12
HETATM   12  C   UNL     1      -8.272   8.281  65.789  1.00  0.00    -0.123 A  
HETATM   13  C   UNL     1      -7.325   8.058  64.806  1.00  0.00    -0.082 A  
HETATM   14  C   UNL     1      -6.239   7.283  65.183  1.00  0.00    -0.038 A  
HETATM   15 BR   UNL     1      -7.488   8.743  63.050  1.00  0.00    -0.106 Br 
HETATM   16  N   UNL     1      -5.147   7.033  64.351  1.00  0.00    -0.027 NA 
HETATM   17  N   UNL     1      -6.106   6.767  66.414  1.00  0.00    -0.032 NA 
HETATM   18  H1  UNL     1      -4.349   6.462  64.627  1.00  0.00     0.000 HD 
HETATM   19  H2  UNL     1      -4.783   7.937  64.049  1.00  0.00     0.000 HD 
HETATM   20  C   UNL     1      -7.085   6.976  67.295  1.00  0.00    -0.084 A  
HETATM   21  N   UNL     1      -8.186   7.678  66.984  1.00  0.00    -0.116 NA 
BRANCH  20  22
HETATM   22  N   UNL     1      -6.995   6.526  68.619  1.00  0.00    -0.077 NA 
HETATM   23  H   UNL     1      -6.146   6.007  68.839  1.00  0.00     0.000 HD 
BRANCH  22  24
HETATM   24  C   UNL     1      -7.889   6.676  69.693  1.00  0.00    -0.115 A  
HETATM   25  C   UNL     1      -8.384   5.596  70.431  1.00  0.00    -0.119 A  
HETATM   26  C   UNL     1      -9.251   5.787  71.512  1.00  0.00    -0.159 A  
HETATM   27  C   UNL     1      -9.656   7.071  71.878  1.00  0.00    -0.159 A  
HETATM   28  C   UNL     1     -10.516   7.263  73.011  1.00  0.00    -0.310 C  
HETATM   29  C   UNL     1      -9.200   8.160  71.133  1.00  0.00    -0.185 A  
HETATM   30  C   UNL     1      -8.336   7.962  70.044  1.00  0.00    -0.121 A  
HETATM   31  N   UNL     1     -11.205   7.412  73.933  1.00  0.00     0.407 NA 
ENDBRANCH  22  24
ENDBRANCH  20  22
ENDBRANCH  11  12
ENDBRANCH   9  11
TORSDOF 4
ENDMDL
MODEL      212
REMARK 921   NORMALIZED FREE ENERGY PREDICTED BY IDOCK:   -1.98 KCAL/MOL
REMARK 922        TOTAL FREE ENERGY PREDICTED BY IDOCK:   -3.10 KCAL/MOL
REMARK 923 INTER-LIGAND FREE ENERGY PREDICTED BY IDOCK:   -2.60 KCAL/MOL
REMARK 924 INTRA-LIGAND FREE ENERGY PREDICTED BY IDOCK:   -0.50 KCAL/MOL
REMARK 927      BINDING AFFINITY PREDICTED BY RF-SCORE:    0.00 PKD
ROOT
HETATM    1  C   UNL     1     -11.135  10.330  70.308  1.00  0.00    -0.388 C  
HETATM    2  C   UNL     1     -10.017  10.003  69.367  1.00  0.00    -0.239 A  
HETATM    3  C   UNL     1      -8.904   9.416  70.015  1.00  0.00    -0.231 A  
HETATM    4  C   UNL     1      -7.798   8.951  69.318  1.00  0.00    -0.096 A  
HETATM    5  C   UNL     1      -7.800   9.039  67.936  1.00  0.00    -0.101 A  
HETATM    6  C   UNL     1      -6.697   8.364  70.034  1.00  0.00    -0.042 C  
HETATM    7  N   UNL     1      -5.834   7.902  70.644  1.00  0.00    -0.030 NA 
HETATM    8  C   UNL     1      -8.884   9.637  67.252  1.00  0.00    -0.139 A  
HETATM    9  C   UNL     1      -9.998  10.181  67.965  1.00  0.00    -0.148 A  
HETATM   10  C   UNL     1      -8.809   9.645  65.743  1.00  0.00    -0.186 C  
ENDROOT
BRANCH   9  11
HETATM   11  O   UNL     1     -10.833  10.953  67.167  1.00  0.00    -0.258 OA 
BRANCH  11  12
HETATM   12  C   UNL     1     -10.524  12.169  66.556  1.00  0.00    -0.225 A  
HETATM   13  C   UNL     1     -11.014  12.402  65.285  1.00  0.00    -0.298 A  
HETATM   14  C   UNL     1     -10.700  13.636  64.736  1.00  0.00    -0.410 A  
HETATM   15 BR   UNL     1     -12.036  11.127  64.329  1.00  0.00     1.127 Br 
HETATM   16  N   UNL     1     -11.186  14.076  63.504  1.00  0.00     0.112 NA 
HETATM   17  N   UNL     1      -9.961  14.552  65.381  1.00  0.00    -0.351 NA 
HETATM   18  H1  UNL     1     -10.955  14.983  63.101  1.00  0.00     0.000 HD 
HETATM   19  H2  UNL     1     -12.203  14.011  63.539  1.00  0.00     0.000 HD 
HETATM   20  C   UNL     1      -9.474  14.238  66.582  1.00  0.00    -0.286 A  
HETATM   21  N   UNL     1      -9.700  13.043  67.153  1.00  0.00    -0.224 NA 
BRANCH  20  22
HETATM   22  N   UNL     1      -8.748  15.158  67.348  1.00  0.00    -0.180 NA 
HETATM   23  H   UNL     1      -7.816  14.846  67.623  1.00  0.00     0.000 HD 
BRANCH  22  24
HETATM   24  C   UNL     1      -9.096  16.443  67.799  1.00  0.00    -0.199 A  
HETATM   25  C   UNL     1      -8.939  17.594  67.020  1.00  0.00    -0.258 A  
HETATM   26  C   UNL     1      -9.324  18.853  67.493  1.00  0.00    -0.327 A  
HETATM   27  C   UNL     1      -9.869  18.995  68.769  1.00  0.00    -0.485 A  
HETATM   28  C   UNL     1     -10.296  20.284  69.234  1.00  0.00     0.169 C  
HETATM   29  C   UNL     1     -10.002  17.863  69.575  1.00  0.00     0.167 A  
HETATM   30  C   UNL     1      -9.608  16.603  69.098  1.00  0.00    -0.208 A  
HETATM   31  N   UNL     1     -10.647  21.327  69.602  1.00  0.00     1.135 NA 
ENDBRANCH  22  24
ENDBRANCH  20  22
ENDBRANCH  11  12
ENDBRANCH   9  11
TORSDOF 4
ENDMDL
MODEL      213
REMARK 921   NORMALIZED FREE ENERGY PREDICTED BY IDOCK:   -1.80 KCAL/MOL
REMARK 922        TOTAL FREE ENERGY PREDICTED BY IDOCK:   -2.87 KCAL/MOL
REMARK 923 INTER-LIGAND FREE ENERGY PREDICTED BY IDOCK:   -3.60 KCAL/MOL
REMARK 924 INTRA-LIGAND FREE ENERGY PREDICTED BY IDOCK:    0.72 KCAL/MOL
REMARK 927      BINDING AFFINITY PREDICTED BY RF-SCORE:    0.00 PKD
ROOT
HETATM    1  C   UNL     1      -9.987   8.719  66.513  1.00  0.00    -0.360 C  
HETATM    2  C   UNL     1      -9.692  10.017  65.828  1.00  0.00    -0.321 A  
HETATM    3  C   UNL     1      -8.589   9.937  64.945  1.00  0.00    -0.183 A  
HETATM    4  C   UNL     1      -8.204  10.999  64.139  1.00  0.00     0.361 A  
HETATM    5  C   UNL     1      -8.945  12.169  64.184  1.00  0.00     0.898 A  
HETATM    6  C   UNL     1      -7.073  10.857  63.262  1.00  0.00     0.415 C  
HETATM    7  N   UNL     1      -6.160  10.704  62.573  1.00  0.00    -0.141 NA 
HETATM    8  C   UNL     1     -10.042  12.295  65.067  1.00  0.00    -0.277 A  
HETATM    9  C   UNL     1     -10.406  11.231  65.950  1.00  0.00    -0.253 A  
HETATM   10  C   UNL     1     -10.810  13.594  65.007  1.00  0.00    -0.358 C  
ENDROOT
BRANCH   9  11
HETATM   11  O   UNL     1     -11.324  11.615  66.920  1.00  0.00    -0.320 OA 
BRANCH  11  12
HETATM   12  C   UNL     1     -11.463  11.085  68.203  1.00  0.00    -0.302 A  
HETATM   13  C   UNL     1     -11.693  11.961  69.248  1.00  0.00    -0.328 A  
HETATM   14  C   UNL     1     -11.851  11.379  70.496  1.00  0.00    -0.297 A  
HETATM   15 BR   UNL     1     -11.773  13.837  69.016  1.00  0.00    -0.395 Br 
HETATM   16  N   UNL     1     -12.179  12.100  71.645  1.00  0.00     0.120 NA 
HETATM   17  N   UNL     1     -11.779  10.054  70.696  1.00  0.00    -0.312 NA 
HETATM   18  H1  UNL     1     -12.294  11.673  72.563  1.00  0.00     0.000 HD 
HETATM   19  H2  UNL     1     -13.033  12.619  71.443  1.00  0.00     0.000 HD 
HETATM   20  C   UNL     1     -11.499   9.273  69.651  1.00  0.00     0.152 A  
HETATM   21  N   UNL     1     -11.288   9.773  68.424  1.00  0.00    -0.009 NA 
BRANCH  20  22
HETATM   22  N   UNL     1     -11.469   7.877  69.761  1.00  0.00    -0.438 NA 
HETATM   23  H   UNL     1     -12.369   7.417  69.628  1.00  0.00     0.000 HD 
BRANCH  22  24
HETATM   24  C   UNL     1     -10.396   7.008  70.024  1.00  0.00    -0.202 A  
HETATM   25  C   UNL     1     -10.552   5.628  70.183  1.00  0.00    -0.380 A  
HETATM   26  C   UNL     1      -9.456   4.791  70.416  1.00  0.00    -0.241 A  
HETATM   27  C   UNL     1      -8.168   5.319  70.508  1.00  0.00    -0.108 A  
HETATM   28  C   UNL     1      -7.043   4.451  70.711  1.00  0.00    -0.037 C  
HETATM   29  C   UNL     1      -7.994   6.699  70.386  1.00  0.00    -0.115 A  
HETATM   30  C   UNL     1      -9.099   7.534  70.159  1.00  0.00    -0.147 A  
HETATM   31  N   UNL     1      -6.136   3.743  70.867  1.00  0.00    -0.017 NA 
ENDBRANCH  22  24
ENDBRANCH  20  22
ENDBRANCH  11  12
ENDBRANCH   9  11
TORSDOF 4
ENDMDL
MODEL      214
REMARK 921   NORMALIZED FREE ENERGY PREDICTED BY IDOCK:   -1.77 KCAL/MOL
REMARK 922        TOTAL FREE ENERGY PREDICTED BY IDOCK:   -2.84 KCAL/MOL
REMARK 923 INTER-LIGAND FREE ENERGY PREDICTED BY IDOCK:   -2.75 KCAL/MOL
REMARK 924 INTRA-LIGAND FREE ENERGY PREDICTED BY IDOCK:   -0.08 KCAL/MOL
REMARK 927      BINDING AFFINITY PREDICTED BY RF-SCORE:    0.00 PKD
ROOT
HETATM    1  C   UNL     1      -9.102  10.210  68.209  1.00  0.00    -0.122 C  
HETATM    2  C   UNL     1      -9.892  11.005  67.216  1.00  0.00    -0.204 A  
HETATM    3  C   UNL     1      -9.519  10.742  65.876  1.00  0.00    -0.236 A  
HETATM    4  C   UNL     1     -10.187  11.301  64.795  1.00  0.00    -0.347 A  
HETATM    5  C   UNL     1     -11.275  12.122  65.041  1.00  0.00    -0.372 A  
HETATM    6  C   UNL     1      -9.760  10.995  63.456  1.00  0.00    -0.337 C  
HETATM    7  N   UNL     1      -9.387  10.727  62.398  1.00  0.00    -0.260 NA 
HETATM    8  C   UNL     1     -11.666  12.426  66.365  1.00  0.00    -0.453 A  
HETATM    9  C   UNL     1     -10.943  11.910  67.486  1.00  0.00    -0.247 A  
HETATM   10  C   UNL     1     -12.890  13.296  66.525  1.00  0.00     0.562 C  
ENDROOT
BRANCH   9  11
HETATM   11  O   UNL     1     -11.296  12.512  68.688  1.00  0.00    -0.244 OA 
BRANCH  11  12
HETATM   12  C   UNL     1     -11.563  11.874  69.901  1.00  0.00    -0.256 A  
HETATM   13  C   UNL     1     -12.197  12.601  70.892  1.00  0.00    -0.185 A  
HETATM   14  C   UNL     1     -12.463  11.912  72.065  1.00  0.00     0.460 A  
HETATM   15 BR   UNL     1     -12.666  14.423  70.688  1.00  0.00    -0.404 Br 
HETATM   16  N   UNL     1     -13.176  12.458  73.133  1.00  0.00     0.835 NA 
HETATM   17  N   UNL     1     -12.125  10.626  72.246  1.00  0.00     0.940 NA 
HETATM   18  H1  UNL     1     -13.372  11.952  73.996  1.00  0.00     0.000 HD 
HETATM   19  H2  UNL     1     -14.070  12.785  72.765  1.00  0.00     0.000 HD 
HETATM   20  C   UNL     1     -11.465  10.003  71.268  1.00  0.00    -0.314 A  
HETATM   21  N   UNL     1     -11.133  10.624  70.125  1.00  0.00    -0.289 NA 
BRANCH  20  22
HETATM   22  N   UNL     1     -11.131   8.646  71.351  1.00  0.00    -0.255 NA 
HETATM   23  H   UNL     1     -11.924   8.006  71.307  1.00  0.00     0.000 HD 
BRANCH  22  24
HETATM   24  C   UNL     1      -9.878   8.024  71.486  1.00  0.00    -0.170 A  
HETATM   25  C   UNL     1      -9.040   8.224  72.588  1.00  0.00    -0.327 A  
HETATM   26  C   UNL     1      -7.811   7.565  72.700  1.00  0.00    -0.113 A  
HETATM   27  C   UNL     1      -7.382   6.692  71.700  1.00  0.00    -0.087 A  
HETATM   28  C   UNL     1      -6.137   5.990  71.838  1.00  0.00    -0.040 C  
HETATM   29  C   UNL     1      -8.188   6.504  70.576  1.00  0.00    -0.118 A  
HETATM   30  C   UNL     1      -9.417   7.174  70.466  1.00  0.00    -0.162 A  
HETATM   31  N   UNL     1      -5.133   5.420  71.959  1.00  0.00    -0.008 NA 
ENDBRANCH  22  24
ENDBRANCH  20  22
ENDBRANCH  11  12
ENDBRANCH   9  11
TORSDOF 4
ENDMDL
MODEL      215
REMARK 921   NORMALIZED FREE ENERGY PREDICTED BY IDOCK:   -1.48 KCAL/MOL
REMARK 922        TOTAL FREE ENERGY PREDICTED BY IDOCK:   -2.48 KCAL/MOL
REMARK 923 INTER-LIGAND FREE ENERGY PREDICTED BY IDOCK:   -1.97 KCAL/MOL
REMARK 924 INTRA-LIGAND FREE ENERGY PREDICTED BY IDOCK:   -0.51 KCAL/MOL
REMARK 927      BINDING AFFINITY PREDICTED BY RF-SCORE:    0.00 PKD
ROOT
HETATM    1  C   UNL     1      -7.022   8.055  68.334  1.00  0.00    -0.072 C  
HETATM    2  C   UNL     1      -6.850   9.156  69.334  1.00  0.00    -0.048 A  
HETATM    3  C   UNL     1      -6.358   8.698  70.580  1.00  0.00    -0.037 A  
HETATM    4  C   UNL     1      -6.038   9.563  71.617  1.00  0.00     0.040 A  
HETATM    5  C   UNL     1      -6.179  10.926  71.410  1.00  0.00     0.848 A  
HETATM    6  C   UNL     1      -5.542   9.036  72.860  1.00  0.00    -0.075 C  
HETATM    7  N   UNL     1      -5.150   8.575  73.842  1.00  0.00    -0.059 NA 
HETATM    8  C   UNL     1      -6.686  11.422  70.188  1.00  0.00     0.156 A  
HETATM    9  C   UNL     1      -7.083  10.536  69.138  1.00  0.00    -0.089 A  
HETATM   10  C   UNL     1      -6.761  12.924  70.048  1.00  0.00     0.345 C  
ENDROOT
BRANCH   9  11
HETATM   11  O   UNL     1      -7.795  11.170  68.127  1.00  0.00    -0.107 OA 
BRANCH  11  12
HETATM   12  C   UNL     1      -9.058  10.825  67.644  1.00  0.00    -0.147 A  
HETATM   13  C   UNL     1      -9.817  11.812  67.043  1.00  0.00    -0.197 A  
HETATM   14  C   UNL     1     -11.051  11.409  66.556  1.00  0.00    -0.251 A  
HETATM   15 BR   UNL     1      -9.236  13.607  66.896  1.00  0.00    -0.249 Br 
HETATM   16  N   UNL     1     -11.907  12.247  65.841  1.00  0.00    -0.546 NA 
HETATM   17  N   UNL     1     -11.498  10.148  66.662  1.00  0.00     0.430 NA 
HETATM   18  H1  UNL     1     -12.815  11.951  65.483  1.00  0.00     0.000 HD 
HETATM   19  H2  UNL     1     -11.378  12.619  65.052  1.00  0.00     0.000 HD 
HETATM   20  C   UNL     1     -10.737   9.260  67.304  1.00  0.00    -0.174 A  
HETATM   21  N   UNL     1      -9.552   9.594  67.841  1.00  0.00    -0.138 NA 
BRANCH  20  22
HETATM   22  N   UNL     1     -11.100   7.912  67.404  1.00  0.00    -0.448 NA 
HETATM   23  H   UNL     1     -11.569   7.532  66.582  1.00  0.00     0.000 HD 
BRANCH  22  24
HETATM   24  C   UNL     1     -10.923   6.997  68.457  1.00  0.00    -0.077 A  
HETATM   25  C   UNL     1     -11.665   7.043  69.641  1.00  0.00     0.016 A  
HETATM   26  C   UNL     1     -11.479   6.097  70.656  1.00  0.00    -0.331 A  
HETATM   27  C   UNL     1     -10.532   5.083  70.514  1.00  0.00    -0.230 A  
HETATM   28  C   UNL     1     -10.372   4.094  71.543  1.00  0.00     0.050 C  
HETATM   29  C   UNL     1      -9.757   5.040  69.354  1.00  0.00    -0.254 A  
HETATM   30  C   UNL     1      -9.944   5.996  68.342  1.00  0.00    -0.173 A  
HETATM   31  N   UNL     1     -10.253   3.293  72.374  1.00  0.00    -0.152 NA 
ENDBRANCH  22  24
ENDBRANCH  20  22
ENDBRANCH  11  12
ENDBRANCH   9  11
TORSDOF 4
ENDMDL
MODEL      216
REMARK 921   NORMALIZED FREE ENERGY PREDICTED BY IDOCK:   -0.77 KCAL/MOL
REMARK 922        TOTAL FREE ENERGY PREDICTED BY IDOCK:   -1.60 KCAL/MOL
REMARK 923 INTER-LIGAND FREE ENERGY PREDICTED BY IDOCK:   -2.96 KCAL/MOL
REMARK 924 INTRA-LIGAND FREE ENERGY PREDICTED BY IDOCK:    1.36 KCAL/MOL
REMARK 927      BINDING AFFINITY PREDICTED BY RF-SCORE:    0.00 PKD
ROOT
HETATM    1  C   UNL     1      -8.081  13.668  67.743  1.00  0.00    -0.173 C  
HETATM    2  C   UNL     1      -8.513  12.246  67.554  1.00  0.00    -0.172 A  
HETATM    3  C   UNL     1      -7.627  11.316  68.148  1.00  0.00    -0.105 A  
HETATM    4  C   UNL     1      -7.886   9.953  68.172  1.00  0.00    -0.085 A  
HETATM    5  C   UNL     1      -9.070   9.494  67.619  1.00  0.00    -0.131 A  
HETATM    6  C   UNL     1      -6.946   9.058  68.792  1.00  0.00    -0.062 C  
HETATM    7  N   UNL     1      -6.167   8.372  69.296  1.00  0.00    -0.038 NA 
HETATM    8  C   UNL     1      -9.972  10.388  66.998  1.00  0.00    -0.252 A  
HETATM    9  C   UNL     1      -9.682  11.786  66.907  1.00  0.00    -0.198 A  
HETATM   10  C   UNL     1     -11.253   9.792  66.463  1.00  0.00     0.720 C  
ENDROOT
BRANCH   9  11
HETATM   11  O   UNL     1     -10.535  12.466  66.047  1.00  0.00    -0.245 OA 
BRANCH  11  12
HETATM   12  C   UNL     1     -10.487  13.820  65.712  1.00  0.00    -0.299 A  
HETATM   13  C   UNL     1     -11.641  14.415  65.237  1.00  0.00    -0.353 A  
HETATM   14  C   UNL     1     -11.545  15.767  64.947  1.00  0.00    -0.104 A  
HETATM   15 BR   UNL     1     -13.255  13.461  64.976  1.00  0.00     0.495 Br 
HETATM   16  N   UNL     1     -12.630  16.547  64.546  1.00  0.00     1.193 NA 
HETATM   17  N   UNL     1     -10.410  16.465  65.103  1.00  0.00    -0.620 NA 
HETATM   18  H1  UNL     1     -12.560  17.541  64.332  1.00  0.00     0.000 HD 
HETATM   19  H2  UNL     1     -13.357  16.440  65.254  1.00  0.00     0.000 HD 
HETATM   20  C   UNL     1      -9.320  15.815  65.512  1.00  0.00    -0.020 A  
HETATM   21  N   UNL     1      -9.330  14.497  65.766  1.00  0.00    -0.121 NA 
BRANCH  20  22
HETATM   22  N   UNL     1      -8.113  16.480  65.760  1.00  0.00    -0.037 NA 
HETATM   23  H   UNL     1      -7.387  16.328  65.059  1.00  0.00     0.000 HD 
BRANCH  22  24
HETATM   24  C   UNL     1      -7.740  17.324  66.820  1.00  0.00    -0.244 A  
HETATM   25  C   UNL     1      -8.567  18.337  67.317  1.00  0.00    -0.254 A  
HETATM   26  C   UNL     1      -8.172  19.140  68.393  1.00  0.00    -0.384 A  
HETATM   27  C   UNL     1      -6.928  18.955  68.996  1.00  0.00    -0.342 A  
HETATM   28  C   UNL     1      -6.544  19.757  70.123  1.00  0.00    -0.197 C  
HETATM   29  C   UNL     1      -6.074  17.971  68.493  1.00  0.00    -0.191 A  
HETATM   30  C   UNL     1      -6.473  17.174  67.409  1.00  0.00    -0.173 A  
HETATM   31  N   UNL     1      -6.243  20.403  71.039  1.00  0.00    -0.566 NA 
ENDBRANCH  22  24
ENDBRANCH  20  22
ENDBRANCH  11  12
ENDBRANCH   9  11
TORSDOF 4
ENDMDL
MODEL      217
REMARK 921   NORMALIZED FREE ENERGY PREDICTED BY IDOCK:   -0.76 KCAL/MOL
REMARK 922        TOTAL FREE ENERGY PREDICTED BY IDOCK:   -1.60 KCAL/MOL
REMARK 923 INTER-LIGAND FREE ENERGY PREDICTED BY IDOCK:   -4.40 KCAL/MOL
REMARK 924 INTRA-LIGAND FREE ENERGY PREDICTED BY IDOCK:    2.80 KCAL/MOL
REMARK 927      BINDING AFFINITY PREDICTED BY RF-SCORE:    0.00 PKD
ROOT
HETATM    1  C   UNL     1      -5.536   8.525  68.647  1.00  0.00    -0.037 C  
HETATM    2  C   UNL     1      -6.458   7.424  69.071  1.00  0.00    -0.040 A  
HETATM    3  C   UNL     1      -5.833   6.154  69.081  1.00  0.00    -0.020 A  
HETATM    4  C   UNL     1      -6.479   5.012  69.532  1.00  0.00    -0.038 A  
HETATM    5  C   UNL     1      -7.772   5.128  70.015  1.00  0.00    -0.067 A  
HETATM    6  C   UNL     1      -5.790   3.749  69.517  1.00  0.00    -0.022 C  
HETATM    7  N   UNL     1      -5.206   2.755  69.487  1.00  0.00    -0.011 NA 
HETATM    8  C   UNL     1      -8.438   6.375  70.002  1.00  0.00    -0.135 A  
HETATM    9  C   UNL     1      -7.805   7.545  69.478  1.00  0.00    -0.120 A  
HETATM   10  C   UNL     1      -9.829   6.403  70.591  1.00  0.00    -0.206 C  
ENDROOT
BRANCH   9  11
HETATM   11  O   UNL     1      -8.683   8.609  69.302  1.00  0.00    -0.130 OA 
BRANCH  11  12
HETATM   12  C   UNL     1      -9.021   9.229  68.098  1.00  0.00    -0.128 A  
HETATM   13  C   UNL     1      -8.775   8.545  66.922  1.00  0.00    -0.128 A  
HETATM   14  C   UNL     1      -9.155   9.195  65.758  1.00  0.00    -0.213 A  
HETATM   15 BR   UNL     1      -7.958   6.838  66.878  1.00  0.00    -0.110 Br 
HETATM   16  N   UNL     1      -9.067   8.617  64.491  1.00  0.00    -0.357 NA 
HETATM   17  N   UNL     1      -9.718  10.412  65.756  1.00  0.00    -0.212 NA 
HETATM   18  H1  UNL     1      -9.346   9.095  63.634  1.00  0.00     0.000 HD 
HETATM   19  H2  UNL     1      -9.576   7.734  64.524  1.00  0.00     0.000 HD 
HETATM   20  C   UNL     1      -9.875  11.038  66.923  1.00  0.00    -0.191 A  
HETATM   21  N   UNL     1      -9.486  10.487  68.084  1.00  0.00    -0.148 NA 
BRANCH  20  22
HETATM   22  N   UNL     1     -10.510  12.282  67.015  1.00  0.00    -0.215 NA 
HETATM   23  H   UNL     1     -11.527  12.241  67.078  1.00  0.00     0.000 HD 
BRANCH  22  24
HETATM   24  C   UNL     1      -9.971  13.580  67.035  1.00  0.00    -0.247 A  
HETATM   25  C   UNL     1      -8.603  13.840  66.906  1.00  0.00    -0.128 A  
HETATM   26  C   UNL     1      -8.106  15.148  66.902  1.00  0.00    -0.194 A  
HETATM   27  C   UNL     1      -8.970  16.235  67.039  1.00  0.00    -0.227 A  
HETATM   28  C   UNL     1      -8.458  17.576  66.997  1.00  0.00    -0.234 C  
HETATM   29  C   UNL     1     -10.335  15.995  67.202  1.00  0.00    -0.295 A  
HETATM   30  C   UNL     1     -10.827  14.680  67.212  1.00  0.00    -0.305 A  
HETATM   31  N   UNL     1      -8.039  18.657  66.954  1.00  0.00    -0.242 NA 
ENDBRANCH  22  24
ENDBRANCH  20  22
ENDBRANCH  11  12
ENDBRANCH   9  11
TORSDOF 4
ENDMDL
MODEL      218
REMARK 921   NORMALIZED FREE ENERGY PREDICTED BY IDOCK:   -0.37 KCAL/MOL
REMARK 922        TOTAL FREE ENERGY PREDICTED BY IDOCK:   -1.11 KCAL/MOL
REMARK 923 INTER-LIGAND FREE ENERGY PREDICTED BY IDOCK:   -2.30 KCAL/MOL
REMARK 924 INTRA-LIGAND FREE ENERGY PREDICTED BY IDOCK:    1.19 KCAL/MOL
REMARK 927      BINDING AFFINITY PREDICTED BY RF-SCORE:    0.00 PKD
ROOT
HETATM    1  C   UNL     1      -6.896   9.276  64.986  1.00  0.00    -0.086 C  
HETATM    2  C   UNL     1      -7.553   8.758  66.228  1.00  0.00    -0.091 A  
HETATM    3  C   UNL     1      -7.271   9.545  67.370  1.00  0.00    -0.087 A  
HETATM    4  C   UNL     1      -7.854   9.298  68.605  1.00  0.00    -0.089 A  
HETATM    5  C   UNL     1      -8.765   8.260  68.713  1.00  0.00    -0.137 A  
HETATM    6  C   UNL     1      -7.527  10.134  69.729  1.00  0.00    -0.163 C  
HETATM    7  N   UNL     1      -7.238  10.825  70.607  1.00  0.00     0.241 NA 
HETATM    8  C   UNL     1      -9.057   7.438  67.600  1.00  0.00    -0.126 A  
HETATM    9  C   UNL     1      -8.412   7.642  66.341  1.00  0.00    -0.137 A  
HETATM   10  C   UNL     1     -10.096   6.361  67.812  1.00  0.00    -0.171 C  
ENDROOT
BRANCH   9  11
HETATM   11  O   UNL     1      -8.615   6.597  65.447  1.00  0.00    -0.136 OA 
BRANCH  11  12
HETATM   12  C   UNL     1      -8.461   5.233  65.700  1.00  0.00    -0.135 A  
HETATM   13  C   UNL     1      -8.568   4.358  64.634  1.00  0.00    -0.134 A  
HETATM   14  C   UNL     1      -8.379   3.018  64.936  1.00  0.00    -0.095 A  
HETATM   15 BR   UNL     1      -8.963   4.928  62.873  1.00  0.00     0.000 Br 
HETATM   16  N   UNL     1      -8.360   2.008  63.973  1.00  0.00    -0.080 NA 
HETATM   17  N   UNL     1      -8.117   2.582  66.178  1.00  0.00    -0.082 NA 
HETATM   18  H1  UNL     1      -8.221   1.023  64.195  1.00  0.00     0.000 HD 
HETATM   19  H2  UNL     1      -7.657   2.264  63.280  1.00  0.00     0.000 HD 
HETATM   20  C   UNL     1      -8.084   3.476  67.167  1.00  0.00    -0.087 A  
HETATM   21  N   UNL     1      -8.304   4.783  66.954  1.00  0.00    -0.107 NA 
BRANCH  20  22
HETATM   22  N   UNL     1      -7.756   3.113  68.479  1.00  0.00    -0.055 NA 
HETATM   23  H   UNL     1      -7.690   2.109  68.643  1.00  0.00     0.000 HD 
BRANCH  22  24
HETATM   24  C   UNL     1      -7.503   3.912  69.608  1.00  0.00    -0.052 A  
HETATM   25  C   UNL     1      -6.221   4.116  70.127  1.00  0.00    -0.026 A  
HETATM   26  C   UNL     1      -6.006   4.941  71.237  1.00  0.00    -0.017 A  
HETATM   27  C   UNL     1      -7.076   5.578  71.864  1.00  0.00    -0.085 A  
HETATM   28  C   UNL     1      -6.845   6.452  72.979  1.00  0.00    -0.074 C  
HETATM   29  C   UNL     1      -8.368   5.360  71.382  1.00  0.00    -0.122 A  
HETATM   30  C   UNL     1      -8.579   4.526  70.273  1.00  0.00    -0.104 A  
HETATM   31  N   UNL     1      -6.650   7.164  73.875  1.00  0.00    -0.069 NA 
ENDBRANCH  22  24
ENDBRANCH  20  22
ENDBRANCH  11  12
ENDBRANCH   9  11
TORSDOF 4
ENDMDL
MODEL      219
REMARK 921   NORMALIZED FREE ENERGY PREDICTED BY IDOCK:   -0.33 KCAL/MOL
REMARK 922        TOTAL FREE ENERGY PREDICTED BY IDOCK:   -1.07 KCAL/MOL
REMARK 923 INTER-LIGAND FREE ENERGY PREDICTED BY IDOCK:   -1.71 KCAL/MOL
REMARK 924 INTRA-LIGAND FREE ENERGY PREDICTED BY IDOCK:    0.64 KCAL/MOL
REMARK 927      BINDING AFFINITY PREDICTED BY RF-SCORE:    0.00 PKD
ROOT
HETATM    1  C   UNL     1      -7.419  14.982  66.781  1.00  0.00     0.393 C  
HETATM    2  C   UNL     1      -7.201  16.207  67.615  1.00  0.00    -0.169 A  
HETATM    3  C   UNL     1      -7.817  17.360  67.073  1.00  0.00    -0.238 A  
HETATM    4  C   UNL     1      -7.819  18.581  67.733  1.00  0.00    -0.257 A  
HETATM    5  C   UNL     1      -7.220  18.662  68.980  1.00  0.00    -0.283 A  
HETATM    6  C   UNL     1      -8.462  19.718  67.130  1.00  0.00    -0.317 C  
HETATM    7  N   UNL     1      -8.986  20.606  66.614  1.00  0.00    -0.066 NA 
HETATM    8  C   UNL     1      -6.576  17.538  69.546  1.00  0.00    -0.160 A  
HETATM    9  C   UNL     1      -6.510  16.293  68.845  1.00  0.00    -0.141 A  
HETATM   10  C   UNL     1      -5.992  17.719  70.927  1.00  0.00     0.641 C  
ENDROOT
BRANCH   9  11
HETATM   11  O   UNL     1      -5.627  15.388  69.420  1.00  0.00    -0.097 OA 
BRANCH  11  12
HETATM   12  C   UNL     1      -5.813  14.014  69.575  1.00  0.00    -0.097 A  
HETATM   13  C   UNL     1      -5.679  13.477  70.842  1.00  0.00    -0.189 A  
HETATM   14  C   UNL     1      -5.903  12.112  70.943  1.00  0.00     0.102 A  
HETATM   15 BR   UNL     1      -5.205  14.515  72.352  1.00  0.00    -0.154 Br 
HETATM   16  N   UNL     1      -5.900  11.420  72.155  1.00  0.00     0.566 NA 
HETATM   17  N   UNL     1      -6.220  11.347  69.888  1.00  0.00    -0.130 NA 
HETATM   18  H1  UNL     1      -6.064  10.417  72.230  1.00  0.00     0.000 HD 
HETATM   19  H2  UNL     1      -6.571  11.883  72.769  1.00  0.00     0.000 HD 
HETATM   20  C   UNL     1      -6.278  11.922  68.686  1.00  0.00    -0.055 A  
HETATM   21  N   UNL     1      -6.027  13.229  68.508  1.00  0.00    -0.077 NA 
BRANCH  20  22
HETATM   22  N   UNL     1      -6.664  11.209  67.544  1.00  0.00    -0.071 NA 
HETATM   23  H   UNL     1      -6.486  11.686  66.660  1.00  0.00     0.000 HD 
BRANCH  22  24
HETATM   24  C   UNL     1      -7.256   9.940  67.420  1.00  0.00    -0.086 A  
HETATM   25  C   UNL     1      -7.349   9.034  68.482  1.00  0.00    -0.077 A  
HETATM   26  C   UNL     1      -7.972   7.791  68.328  1.00  0.00    -0.122 A  
HETATM   27  C   UNL     1      -8.510   7.416  67.097  1.00  0.00    -0.118 A  
HETATM   28  C   UNL     1      -9.181   6.154  66.955  1.00  0.00    -0.128 C  
HETATM   29  C   UNL     1      -8.398   8.292  66.016  1.00  0.00    -0.130 A  
HETATM   30  C   UNL     1      -7.766   9.535  66.175  1.00  0.00    -0.101 A  
HETATM   31  N   UNL     1      -9.728   5.137  66.848  1.00  0.00    -0.147 NA 
ENDBRANCH  22  24
ENDBRANCH  20  22
ENDBRANCH  11  12
ENDBRANCH   9  11
TORSDOF 4
ENDMDL
MODEL      220
REMARK 921   NORMALIZED FREE ENERGY PREDICTED BY IDOCK:    1.04 KCAL/MOL
REMARK 922        TOTAL FREE ENERGY PREDICTED BY IDOCK:    0.63 KCAL/MOL
REMARK 923 INTER-LIGAND FREE ENERGY PREDICTED BY IDOCK:    0.60 KCAL/MOL
REMARK 924 INTRA-LIGAND FREE ENERGY PREDICTED BY IDOCK:    0.04 KCAL/MOL
REMARK 927      BINDING AFFINITY PREDICTED BY RF-SCORE:    0.00 PKD
ROOT
HETATM    1  C   UNL     1      -6.348  14.396  70.176  1.00  0.00    -0.158 C  
HETATM    2  C   UNL     1      -6.700  15.419  69.141  1.00  0.00    -0.138 A  
HETATM    3  C   UNL     1      -6.963  16.695  69.692  1.00  0.00     0.009 A  
HETATM    4  C   UNL     1      -7.216  17.808  68.903  1.00  0.00    -0.256 A  
HETATM    5  C   UNL     1      -7.181  17.666  67.525  1.00  0.00    -0.194 A  
HETATM    6  C   UNL     1      -7.478  19.079  69.523  1.00  0.00     0.070 C  
HETATM    7  N   UNL     1      -7.684  20.081  70.058  1.00  0.00     0.439 NA 
HETATM    8  C   UNL     1      -6.942  16.404  66.936  1.00  0.00    -0.247 A  
HETATM    9  C   UNL     1      -6.747  15.237  67.740  1.00  0.00    -0.167 A  
HETATM   10  C   UNL     1      -6.882  16.364  65.427  1.00  0.00     3.936 C  
ENDROOT
BRANCH   9  11
HETATM   11  O   UNL     1      -6.788  14.056  67.009  1.00  0.00    -0.025 OA 
BRANCH  11  12
HETATM   12  C   UNL     1      -7.454  12.878  67.352  1.00  0.00    -0.132 A  
HETATM   13  C   UNL     1      -6.887  11.676  66.971  1.00  0.00    -0.144 A  
HETATM   14  C   UNL     1      -7.573  10.537  67.362  1.00  0.00    -0.094 A  
HETATM   15 BR   UNL     1      -5.286  11.568  65.967  1.00  0.00     0.324 Br 
HETATM   16  N   UNL     1      -7.102   9.242  67.144  1.00  0.00    -0.085 NA 
HETATM   17  N   UNL     1      -8.720  10.582  68.057  1.00  0.00    -0.126 NA 
HETATM   18  H1  UNL     1      -7.607   8.404  67.431  1.00  0.00     0.000 HD 
HETATM   19  H2  UNL     1      -6.169   9.187  67.553  1.00  0.00     0.000 HD 
HETATM   20  C   UNL     1      -9.239  11.777  68.342  1.00  0.00    -0.175 A  
HETATM   21  N   UNL     1      -8.652  12.920  67.954  1.00  0.00    -0.174 NA 
BRANCH  20  22
HETATM   22  N   UNL     1     -10.398  11.913  69.117  1.00  0.00    -0.420 NA 
HETATM   23  H   UNL     1     -10.736  12.870  69.217  1.00  0.00     0.000 HD 
BRANCH  22  24
HETATM   24  C   UNL     1     -11.170  10.942  69.778  1.00  0.00    -0.281 A  
HETATM   25  C   UNL     1     -12.079  11.252  70.794  1.00  0.00    -0.450 A  
HETATM   26  C   UNL     1     -12.851  10.261  71.411  1.00  0.00    -0.544 A  
HETATM   27  C   UNL     1     -12.723   8.925  71.031  1.00  0.00    -0.102 A  
HETATM   28  C   UNL     1     -13.544   7.917  71.641  1.00  0.00    -0.345 C  
HETATM   29  C   UNL     1     -11.796   8.590  70.041  1.00  0.00     0.428 A  
HETATM   30  C   UNL     1     -11.020   9.589  69.432  1.00  0.00    -0.192 A  
HETATM   31  N   UNL     1     -14.215   7.109  72.132  1.00  0.00    -0.161 NA 
ENDBRANCH  22  24
ENDBRANCH  20  22
ENDBRANCH  11  12
ENDBRANCH   9  11
TORSDOF 4
ENDMDL
MODEL      221
REMARK 921   NORMALIZED FREE ENERGY PREDICTED BY IDOCK:    1.21 KCAL/MOL
REMARK 922        TOTAL FREE ENERGY PREDICTED BY IDOCK:    0.84 KCAL/MOL
REMARK 923 INTER-LIGAND FREE ENERGY PREDICTED BY IDOCK:   -0.73 KCAL/MOL
REMARK 924 INTRA-LIGAND FREE ENERGY PREDICTED BY IDOCK:    1.57 KCAL/MOL
REMARK 927      BINDING AFFINITY PREDICTED BY RF-SCORE:    0.00 PKD
ROOT
HETATM    1  C   UNL     1      -8.116  15.857  65.831  1.00  0.00     0.790 C  
HETATM    2  C   UNL     1      -8.796  15.127  66.948  1.00  0.00    -0.284 A  
HETATM    3  C   UNL     1      -9.551  15.981  67.787  1.00  0.00    -0.219 A  
HETATM    4  C   UNL     1     -10.336  15.499  68.826  1.00  0.00    -0.217 A  
HETATM    5  C   UNL     1     -10.402  14.130  69.027  1.00  0.00    -0.159 A  
HETATM    6  C   UNL     1     -11.079  16.419  69.644  1.00  0.00    -0.306 C  
HETATM    7  N   UNL     1     -11.660  17.187  70.280  1.00  0.00     1.164 NA 
HETATM    8  C   UNL     1      -9.647  13.246  68.223  1.00  0.00    -0.221 A  
HETATM    9  C   UNL     1      -8.784  13.735  67.194  1.00  0.00    -0.221 A  
HETATM   10  C   UNL     1      -9.823  11.770  68.496  1.00  0.00    -0.192 C  
ENDROOT
BRANCH   9  11
HETATM   11  O   UNL     1      -7.931  12.763  66.687  1.00  0.00     0.077 OA 
BRANCH  11  12
HETATM   12  C   UNL     1      -8.289  11.629  65.956  1.00  0.00     0.110 A  
HETATM   13  C   UNL     1      -9.160  11.788  64.894  1.00  0.00     0.261 A  
HETATM   14  C   UNL     1      -9.460  10.635  64.185  1.00  0.00    -0.281 A  
HETATM   15 BR   UNL     1      -9.919  13.458  64.430  1.00  0.00     0.331 Br 
HETATM   16  N   UNL     1     -10.247  10.623  63.033  1.00  0.00    -0.678 NA 
HETATM   17  N   UNL     1      -8.954   9.433  64.503  1.00  0.00    -0.208 NA 
HETATM   18  H1  UNL     1     -10.468   9.775  62.512  1.00  0.00     0.000 HD 
HETATM   19  H2  UNL     1      -9.830  11.282  62.375  1.00  0.00     0.000 HD 
HETATM   20  C   UNL     1      -8.163   9.344  65.573  1.00  0.00    -0.126 A  
HETATM   21  N   UNL     1      -7.869  10.412  66.333  1.00  0.00    -0.122 NA 
BRANCH  20  22
HETATM   22  N   UNL     1      -7.544   8.142  65.936  1.00  0.00    -0.080 NA 
HETATM   23  H   UNL     1      -7.023   8.175  66.812  1.00  0.00     0.000 HD 
BRANCH  22  24
HETATM   24  C   UNL     1      -7.525   6.896  65.286  1.00  0.00    -0.089 A  
HETATM   25  C   UNL     1      -8.547   6.463  64.435  1.00  0.00     0.258 A  
HETATM   26  C   UNL     1      -8.479   5.227  63.783  1.00  0.00    -0.096 A  
HETATM   27  C   UNL     1      -7.386   4.383  63.976  1.00  0.00    -0.055 A  
HETATM   28  C   UNL     1      -7.305   3.132  63.276  1.00  0.00    -0.053 C  
HETATM   29  C   UNL     1      -6.371   4.781  64.848  1.00  0.00    -0.035 A  
HETATM   30  C   UNL     1      -6.448   6.020  65.505  1.00  0.00    -0.043 A  
HETATM   31  N   UNL     1      -7.241   2.126  62.701  1.00  0.00    -0.035 NA 
ENDBRANCH  22  24
ENDBRANCH  20  22
ENDBRANCH  11  12
ENDBRANCH   9  11
TORSDOF 4
ENDMDL
MODEL      222
REMARK 921   NORMALIZED FREE ENERGY PREDICTED BY IDOCK:    1.21 KCAL/MOL
REMARK 922        TOTAL FREE ENERGY PREDICTED BY IDOCK:    0.84 KCAL/MOL
REMARK 923 INTER-LIGAND FREE ENERGY PREDICTED BY IDOCK:    1.04 KCAL/MOL
REMARK 924 INTRA-LIGAND FREE ENERGY PREDICTED BY IDOCK:   -0.20 KCAL/MOL
REMARK 927      BINDING AFFINITY PREDICTED BY RF-SCORE:    0.00 PKD
ROOT
HETATM    1  C   UNL     1      -9.347  14.829  69.184  1.00  0.00    -0.102 C  
HETATM    2  C   UNL     1      -7.989  14.743  68.559  1.00  0.00    -0.136 A  
HETATM    3  C   UNL     1      -7.537  13.411  68.401  1.00  0.00    -0.133 A  
HETATM    4  C   UNL     1      -6.347  13.101  67.758  1.00  0.00    -0.156 A  
HETATM    5  C   UNL     1      -5.591  14.134  67.227  1.00  0.00     0.582 A  
HETATM    6  C   UNL     1      -5.942  11.727  67.630  1.00  0.00    -0.072 C  
HETATM    7  N   UNL     1      -5.650  10.614  67.549  1.00  0.00    -0.043 NA 
HETATM    8  C   UNL     1      -5.998  15.479  67.381  1.00  0.00    -0.010 A  
HETATM    9  C   UNL     1      -7.188  15.814  68.101  1.00  0.00    -0.118 A  
HETATM   10  C   UNL     1      -5.126  16.526  66.729  1.00  0.00     0.098 C  
ENDROOT
BRANCH   9  11
HETATM   11  O   UNL     1      -7.294  17.171  68.379  1.00  0.00    -0.200 OA 
BRANCH  11  12
HETATM   12  C   UNL     1      -8.461  17.880  68.671  1.00  0.00    -0.266 A  
HETATM   13  C   UNL     1      -8.851  18.878  67.798  1.00  0.00    -0.292 A  
HETATM   14  C   UNL     1     -10.031  19.531  68.121  1.00  0.00    -0.418 A  
HETATM   15 BR   UNL     1      -7.848  19.351  66.265  1.00  0.00    -0.332 Br 
HETATM   16  N   UNL     1     -10.622  20.499  67.308  1.00  0.00     0.086 NA 
HETATM   17  N   UNL     1     -10.753  19.232  69.211  1.00  0.00     0.678 NA 
HETATM   18  H1  UNL     1     -11.489  20.980  67.545  1.00  0.00     0.000 HD 
HETATM   19  H2  UNL     1     -10.749  20.083  66.385  1.00  0.00     0.000 HD 
HETATM   20  C   UNL     1     -10.287  18.295  70.040  1.00  0.00     1.165 A  
HETATM   21  N   UNL     1      -9.129  17.656  69.813  1.00  0.00     0.929 NA 
BRANCH  20  22
HETATM   22  N   UNL     1     -11.010  17.879  71.165  1.00  0.00     1.349 NA 
HETATM   23  H   UNL     1     -11.147  18.598  71.876  1.00  0.00     0.000 HD 
BRANCH  22  24
HETATM   24  C   UNL     1     -11.575  16.630  71.472  1.00  0.00     0.092 A  
HETATM   25  C   UNL     1     -11.464  16.030  72.731  1.00  0.00    -0.097 A  
HETATM   26  C   UNL     1     -12.065  14.797  73.007  1.00  0.00    -0.292 A  
HETATM   27  C   UNL     1     -12.788  14.125  72.023  1.00  0.00    -0.423 A  
HETATM   28  C   UNL     1     -13.433  12.878  72.323  1.00  0.00    -0.531 C  
HETATM   29  C   UNL     1     -12.882  14.690  70.749  1.00  0.00    -0.418 A  
HETATM   30  C   UNL     1     -12.271  15.924  70.476  1.00  0.00    -0.314 A  
HETATM   31  N   UNL     1     -13.959  11.874  72.575  1.00  0.00     0.411 NA 
ENDBRANCH  22  24
ENDBRANCH  20  22
ENDBRANCH  11  12
ENDBRANCH   9  11
TORSDOF 4
ENDMDL
MODEL      223
REMARK 921   NORMALIZED FREE ENERGY PREDICTED BY IDOCK:    1.76 KCAL/MOL
REMARK 922        TOTAL FREE ENERGY PREDICTED BY IDOCK:    1.52 KCAL/MOL
REMARK 923 INTER-LIGAND FREE ENERGY PREDICTED BY IDOCK:    1.29 KCAL/MOL
REMARK 924 INTRA-LIGAND FREE ENERGY PREDICTED BY IDOCK:    0.23 KCAL/MOL
REMARK 927      BINDING AFFINITY PREDICTED BY RF-SCORE:    0.00 PKD
ROOT
HETATM    1  C   UNL     1      -9.113  14.373  66.596  1.00  0.00    -0.265 C  
HETATM    2  C   UNL     1      -8.121  14.178  67.700  1.00  0.00    -0.188 A  
HETATM    3  C   UNL     1      -7.777  15.386  68.353  1.00  0.00    -0.120 A  
HETATM    4  C   UNL     1      -6.947  15.421  69.464  1.00  0.00    -0.188 A  
HETATM    5  C   UNL     1      -6.462  14.225  69.967  1.00  0.00    -0.126 A  
HETATM    6  C   UNL     1      -6.634  16.681  70.083  1.00  0.00     0.385 C  
HETATM    7  N   UNL     1      -6.405  17.711  70.551  1.00  0.00     0.549 NA 
HETATM    8  C   UNL     1      -6.766  12.999  69.332  1.00  0.00    -0.018 A  
HETATM    9  C   UNL     1      -7.565  12.958  68.147  1.00  0.00    -0.135 A  
HETATM   10  C   UNL     1      -6.223  11.749  69.984  1.00  0.00    -0.136 C  
ENDROOT
BRANCH   9  11
HETATM   11  O   UNL     1      -7.544  11.721  67.516  1.00  0.00    -0.118 OA 
BRANCH  11  12
HETATM   12  C   UNL     1      -8.623  11.058  66.929  1.00  0.00    -0.143 A  
HETATM   13  C   UNL     1      -8.863  11.269  65.584  1.00  0.00    -0.118 A  
HETATM   14  C   UNL     1      -9.929  10.564  65.046  1.00  0.00    -0.322 A  
HETATM   15 BR   UNL     1      -7.826  12.449  64.529  1.00  0.00     5.182 Br 
HETATM   16  N   UNL     1     -10.259  10.584  63.690  1.00  0.00    -0.461 NA 
HETATM   17  N   UNL     1     -10.694   9.736  65.773  1.00  0.00     0.275 NA 
HETATM   18  H1  UNL     1     -11.043  10.067  63.295  1.00  0.00     0.000 HD 
HETATM   19  H2  UNL     1      -9.424  10.311  63.172  1.00  0.00     0.000 HD 
HETATM   20  C   UNL     1     -10.440   9.624  67.078  1.00  0.00    -0.232 A  
HETATM   21  N   UNL     1      -9.453  10.312  67.673  1.00  0.00    -0.151 NA 
BRANCH  20  22
HETATM   22  N   UNL     1     -11.150   8.734  67.894  1.00  0.00    -0.435 NA 
HETATM   23  H   UNL     1     -11.931   8.264  67.438  1.00  0.00     0.000 HD 
BRANCH  22  24
HETATM   24  C   UNL     1     -10.958   8.386  69.242  1.00  0.00     0.046 A  
HETATM   25  C   UNL     1     -11.064   9.306  70.291  1.00  0.00    -0.289 A  
HETATM   26  C   UNL     1     -10.894   8.916  71.624  1.00  0.00    -0.420 A  
HETATM   27  C   UNL     1     -10.600   7.590  71.942  1.00  0.00    -0.245 A  
HETATM   28  C   UNL     1     -10.463   7.188  73.314  1.00  0.00    -0.349 C  
HETATM   29  C   UNL     1     -10.456   6.663  70.907  1.00  0.00    -0.249 A  
HETATM   30  C   UNL     1     -10.621   7.062  69.572  1.00  0.00    -0.253 A  
HETATM   31  N   UNL     1     -10.361   6.869  74.424  1.00  0.00    -0.188 NA 
ENDBRANCH  22  24
ENDBRANCH  20  22
ENDBRANCH  11  12
ENDBRANCH   9  11
TORSDOF 4
ENDMDL
MODEL      224
REMARK 921   NORMALIZED FREE ENERGY PREDICTED BY IDOCK:    1.99 KCAL/MOL
REMARK 922        TOTAL FREE ENERGY PREDICTED BY IDOCK:    1.80 KCAL/MOL
REMARK 923 INTER-LIGAND FREE ENERGY PREDICTED BY IDOCK:    0.30 KCAL/MOL
REMARK 924 INTRA-LIGAND FREE ENERGY PREDICTED BY IDOCK:    1.51 KCAL/MOL
REMARK 927      BINDING AFFINITY PREDICTED BY RF-SCORE:    0.00 PKD
ROOT
HETATM    1  C   UNL     1     -13.133  13.623  68.039  1.00  0.00     2.727 C  
HETATM    2  C   UNL     1     -12.165  13.845  66.918  1.00  0.00    -0.415 A  
HETATM    3  C   UNL     1     -12.485  13.102  65.757  1.00  0.00    -0.441 A  
HETATM    4  C   UNL     1     -11.774  13.231  64.572  1.00  0.00    -0.420 A  
HETATM    5  C   UNL     1     -10.732  14.143  64.520  1.00  0.00    -0.323 A  
HETATM    6  C   UNL     1     -12.148  12.447  63.425  1.00  0.00    -0.524 C  
HETATM    7  N   UNL     1     -12.477  11.800  62.528  1.00  0.00     1.024 NA 
HETATM    8  C   UNL     1     -10.368  14.889  65.664  1.00  0.00    -0.370 A  
HETATM    9  C   UNL     1     -11.051  14.715  66.908  1.00  0.00    -0.333 A  
HETATM   10  C   UNL     1      -9.247  15.887  65.490  1.00  0.00     0.092 C  
ENDROOT
BRANCH   9  11
HETATM   11  O   UNL     1     -10.403  15.323  67.977  1.00  0.00    -0.239 OA 
BRANCH  11  12
HETATM   12  C   UNL     1     -10.928  15.574  69.245  1.00  0.00    -0.268 A  
HETATM   13  C   UNL     1     -10.548  16.737  69.889  1.00  0.00    -0.103 A  
HETATM   14  C   UNL     1     -11.120  16.950  71.133  1.00  0.00     0.708 A  
HETATM   15 BR   UNL     1      -9.314  17.965  69.146  1.00  0.00     0.134 Br 
HETATM   16  N   UNL     1     -10.923  18.111  71.882  1.00  0.00     1.743 NA 
HETATM   17  N   UNL     1     -11.982  16.089  71.695  1.00  0.00    -0.478 NA 
HETATM   18  H1  UNL     1     -11.343  18.268  72.798  1.00  0.00     0.000 HD 
HETATM   19  H2  UNL     1     -11.182  18.901  71.291  1.00  0.00     0.000 HD 
HETATM   20  C   UNL     1     -12.261  14.959  71.042  1.00  0.00    -0.317 A  
HETATM   21  N   UNL     1     -11.707  14.667  69.855  1.00  0.00    -0.282 NA 
BRANCH  20  22
HETATM   22  N   UNL     1     -13.197  14.038  71.528  1.00  0.00    -0.350 NA 
HETATM   23  H   UNL     1     -14.064  14.449  71.874  1.00  0.00     0.000 HD 
BRANCH  22  24
HETATM   24  C   UNL     1     -13.134  12.637  71.615  1.00  0.00    -0.323 A  
HETATM   25  C   UNL     1     -13.926  11.889  72.492  1.00  0.00     0.630 A  
HETATM   26  C   UNL     1     -13.855  10.492  72.530  1.00  0.00     0.522 A  
HETATM   27  C   UNL     1     -12.975   9.805  71.694  1.00  0.00    -0.517 A  
HETATM   28  C   UNL     1     -12.933   8.370  71.712  1.00  0.00    -0.344 C  
HETATM   29  C   UNL     1     -12.151  10.534  70.835  1.00  0.00    -0.487 A  
HETATM   30  C   UNL     1     -12.222  11.936  70.806  1.00  0.00    -0.401 A  
HETATM   31  N   UNL     1     -12.909   7.210  71.725  1.00  0.00    -0.347 NA 
ENDBRANCH  22  24
ENDBRANCH  20  22
ENDBRANCH  11  12
ENDBRANCH   9  11
TORSDOF 4
ENDMDL
MODEL      225
REMARK 921   NORMALIZED FREE ENERGY PREDICTED BY IDOCK:    2.19 KCAL/MOL
REMARK 922        TOTAL FREE ENERGY PREDICTED BY IDOCK:    2.05 KCAL/MOL
REMARK 923 INTER-LIGAND FREE ENERGY PREDICTED BY IDOCK:    2.35 KCAL/MOL
REMARK 924 INTRA-LIGAND FREE ENERGY PREDICTED BY IDOCK:   -0.30 KCAL/MOL
REMARK 927      BINDING AFFINITY PREDICTED BY RF-SCORE:    0.00 PKD
ROOT
HETATM    1  C   UNL     1     -10.298  14.969  68.674  1.00  0.00    -0.236 C  
HETATM    2  C   UNL     1      -9.762  16.367  68.701  1.00  0.00    -0.239 A  
HETATM    3  C   UNL     1     -10.591  17.290  68.020  1.00  0.00    -0.394 A  
HETATM    4  C   UNL     1     -10.329  18.653  68.003  1.00  0.00    -0.421 A  
HETATM    5  C   UNL     1      -9.232  19.126  68.704  1.00  0.00    -0.429 A  
HETATM    6  C   UNL     1     -11.209  19.541  67.291  1.00  0.00     0.051 C  
HETATM    7  N   UNL     1     -11.937  20.220  66.708  1.00  0.00     2.279 NA 
HETATM    8  C   UNL     1      -8.369  18.234  69.381  1.00  0.00     0.418 A  
HETATM    9  C   UNL     1      -8.591  16.822  69.348  1.00  0.00     0.201 A  
HETATM   10  C   UNL     1      -7.226  18.855  70.151  1.00  0.00     0.742 C  
ENDROOT
BRANCH   9  11
HETATM   11  O   UNL     1      -7.516  16.088  69.835  1.00  0.00     0.010 OA 
BRANCH  11  12
HETATM   12  C   UNL     1      -6.999  14.904  69.308  1.00  0.00    -0.151 A  
HETATM   13  C   UNL     1      -6.432  14.946  68.048  1.00  0.00    -0.150 A  
HETATM   14  C   UNL     1      -5.909  13.749  67.584  1.00  0.00    -0.036 A  
HETATM   15 BR   UNL     1      -6.376  16.520  66.999  1.00  0.00    -0.162 Br 
HETATM   16  N   UNL     1      -5.220  13.626  66.377  1.00  0.00     1.873 NA 
HETATM   17  N   UNL     1      -5.952  12.612  68.296  1.00  0.00    -0.062 NA 
HETATM   18  H1  UNL     1      -4.836  12.746  66.036  1.00  0.00     0.000 HD 
HETATM   19  H2  UNL     1      -4.456  14.303  66.394  1.00  0.00     0.000 HD 
HETATM   20  C   UNL     1      -6.564  12.632  69.481  1.00  0.00    -0.032 A  
HETATM   21  N   UNL     1      -7.133  13.745  69.970  1.00  0.00     0.334 NA 
BRANCH  20  22
HETATM   22  N   UNL     1      -6.598  11.506  70.314  1.00  0.00    -0.493 NA 
HETATM   23  H   UNL     1      -6.187  11.644  71.237  1.00  0.00     0.000 HD 
BRANCH  22  24
HETATM   24  C   UNL     1      -7.107  10.217  70.081  1.00  0.00    -0.148 A  
HETATM   25  C   UNL     1      -7.274   9.682  68.800  1.00  0.00    -0.072 A  
HETATM   26  C   UNL     1      -7.758   8.383  68.609  1.00  0.00    -0.107 A  
HETATM   27  C   UNL     1      -8.100   7.587  69.701  1.00  0.00    -0.127 A  
HETATM   28  C   UNL     1      -8.562   6.242  69.500  1.00  0.00    -0.132 C  
HETATM   29  C   UNL     1      -7.973   8.115  70.988  1.00  0.00    -0.096 A  
HETATM   30  C   UNL     1      -7.493   9.421  71.173  1.00  0.00     0.027 A  
HETATM   31  N   UNL     1      -8.926   5.154  69.332  1.00  0.00    -0.098 NA 
ENDBRANCH  22  24
ENDBRANCH  20  22
ENDBRANCH  11  12
ENDBRANCH   9  11
TORSDOF 4
ENDMDL
MODEL      226
REMARK 921   NORMALIZED FREE ENERGY PREDICTED BY IDOCK:    2.47 KCAL/MOL
REMARK 922        TOTAL FREE ENERGY PREDICTED BY IDOCK:    2.39 KCAL/MOL
REMARK 923 INTER-LIGAND FREE ENERGY PREDICTED BY IDOCK:    0.07 KCAL/MOL
REMARK 924 INTRA-LIGAND FREE ENERGY PREDICTED BY IDOCK:    2.32 KCAL/MOL
REMARK 927      BINDING AFFINITY PREDICTED BY RF-SCORE:    0.00 PKD
ROOT
HETATM    1  C   UNL     1     -11.819  16.599  69.024  1.00  0.00     0.445 C  
HETATM    2  C   UNL     1     -10.963  16.281  67.837  1.00  0.00    -0.310 A  
HETATM    3  C   UNL     1      -9.904  17.202  67.657  1.00  0.00    -0.270 A  
HETATM    4  C   UNL     1      -8.937  17.041  66.674  1.00  0.00    -0.280 A  
HETATM    5  C   UNL     1      -8.999  15.922  65.861  1.00  0.00    -0.251 A  
HETATM    6  C   UNL     1      -7.886  18.013  66.541  1.00  0.00    -0.260 C  
HETATM    7  N   UNL     1      -7.059  18.815  66.464  1.00  0.00    -0.210 NA 
HETATM    8  C   UNL     1     -10.052  14.988  65.996  1.00  0.00    -0.322 A  
HETATM    9  C   UNL     1     -11.091  15.180  66.960  1.00  0.00    -0.328 A  
HETATM   10  C   UNL     1     -10.004  13.780  65.090  1.00  0.00    -0.240 C  
ENDROOT
BRANCH   9  11
HETATM   11  O   UNL     1     -12.169  14.322  66.780  1.00  0.00    -0.441 OA 
BRANCH  11  12
HETATM   12  C   UNL     1     -12.159  13.083  66.138  1.00  0.00    -0.409 A  
HETATM   13  C   UNL     1     -12.533  13.038  64.807  1.00  0.00    -0.427 A  
HETATM   14  C   UNL     1     -12.479  11.788  64.210  1.00  0.00    -0.055 A  
HETATM   15 BR   UNL     1     -13.102  14.566  63.847  1.00  0.00     1.871 Br 
HETATM   16  N   UNL     1     -12.732  11.570  62.855  1.00  0.00    -0.839 NA 
HETATM   17  N   UNL     1     -12.099  10.683  64.870  1.00  0.00     2.328 NA 
HETATM   18  H1  UNL     1     -12.692  10.651  62.416  1.00  0.00     0.000 HD 
HETATM   19  H2  UNL     1     -12.110  12.184  62.329  1.00  0.00     0.000 HD 
HETATM   20  C   UNL     1     -11.805  10.791  66.166  1.00  0.00     1.794 A  
HETATM   21  N   UNL     1     -11.882  11.962  66.819  1.00  0.00    -0.607 NA 
BRANCH  20  22
HETATM   22  N   UNL     1     -11.340   9.700  66.912  1.00  0.00     0.136 NA 
HETATM   23  H   UNL     1     -11.865   8.836  66.780  1.00  0.00     0.000 HD 
BRANCH  22  24
HETATM   24  C   UNL     1     -10.266   9.606  67.813  1.00  0.00    -0.205 A  
HETATM   25  C   UNL     1      -8.971  10.034  67.504  1.00  0.00    -0.141 A  
HETATM   26  C   UNL     1      -7.932   9.949  68.438  1.00  0.00    -0.096 A  
HETATM   27  C   UNL     1      -8.163   9.421  69.708  1.00  0.00    -0.146 A  
HETATM   28  C   UNL     1      -7.102   9.371  70.674  1.00  0.00    -0.124 C  
HETATM   29  C   UNL     1      -9.441   8.956  70.024  1.00  0.00    -0.189 A  
HETATM   30  C   UNL     1     -10.477   9.037  69.081  1.00  0.00    -0.239 A  
HETATM   31  N   UNL     1      -6.242   9.340  71.453  1.00  0.00    -0.113 NA 
ENDBRANCH  22  24
ENDBRANCH  20  22
ENDBRANCH  11  12
ENDBRANCH   9  11
TORSDOF 4
ENDMDL
MODEL      227
REMARK 921   NORMALIZED FREE ENERGY PREDICTED BY IDOCK:    2.52 KCAL/MOL
REMARK 922        TOTAL FREE ENERGY PREDICTED BY IDOCK:    2.46 KCAL/MOL
REMARK 923 INTER-LIGAND FREE ENERGY PREDICTED BY IDOCK:    2.48 KCAL/MOL
REMARK 924 INTRA-LIGAND FREE ENERGY PREDICTED BY IDOCK:   -0.02 KCAL/MOL
REMARK 927      BINDING AFFINITY PREDICTED BY RF-SCORE:    0.00 PKD
ROOT
HETATM    1  C   UNL     1      -6.808  15.856  65.829  1.00  0.00     3.782 C  
HETATM    2  C   UNL     1      -6.545  17.229  66.366  1.00  0.00    -0.281 A  
HETATM    3  C   UNL     1      -6.947  18.255  65.478  1.00  0.00    -0.138 A  
HETATM    4  C   UNL     1      -6.879  19.600  65.816  1.00  0.00    -0.305 A  
HETATM    5  C   UNL     1      -6.428  19.943  67.080  1.00  0.00    -0.211 A  
HETATM    6  C   UNL     1      -7.302  20.597  64.870  1.00  0.00     0.362 C  
HETATM    7  N   UNL     1      -7.649  21.366  64.084  1.00  0.00     1.163 NA 
HETATM    8  C   UNL     1      -5.998  18.949  67.988  1.00  0.00    -0.208 A  
HETATM    9  C   UNL     1      -6.000  17.566  67.625  1.00  0.00    -0.145 A  
HETATM   10  C   UNL     1      -5.565  19.425  69.356  1.00  0.00    -0.236 C  
ENDROOT
BRANCH   9  11
HETATM   11  O   UNL     1      -5.309  16.763  68.525  1.00  0.00    -0.118 OA 
BRANCH  11  12
HETATM   12  C   UNL     1      -5.746  15.565  69.091  1.00  0.00    -0.105 A  
HETATM   13  C   UNL     1      -5.754  15.461  70.470  1.00  0.00    -0.099 A  
HETATM   14  C   UNL     1      -6.224  14.261  70.979  1.00  0.00    -0.027 A  
HETATM   15 BR   UNL     1      -5.153  16.849  71.607  1.00  0.00     0.504 Br 
HETATM   16  N   UNL     1      -6.389  14.016  72.343  1.00  0.00    -0.044 NA 
HETATM   17  N   UNL     1      -6.639  13.252  70.198  1.00  0.00     0.129 NA 
HETATM   18  H1  UNL     1      -6.734  13.133  72.718  1.00  0.00     0.000 HD 
HETATM   19  H2  UNL     1      -6.985  14.756  72.714  1.00  0.00     0.000 HD 
HETATM   20  C   UNL     1      -6.550  13.400  68.876  1.00  0.00    -0.107 A  
HETATM   21  N   UNL     1      -6.061  14.517  68.315  1.00  0.00    -0.107 NA 
BRANCH  20  22
HETATM   22  N   UNL     1      -7.019  12.421  67.990  1.00  0.00    -0.087 NA 
HETATM   23  H   UNL     1      -6.749  12.560  67.016  1.00  0.00     0.000 HD 
BRANCH  22  24
HETATM   24  C   UNL     1      -7.802  11.279  68.228  1.00  0.00    -0.130 A  
HETATM   25  C   UNL     1      -7.258  10.001  68.392  1.00  0.00    -0.073 A  
HETATM   26  C   UNL     1      -8.069   8.891  68.656  1.00  0.00    -0.111 A  
HETATM   27  C   UNL     1      -9.453   9.031  68.751  1.00  0.00    -0.148 A  
HETATM   28  C   UNL     1     -10.275   7.895  69.058  1.00  0.00    -0.209 C  
HETATM   29  C   UNL     1     -10.019  10.293  68.556  1.00  0.00    -0.177 A  
HETATM   30  C   UNL     1      -9.201  11.401  68.285  1.00  0.00    -0.183 A  
HETATM   31  N   UNL     1     -10.934   6.975  69.314  1.00  0.00    -0.209 NA 
ENDBRANCH  22  24
ENDBRANCH  20  22
ENDBRANCH  11  12
ENDBRANCH   9  11
TORSDOF 4
ENDMDL
MODEL      228
REMARK 921   NORMALIZED FREE ENERGY PREDICTED BY IDOCK:    3.03 KCAL/MOL
REMARK 922        TOTAL FREE ENERGY PREDICTED BY IDOCK:    3.08 KCAL/MOL
REMARK 923 INTER-LIGAND FREE ENERGY PREDICTED BY IDOCK:    0.69 KCAL/MOL
REMARK 924 INTRA-LIGAND FREE ENERGY PREDICTED BY IDOCK:    2.40 KCAL/MOL
REMARK 927      BINDING AFFINITY PREDICTED BY RF-SCORE:    0.00 PKD
ROOT
HETATM    1  C   UNL     1      -9.550   8.044  64.915  1.00  0.00     1.530 C  
HETATM    2  C   UNL     1     -10.188   8.790  66.046  1.00  0.00     0.138 A  
HETATM    3  C   UNL     1     -10.650   7.938  67.078  1.00  0.00    -0.381 A  
HETATM    4  C   UNL     1     -11.189   8.426  68.260  1.00  0.00     0.547 A  
HETATM    5  C   UNL     1     -11.249   9.798  68.444  1.00  0.00    -0.076 A  
HETATM    6  C   UNL     1     -11.641   7.509  69.271  1.00  0.00     0.598 C  
HETATM    7  N   UNL     1     -11.994   6.742  70.057  1.00  0.00    -0.227 NA 
HETATM    8  C   UNL     1     -10.817  10.682  67.429  1.00  0.00    -0.353 A  
HETATM    9  C   UNL     1     -10.323  10.190  66.181  1.00  0.00    -0.167 A  
HETATM   10  C   UNL     1     -10.884  12.158  67.746  1.00  0.00    -0.263 C  
ENDROOT
BRANCH   9  11
HETATM   11  O   UNL     1     -10.194  11.181  65.215  1.00  0.00    -0.253 OA 
BRANCH  11  12
HETATM   12  C   UNL     1      -9.963  12.540  65.431  1.00  0.00    -0.219 A  
HETATM   13  C   UNL     1     -10.730  13.451  64.728  1.00  0.00    -0.390 A  
HETATM   14  C   UNL     1     -10.479  14.786  65.001  1.00  0.00    -0.416 A  
HETATM   15 BR   UNL     1     -12.033  12.931  63.458  1.00  0.00    -0.608 Br 
HETATM   16  N   UNL     1     -11.218  15.836  64.455  1.00  0.00    -0.809 NA 
HETATM   17  N   UNL     1      -9.548  15.186  65.881  1.00  0.00    -0.336 NA 
HETATM   18  H1  UNL     1     -11.033  16.818  64.655  1.00  0.00     0.000 HD 
HETATM   19  H2  UNL     1     -12.199  15.661  64.675  1.00  0.00     0.000 HD 
HETATM   20  C   UNL     1      -8.806  14.255  66.482  1.00  0.00    -0.063 A  
HETATM   21  N   UNL     1      -8.964  12.945  66.229  1.00  0.00    -0.009 NA 
BRANCH  20  22
HETATM   22  N   UNL     1      -7.857  14.583  67.459  1.00  0.00    -0.180 NA 
HETATM   23  H   UNL     1      -7.438  15.507  67.356  1.00  0.00     0.000 HD 
BRANCH  22  24
HETATM   24  C   UNL     1      -7.390  13.843  68.558  1.00  0.00    -0.116 A  
HETATM   25  C   UNL     1      -7.192  12.459  68.519  1.00  0.00    -0.103 A  
HETATM   26  C   UNL     1      -6.698  11.760  69.626  1.00  0.00    -0.034 A  
HETATM   27  C   UNL     1      -6.400  12.431  70.811  1.00  0.00     0.830 A  
HETATM   28  C   UNL     1      -5.859  11.714  71.932  1.00  0.00     1.264 C  
HETATM   29  C   UNL     1      -6.623  13.808  70.883  1.00  0.00     0.623 A  
HETATM   30  C   UNL     1      -7.125  14.502  69.771  1.00  0.00    -0.052 A  
HETATM   31  N   UNL     1      -5.415  11.131  72.832  1.00  0.00     0.212 NA 
ENDBRANCH  22  24
ENDBRANCH  20  22
ENDBRANCH  11  12
ENDBRANCH   9  11
TORSDOF 4
ENDMDL
MODEL      229
REMARK 921   NORMALIZED FREE ENERGY PREDICTED BY IDOCK:    3.09 KCAL/MOL
REMARK 922        TOTAL FREE ENERGY PREDICTED BY IDOCK:    3.16 KCAL/MOL
REMARK 923 INTER-LIGAND FREE ENERGY PREDICTED BY IDOCK:    3.39 KCAL/MOL
REMARK 924 INTRA-LIGAND FREE ENERGY PREDICTED BY IDOCK:   -0.22 KCAL/MOL
REMARK 927      BINDING AFFINITY PREDICTED BY RF-SCORE:    0.00 PKD
ROOT
HETATM    1  C   UNL     1     -11.691  11.719  70.249  1.00  0.00    -0.317 C  
HETATM    2  C   UNL     1     -11.014  12.869  69.570  1.00  0.00     0.048 A  
HETATM    3  C   UNL     1     -11.923  13.857  69.122  1.00  0.00    -0.404 A  
HETATM    4  C   UNL     1     -11.502  15.050  68.551  1.00  0.00    -0.335 A  
HETATM    5  C   UNL     1     -10.142  15.290  68.443  1.00  0.00    -0.220 A  
HETATM    6  C   UNL     1     -12.475  16.015  68.114  1.00  0.00     1.307 C  
HETATM    7  N   UNL     1     -13.284  16.763  67.775  1.00  0.00     4.451 NA 
HETATM    8  C   UNL     1      -9.202  14.320  68.861  1.00  0.00    -0.044 A  
HETATM    9  C   UNL     1      -9.626  13.060  69.388  1.00  0.00     1.056 A  
HETATM   10  C   UNL     1      -7.744  14.697  68.741  1.00  0.00    -0.137 C  
ENDROOT
BRANCH   9  11
HETATM   11  O   UNL     1      -8.592  12.138  69.499  1.00  0.00     0.886 OA 
BRANCH  11  12
HETATM   12  C   UNL     1      -8.459  10.936  68.802  1.00  0.00    -0.150 A  
HETATM   13  C   UNL     1      -7.362  10.783  67.973  1.00  0.00    -0.088 A  
HETATM   14  C   UNL     1      -7.264   9.560  67.327  1.00  0.00    -0.087 A  
HETATM   15 BR   UNL     1      -6.075  12.144  67.711  1.00  0.00    -0.105 Br 
HETATM   16  N   UNL     1      -6.180   9.197  66.527  1.00  0.00    -0.064 NA 
HETATM   17  N   UNL     1      -8.171   8.583  67.477  1.00  0.00    -0.116 NA 
HETATM   18  H1  UNL     1      -6.108   8.298  66.052  1.00  0.00     0.000 HD 
HETATM   19  H2  UNL     1      -5.337   9.310  67.091  1.00  0.00     0.000 HD 
HETATM   20  C   UNL     1      -9.233   8.821  68.248  1.00  0.00    -0.140 A  
HETATM   21  N   UNL     1      -9.416   9.999  68.867  1.00  0.00    -0.163 NA 
BRANCH  20  22
HETATM   22  N   UNL     1     -10.193   7.834  68.508  1.00  0.00    -0.200 NA 
HETATM   23  H   UNL     1     -10.983   7.825  67.864  1.00  0.00     0.000 HD 
BRANCH  22  24
HETATM   24  C   UNL     1     -10.242   6.856  69.516  1.00  0.00    -0.186 A  
HETATM   25  C   UNL     1      -9.501   5.671  69.466  1.00  0.00    -0.174 A  
HETATM   26  C   UNL     1      -9.554   4.732  70.503  1.00  0.00    -0.258 A  
HETATM   27  C   UNL     1     -10.364   4.952  71.616  1.00  0.00    -0.241 A  
HETATM   28  C   UNL     1     -10.387   4.003  72.693  1.00  0.00    -0.158 C  
HETATM   29  C   UNL     1     -11.138   6.113  71.669  1.00  0.00    -0.330 A  
HETATM   30  C   UNL     1     -11.086   7.048  70.623  1.00  0.00    -0.307 A  
HETATM   31  N   UNL     1     -10.395   3.236  73.564  1.00  0.00    -0.138 NA 
ENDBRANCH  22  24
ENDBRANCH  20  22
ENDBRANCH  11  12
ENDBRANCH   9  11
TORSDOF 4
ENDMDL
MODEL      230
REMARK 921   NORMALIZED FREE ENERGY PREDICTED BY IDOCK:    3.58 KCAL/MOL
REMARK 922        TOTAL FREE ENERGY PREDICTED BY IDOCK:    3.76 KCAL/MOL
REMARK 923 INTER-LIGAND FREE ENERGY PREDICTED BY IDOCK:    3.77 KCAL/MOL
REMARK 924 INTRA-LIGAND FREE ENERGY PREDICTED BY IDOCK:   -0.01 KCAL/MOL
REMARK 927      BINDING AFFINITY PREDICTED BY RF-SCORE:    0.00 PKD
ROOT
HETATM    1  C   UNL     1      -6.338  12.801  71.167  1.00  0.00     1.387 C  
HETATM    2  C   UNL     1      -7.129  13.861  70.464  1.00  0.00     0.944 A  
HETATM    3  C   UNL     1      -6.593  15.158  70.640  1.00  0.00     0.248 A  
HETATM    4  C   UNL     1      -7.116  16.273  69.999  1.00  0.00     0.475 A  
HETATM    5  C   UNL     1      -8.184  16.099  69.134  1.00  0.00    -0.230 A  
HETATM    6  C   UNL     1      -6.527  17.566  70.220  1.00  0.00     0.574 C  
HETATM    7  N   UNL     1      -6.028  18.586  70.423  1.00  0.00    -0.111 NA 
HETATM    8  C   UNL     1      -8.761  14.822  68.947  1.00  0.00    -0.161 A  
HETATM    9  C   UNL     1      -8.273  13.679  69.654  1.00  0.00     1.176 A  
HETATM   10  C   UNL     1      -9.893  14.733  67.950  1.00  0.00    -0.212 C  
ENDROOT
BRANCH   9  11
HETATM   11  O   UNL     1      -9.111  12.575  69.553  1.00  0.00     1.083 OA 
BRANCH  11  12
HETATM   12  C   UNL     1      -8.764  11.294  69.124  1.00  0.00     0.135 A  
HETATM   13  C   UNL     1      -9.244  10.866  67.899  1.00  0.00    -0.152 A  
HETATM   14  C   UNL     1      -8.846   9.597  67.508  1.00  0.00    -0.125 A  
HETATM   15 BR   UNL     1     -10.383  11.922  66.817  1.00  0.00    -0.247 Br 
HETATM   16  N   UNL     1      -9.159   9.041  66.267  1.00  0.00    -0.166 NA 
HETATM   17  N   UNL     1      -8.056   8.817  68.262  1.00  0.00    -0.113 NA 
HETATM   18  H1  UNL     1      -8.867   8.108  65.979  1.00  0.00     0.000 HD 
HETATM   19  H2  UNL     1      -8.833   9.693  65.553  1.00  0.00     0.000 HD 
HETATM   20  C   UNL     1      -7.677   9.272  69.457  1.00  0.00    -0.084 A  
HETATM   21  N   UNL     1      -8.063  10.472  69.919  1.00  0.00     0.023 NA 
BRANCH  20  22
HETATM   22  N   UNL     1      -6.802   8.549  70.279  1.00  0.00    -0.039 NA 
HETATM   23  H   UNL     1      -5.834   8.868  70.258  1.00  0.00     0.000 HD 
BRANCH  22  24
HETATM   24  C   UNL     1      -7.045   7.455  71.126  1.00  0.00    -0.059 A  
HETATM   25  C   UNL     1      -7.314   6.167  70.653  1.00  0.00    -0.086 A  
HETATM   26  C   UNL     1      -7.524   5.096  71.529  1.00  0.00    -0.095 A  
HETATM   27  C   UNL     1      -7.481   5.291  72.909  1.00  0.00    -0.096 A  
HETATM   28  C   UNL     1      -7.660   4.181  73.802  1.00  0.00    -0.080 C  
HETATM   29  C   UNL     1      -7.247   6.576  73.402  1.00  0.00    -0.081 A  
HETATM   30  C   UNL     1      -7.045   7.648  72.519  1.00  0.00    -0.078 A  
HETATM   31  N   UNL     1      -7.798   3.279  74.519  1.00  0.00    -0.061 NA 
ENDBRANCH  22  24
ENDBRANCH  20  22
ENDBRANCH  11  12
ENDBRANCH   9  11
TORSDOF 4
ENDMDL
MODEL      231
REMARK 921   NORMALIZED FREE ENERGY PREDICTED BY IDOCK:    4.54 KCAL/MOL
REMARK 922        TOTAL FREE ENERGY PREDICTED BY IDOCK:    4.95 KCAL/MOL
REMARK 923 INTER-LIGAND FREE ENERGY PREDICTED BY IDOCK:    5.14 KCAL/MOL
REMARK 924 INTRA-LIGAND FREE ENERGY PREDICTED BY IDOCK:   -0.19 KCAL/MOL
REMARK 927      BINDING AFFINITY PREDICTED BY RF-SCORE:    0.00 PKD
ROOT
HETATM    1  C   UNL     1      -6.816  15.852  65.827  1.00  0.00     3.782 C  
HETATM    2  C   UNL     1      -6.580  17.222  66.385  1.00  0.00    -0.281 A  
HETATM    3  C   UNL     1      -6.952  18.254  65.490  1.00  0.00    -0.138 A  
HETATM    4  C   UNL     1      -6.904  19.595  65.842  1.00  0.00    -0.286 A  
HETATM    5  C   UNL     1      -6.504  19.930  67.126  1.00  0.00    -0.211 A  
HETATM    6  C   UNL     1      -7.294  20.598  64.888  1.00  0.00     0.362 C  
HETATM    7  N   UNL     1      -7.613  21.373  64.095  1.00  0.00     1.163 NA 
HETATM    8  C   UNL     1      -6.106  18.930  68.042  1.00  0.00    -0.218 A  
HETATM    9  C   UNL     1      -6.087  17.550  67.668  1.00  0.00    -0.152 A  
HETATM   10  C   UNL     1      -5.730  19.397  69.429  1.00  0.00    -0.260 C  
ENDROOT
BRANCH   9  11
HETATM   11  O   UNL     1      -5.428  16.743  68.587  1.00  0.00    -0.120 OA 
BRANCH  11  12
HETATM   12  C   UNL     1      -5.880  15.536  69.122  1.00  0.00    -0.106 A  
HETATM   13  C   UNL     1      -5.960  15.423  70.498  1.00  0.00    -0.026 A  
HETATM   14  C   UNL     1      -6.442  14.214  70.975  1.00  0.00     0.271 A  
HETATM   15 BR   UNL     1      -5.437  16.811  71.674  1.00  0.00     0.773 Br 
HETATM   16  N   UNL     1      -6.675  13.958  72.327  1.00  0.00     1.027 NA 
HETATM   17  N   UNL     1      -6.802  13.205  70.167  1.00  0.00     0.415 NA 
HETATM   18  H1  UNL     1      -7.029  13.069  72.678  1.00  0.00     0.000 HD 
HETATM   19  H2  UNL     1      -7.299  14.689  72.670  1.00  0.00     0.000 HD 
HETATM   20  C   UNL     1      -6.646  13.363  68.852  1.00  0.00    -0.107 A  
HETATM   21  N   UNL     1      -6.141  14.490  68.325  1.00  0.00    -0.107 NA 
BRANCH  20  22
HETATM   22  N   UNL     1      -7.055  12.385  67.937  1.00  0.00    -0.097 NA 
HETATM   23  H   UNL     1      -6.350  11.680  67.719  1.00  0.00     0.000 HD 
BRANCH  22  24
HETATM   24  C   UNL     1      -8.281  12.218  67.271  1.00  0.00    -0.182 A  
HETATM   25  C   UNL     1      -9.520  12.389  67.898  1.00  0.00    -0.198 A  
HETATM   26  C   UNL     1     -10.720  12.241  67.195  1.00  0.00    -0.265 A  
HETATM   27  C   UNL     1     -10.712  11.906  65.841  1.00  0.00    -0.326 A  
HETATM   28  C   UNL     1     -11.946  11.793  65.116  1.00  0.00     0.095 C  
HETATM   29  C   UNL     1      -9.487  11.698  65.205  1.00  0.00    -0.152 A  
HETATM   30  C   UNL     1      -8.286  11.840  65.918  1.00  0.00     0.353 A  
HETATM   31  N   UNL     1     -12.946  11.710  64.534  1.00  0.00     0.131 NA 
ENDBRANCH  22  24
ENDBRANCH  20  22
ENDBRANCH  11  12
ENDBRANCH   9  11
TORSDOF 4
ENDMDL
MODEL      232
REMARK 921   NORMALIZED FREE ENERGY PREDICTED BY IDOCK:    4.54 KCAL/MOL
REMARK 922        TOTAL FREE ENERGY PREDICTED BY IDOCK:    4.95 KCAL/MOL
REMARK 923 INTER-LIGAND FREE ENERGY PREDICTED BY IDOCK:    3.58 KCAL/MOL
REMARK 924 INTRA-LIGAND FREE ENERGY PREDICTED BY IDOCK:    1.38 KCAL/MOL
REMARK 927      BINDING AFFINITY PREDICTED BY RF-SCORE:    0.00 PKD
ROOT
HETATM    1  C   UNL     1      -6.338  12.801  71.167  1.00  0.00     1.387 C  
HETATM    2  C   UNL     1      -7.129  13.861  70.464  1.00  0.00     0.944 A  
HETATM    3  C   UNL     1      -6.593  15.158  70.640  1.00  0.00     0.248 A  
HETATM    4  C   UNL     1      -7.116  16.273  69.999  1.00  0.00     0.475 A  
HETATM    5  C   UNL     1      -8.184  16.099  69.134  1.00  0.00    -0.230 A  
HETATM    6  C   UNL     1      -6.527  17.566  70.220  1.00  0.00     0.574 C  
HETATM    7  N   UNL     1      -6.028  18.586  70.423  1.00  0.00    -0.111 NA 
HETATM    8  C   UNL     1      -8.761  14.822  68.947  1.00  0.00    -0.161 A  
HETATM    9  C   UNL     1      -8.273  13.679  69.654  1.00  0.00     1.176 A  
HETATM   10  C   UNL     1      -9.893  14.733  67.950  1.00  0.00    -0.212 C  
ENDROOT
BRANCH   9  11
HETATM   11  O   UNL     1      -9.111  12.575  69.553  1.00  0.00     1.083 OA 
BRANCH  11  12
HETATM   12  C   UNL     1      -9.331  11.788  68.422  1.00  0.00    -0.185 A  
HETATM   13  C   UNL     1     -10.562  11.876  67.798  1.00  0.00    -0.203 A  
HETATM   14  C   UNL     1     -10.718  11.094  66.664  1.00  0.00    -0.269 A  
HETATM   15 BR   UNL     1     -11.963  12.973  68.441  1.00  0.00    -0.227 Br 
HETATM   16  N   UNL     1     -11.857  11.126  65.858  1.00  0.00     0.320 NA 
HETATM   17  N   UNL     1      -9.750  10.291  66.195  1.00  0.00    -0.199 NA 
HETATM   18  H1  UNL     1     -11.971  10.551  65.024  1.00  0.00     0.000 HD 
HETATM   19  H2  UNL     1     -12.003  12.096  65.579  1.00  0.00     0.000 HD 
HETATM   20  C   UNL     1      -8.608  10.214  66.880  1.00  0.00    -0.126 A  
HETATM   21  N   UNL     1      -8.407  10.907  68.012  1.00  0.00    -0.119 NA 
BRANCH  20  22
HETATM   22  N   UNL     1      -7.526   9.449  66.426  1.00  0.00    -0.092 NA 
HETATM   23  H   UNL     1      -6.787   9.982  65.967  1.00  0.00     0.000 HD 
BRANCH  22  24
HETATM   24  C   UNL     1      -7.294   8.065  66.502  1.00  0.00    -0.084 A  
HETATM   25  C   UNL     1      -7.993   7.131  65.731  1.00  0.00    -0.123 A  
HETATM   26  C   UNL     1      -7.715   5.762  65.813  1.00  0.00    -0.095 A  
HETATM   27  C   UNL     1      -6.732   5.290  66.682  1.00  0.00    -0.061 A  
HETATM   28  C   UNL     1      -6.426   3.888  66.735  1.00  0.00    -0.041 C  
HETATM   29  C   UNL     1      -6.046   6.203  67.485  1.00  0.00    -0.018 A  
HETATM   30  C   UNL     1      -6.334   7.575  67.403  1.00  0.00    -0.053 A  
HETATM   31  N   UNL     1      -6.177   2.755  66.768  1.00  0.00    -0.024 NA 
ENDBRANCH  22  24
ENDBRANCH  20  22
ENDBRANCH  11  12
ENDBRANCH   9  11
TORSDOF 4
ENDMDL
MODEL      233
REMARK 921   NORMALIZED FREE ENERGY PREDICTED BY IDOCK:    4.58 KCAL/MOL
REMARK 922        TOTAL FREE ENERGY PREDICTED BY IDOCK:    5.00 KCAL/MOL
REMARK 923 INTER-LIGAND FREE ENERGY PREDICTED BY IDOCK:   -3.57 KCAL/MOL
REMARK 924 INTRA-LIGAND FREE ENERGY PREDICTED BY IDOCK:    8.57 KCAL/MOL
REMARK 927      BINDING AFFINITY PREDICTED BY RF-SCORE:    0.00 PKD
ROOT
HETATM    1  C   UNL     1     -11.903  14.373  66.360  1.00  0.00    -0.402 C  
HETATM    2  C   UNL     1     -10.485  14.775  66.620  1.00  0.00    -0.286 A  
HETATM    3  C   UNL     1     -10.234  16.136  66.325  1.00  0.00    -0.333 A  
HETATM    4  C   UNL     1      -9.010  16.739  66.582  1.00  0.00    -0.278 A  
HETATM    5  C   UNL     1      -8.011  15.985  67.175  1.00  0.00    -0.234 A  
HETATM    6  C   UNL     1      -8.816  18.127  66.259  1.00  0.00    -0.174 C  
HETATM    7  N   UNL     1      -8.699  19.242  65.985  1.00  0.00    -0.450 NA 
HETATM    8  C   UNL     1      -8.215  14.617  67.466  1.00  0.00    -0.203 A  
HETATM    9  C   UNL     1      -9.449  13.968  67.144  1.00  0.00    -0.241 A  
HETATM   10  C   UNL     1      -7.078  13.895  68.151  1.00  0.00    -0.118 C  
ENDROOT
BRANCH   9  11
HETATM   11  O   UNL     1      -9.384  12.585  67.254  1.00  0.00    -0.179 OA 
BRANCH  11  12
HETATM   12  C   UNL     1      -8.268  11.775  67.036  1.00  0.00    -0.172 A  
HETATM   13  C   UNL     1      -7.263  11.783  67.986  1.00  0.00    -0.084 A  
HETATM   14  C   UNL     1      -6.192  10.941  67.734  1.00  0.00    -0.051 A  
HETATM   15 BR   UNL     1      -7.318  12.876  69.530  1.00  0.00     0.651 Br 
HETATM   16  N   UNL     1      -5.135  10.752  68.626  1.00  0.00    -0.041 NA 
HETATM   17  N   UNL     1      -6.115  10.169  66.639  1.00  0.00    -0.063 NA 
HETATM   18  H1  UNL     1      -4.347  10.133  68.441  1.00  0.00     0.000 HD 
HETATM   19  H2  UNL     1      -5.540  10.468  69.519  1.00  0.00     0.000 HD 
HETATM   20  C   UNL     1      -7.094  10.254  65.737  1.00  0.00    -0.132 A  
HETATM   21  N   UNL     1      -8.138  11.083  65.895  1.00  0.00    -0.121 NA 
BRANCH  20  22
HETATM   22  N   UNL     1      -7.122   9.438  64.599  1.00  0.00    -0.096 NA 
HETATM   23  H   UNL     1      -7.083   9.939  63.712  1.00  0.00     0.000 HD 
BRANCH  22  24
HETATM   24  C   UNL     1      -7.195   8.039  64.484  1.00  0.00    -0.084 A  
HETATM   25  C   UNL     1      -6.856   7.350  63.315  1.00  0.00    -0.054 A  
HETATM   26  C   UNL     1      -6.915   5.954  63.247  1.00  0.00    -0.044 A  
HETATM   27  C   UNL     1      -7.328   5.208  64.350  1.00  0.00    -0.059 A  
HETATM   28  C   UNL     1      -7.351   3.774  64.286  1.00  0.00    -0.066 C  
HETATM   29  C   UNL     1      -7.703   5.878  65.516  1.00  0.00    -0.091 A  
HETATM   30  C   UNL     1      -7.648   7.280  65.576  1.00  0.00    -0.097 A  
HETATM   31  N   UNL     1      -7.359   2.615  64.231  1.00  0.00    -0.061 NA 
ENDBRANCH  22  24
ENDBRANCH  20  22
ENDBRANCH  11  12
ENDBRANCH   9  11
TORSDOF 4
ENDMDL
MODEL      234
REMARK 921   NORMALIZED FREE ENERGY PREDICTED BY IDOCK:    4.75 KCAL/MOL
REMARK 922        TOTAL FREE ENERGY PREDICTED BY IDOCK:    5.20 KCAL/MOL
REMARK 923 INTER-LIGAND FREE ENERGY PREDICTED BY IDOCK:    3.37 KCAL/MOL
REMARK 924 INTRA-LIGAND FREE ENERGY PREDICTED BY IDOCK:    1.83 KCAL/MOL
REMARK 927      BINDING AFFINITY PREDICTED BY RF-SCORE:    0.00 PKD
ROOT
HETATM    1  C   UNL     1     -12.757   5.694  64.624  1.00  0.00     7.110 C  
HETATM    2  C   UNL     1     -11.483   5.058  65.086  1.00  0.00     1.068 A  
HETATM    3  C   UNL     1     -11.032   4.033  64.221  1.00  0.00    -0.048 A  
HETATM    4  C   UNL     1      -9.824   3.376  64.411  1.00  0.00    -0.174 A  
HETATM    5  C   UNL     1      -9.020   3.762  65.471  1.00  0.00    -0.135 A  
HETATM    6  C   UNL     1      -9.421   2.342  63.496  1.00  0.00    -0.101 C  
HETATM    7  N   UNL     1      -9.134   1.517  62.742  1.00  0.00    -0.078 NA 
HETATM    8  C   UNL     1      -9.443   4.768  66.369  1.00  0.00    -0.159 A  
HETATM    9  C   UNL     1     -10.716   5.403  66.222  1.00  0.00    -0.169 A  
HETATM   10  C   UNL     1      -8.474   5.144  67.466  1.00  0.00    -0.105 C  
ENDROOT
BRANCH   9  11
HETATM   11  O   UNL     1     -11.078   6.165  67.326  1.00  0.00    -0.333 OA 
BRANCH  11  12
HETATM   12  C   UNL     1     -10.322   7.162  67.943  1.00  0.00    -0.198 A  
HETATM   13  C   UNL     1      -9.735   6.874  69.162  1.00  0.00    -0.155 A  
HETATM   14  C   UNL     1      -8.973   7.891  69.717  1.00  0.00    -0.146 A  
HETATM   15 BR   UNL     1      -9.958   5.214  70.042  1.00  0.00    -0.346 Br 
HETATM   16  N   UNL     1      -8.236   7.745  70.893  1.00  0.00    -0.105 NA 
HETATM   17  N   UNL     1      -8.813   9.085  69.127  1.00  0.00    -0.140 NA 
HETATM   18  H1  UNL     1      -7.675   8.493  71.301  1.00  0.00     0.000 HD 
HETATM   19  H2  UNL     1      -7.622   6.940  70.768  1.00  0.00     0.000 HD 
HETATM   20  C   UNL     1      -9.453   9.313  67.979  1.00  0.00    -0.137 A  
HETATM   21  N   UNL     1     -10.245   8.391  67.410  1.00  0.00    -0.236 NA 
BRANCH  20  22
HETATM   22  N   UNL     1      -9.291  10.508  67.268  1.00  0.00    -0.146 NA 
HETATM   23  H   UNL     1      -8.751  10.424  66.407  1.00  0.00     0.000 HD 
BRANCH  22  24
HETATM   24  C   UNL     1      -9.752  11.805  67.550  1.00  0.00    -0.180 A  
HETATM   25  C   UNL     1     -10.550  12.108  68.658  1.00  0.00    -0.248 A  
HETATM   26  C   UNL     1     -10.968  13.417  68.921  1.00  0.00    -0.284 A  
HETATM   27  C   UNL     1     -10.604  14.461  68.072  1.00  0.00    -0.241 A  
HETATM   28  C   UNL     1     -11.004  15.808  68.367  1.00  0.00    -0.323 C  
HETATM   29  C   UNL     1      -9.835  14.175  66.941  1.00  0.00    -0.265 A  
HETATM   30  C   UNL     1      -9.425  12.859  66.678  1.00  0.00    -0.255 A  
HETATM   31  N   UNL     1     -11.324  16.895  68.616  1.00  0.00    -0.097 NA 
ENDBRANCH  22  24
ENDBRANCH  20  22
ENDBRANCH  11  12
ENDBRANCH   9  11
TORSDOF 4
ENDMDL
MODEL      235
REMARK 921   NORMALIZED FREE ENERGY PREDICTED BY IDOCK:    6.81 KCAL/MOL
REMARK 922        TOTAL FREE ENERGY PREDICTED BY IDOCK:    7.74 KCAL/MOL
REMARK 923 INTER-LIGAND FREE ENERGY PREDICTED BY IDOCK:    6.87 KCAL/MOL
REMARK 924 INTRA-LIGAND FREE ENERGY PREDICTED BY IDOCK:    0.88 KCAL/MOL
REMARK 927      BINDING AFFINITY PREDICTED BY RF-SCORE:    0.00 PKD
ROOT
HETATM    1  C   UNL     1      -9.701  14.123  67.361  1.00  0.00    -0.232 C  
HETATM    2  C   UNL     1     -10.698  14.117  68.478  1.00  0.00    -0.262 A  
HETATM    3  C   UNL     1     -11.157  12.818  68.801  1.00  0.00    -0.303 A  
HETATM    4  C   UNL     1     -12.012  12.576  69.867  1.00  0.00    -0.371 A  
HETATM    5  C   UNL     1     -12.406  13.643  70.657  1.00  0.00    -0.440 A  
HETATM    6  C   UNL     1     -12.444  11.232  70.145  1.00  0.00    -0.221 C  
HETATM    7  N   UNL     1     -12.769  10.142  70.335  1.00  0.00    -0.190 NA 
HETATM    8  C   UNL     1     -11.986  14.959  70.355  1.00  0.00    -0.368 A  
HETATM    9  C   UNL     1     -11.159  15.228  69.219  1.00  0.00    -0.274 A  
HETATM   10  C   UNL     1     -12.436  16.046  71.303  1.00  0.00    -0.307 C  
ENDROOT
BRANCH   9  11
HETATM   11  O   UNL     1     -11.062  16.583  68.923  1.00  0.00    -0.329 OA 
BRANCH  11  12
HETATM   12  C   UNL     1     -10.027  17.221  68.238  1.00  0.00    -0.313 A  
HETATM   13  C   UNL     1     -10.248  18.505  67.776  1.00  0.00    -0.382 A  
HETATM   14  C   UNL     1      -9.178  19.102  67.127  1.00  0.00    -0.297 A  
HETATM   15 BR   UNL     1     -11.899  19.405  67.991  1.00  0.00     3.002 Br 
HETATM   16  N   UNL     1      -9.191  20.424  66.678  1.00  0.00    -0.590 NA 
HETATM   17  N   UNL     1      -8.002  18.483  66.942  1.00  0.00    -0.232 NA 
HETATM   18  H1  UNL     1      -8.404  20.863  66.200  1.00  0.00     0.000 HD 
HETATM   19  H2  UNL     1      -9.426  21.013  67.478  1.00  0.00     0.000 HD 
HETATM   20  C   UNL     1      -7.878  17.224  67.363  1.00  0.00    -0.180 A  
HETATM   21  N   UNL     1      -8.889  16.569  67.958  1.00  0.00    -0.194 NA 
BRANCH  20  22
HETATM   22  N   UNL     1      -6.667  16.528  67.266  1.00  0.00    -0.163 NA 
HETATM   23  H   UNL     1      -5.837  17.118  67.207  1.00  0.00     0.000 HD 
BRANCH  22  24
HETATM   24  C   UNL     1      -6.411  15.147  67.235  1.00  0.00     0.127 A  
HETATM   25  C   UNL     1      -5.915  14.486  66.106  1.00  0.00     5.781 A  
HETATM   26  C   UNL     1      -5.647  13.113  66.122  1.00  0.00     3.998 A  
HETATM   27  C   UNL     1      -5.879  12.360  67.272  1.00  0.00    -0.125 A  
HETATM   28  C   UNL     1      -5.566  10.959  67.295  1.00  0.00    -0.044 C  
HETATM   29  C   UNL     1      -6.406  12.993  68.400  1.00  0.00    -0.082 A  
HETATM   30  C   UNL     1      -6.680  14.370  68.375  1.00  0.00    -0.103 A  
HETATM   31  N   UNL     1      -5.304   9.828  67.309  1.00  0.00    -0.039 NA 
ENDBRANCH  22  24
ENDBRANCH  20  22
ENDBRANCH  11  12
ENDBRANCH   9  11
TORSDOF 4
ENDMDL
MODEL      236
REMARK 921   NORMALIZED FREE ENERGY PREDICTED BY IDOCK:    8.80 KCAL/MOL
REMARK 922        TOTAL FREE ENERGY PREDICTED BY IDOCK:   10.20 KCAL/MOL
REMARK 923 INTER-LIGAND FREE ENERGY PREDICTED BY IDOCK:    8.96 KCAL/MOL
REMARK 924 INTRA-LIGAND FREE ENERGY PREDICTED BY IDOCK:    1.24 KCAL/MOL
REMARK 927      BINDING AFFINITY PREDICTED BY RF-SCORE:    0.00 PKD
ROOT
HETATM    1  C   UNL     1      -9.545  19.853  68.774  1.00  0.00    -0.310 C  
HETATM    2  C   UNL     1      -9.201  18.426  69.069  1.00  0.00    -0.100 A  
HETATM    3  C   UNL     1      -7.993  18.288  69.792  1.00  0.00     1.010 A  
HETATM    4  C   UNL     1      -7.537  17.059  70.249  1.00  0.00     2.214 A  
HETATM    5  C   UNL     1      -8.310  15.934  70.011  1.00  0.00     0.699 A  
HETATM    6  C   UNL     1      -6.299  16.983  70.979  1.00  0.00     1.773 C  
HETATM    7  N   UNL     1      -5.302  16.962  71.558  1.00  0.00    -0.072 NA 
HETATM    8  C   UNL     1      -9.513  16.028  69.275  1.00  0.00    -0.245 A  
HETATM    9  C   UNL     1      -9.958  17.278  68.741  1.00  0.00    -0.325 A  
HETATM   10  C   UNL     1     -10.303  14.751  69.108  1.00  0.00    -0.237 C  
ENDROOT
BRANCH   9  11
HETATM   11  O   UNL     1     -11.003  17.145  67.835  1.00  0.00    -0.343 OA 
BRANCH  11  12
HETATM   12  C   UNL     1     -11.013  16.373  66.672  1.00  0.00     0.024 A  
HETATM   13  C   UNL     1     -11.370  16.988  65.486  1.00  0.00     0.634 A  
HETATM   14  C   UNL     1     -11.337  16.183  64.358  1.00  0.00    -0.201 A  
HETATM   15 BR   UNL     1     -11.889  18.806  65.388  1.00  0.00     4.659 Br 
HETATM   16  N   UNL     1     -11.577  16.657  63.068  1.00  0.00     2.569 NA 
HETATM   17  N   UNL     1     -10.993  14.887  64.399  1.00  0.00    -0.166 NA 
HETATM   18  H1  UNL     1     -11.553  16.065  62.238  1.00  0.00     0.000 HD 
HETATM   19  H2  UNL     1     -10.933  17.432  62.905  1.00  0.00     0.000 HD 
HETATM   20  C   UNL     1     -10.715  14.345  65.586  1.00  0.00    -0.320 A  
HETATM   21  N   UNL     1     -10.773  15.055  66.725  1.00  0.00    -0.303 NA 
BRANCH  20  22
HETATM   22  N   UNL     1     -10.286  13.018  65.709  1.00  0.00    -0.282 NA 
HETATM   23  H   UNL     1     -10.048  12.560  64.829  1.00  0.00     0.000 HD 
BRANCH  22  24
HETATM   24  C   UNL     1     -10.131  12.214  66.852  1.00  0.00    -0.206 A  
HETATM   25  C   UNL     1      -8.893  11.724  67.279  1.00  0.00    -0.167 A  
HETATM   26  C   UNL     1      -8.774  10.950  68.438  1.00  0.00    -0.147 A  
HETATM   27  C   UNL     1      -9.901  10.635  69.197  1.00  0.00    -0.217 A  
HETATM   28  C   UNL     1      -9.768   9.870  70.406  1.00  0.00    -0.090 C  
HETATM   29  C   UNL     1     -11.151  11.085  68.770  1.00  0.00    -0.293 A  
HETATM   30  C   UNL     1     -11.265  11.856  67.602  1.00  0.00    -0.340 A  
HETATM   31  N   UNL     1      -9.653   9.259  71.386  1.00  0.00    -0.257 NA 
ENDBRANCH  22  24
ENDBRANCH  20  22
ENDBRANCH  11  12
ENDBRANCH   9  11
TORSDOF 4
ENDMDL
MODEL      237
REMARK 921   NORMALIZED FREE ENERGY PREDICTED BY IDOCK:   10.04 KCAL/MOL
REMARK 922        TOTAL FREE ENERGY PREDICTED BY IDOCK:   11.73 KCAL/MOL
REMARK 923 INTER-LIGAND FREE ENERGY PREDICTED BY IDOCK:    1.19 KCAL/MOL
REMARK 924 INTRA-LIGAND FREE ENERGY PREDICTED BY IDOCK:   10.54 KCAL/MOL
REMARK 927      BINDING AFFINITY PREDICTED BY RF-SCORE:    0.00 PKD
ROOT
HETATM    1  C   UNL     1     -11.987  14.378  66.356  1.00  0.00    -0.402 C  
HETATM    2  C   UNL     1     -10.582  14.626  66.811  1.00  0.00    -0.288 A  
HETATM    3  C   UNL     1     -10.064  15.861  66.352  1.00  0.00    -0.306 A  
HETATM    4  C   UNL     1      -8.815  16.331  66.734  1.00  0.00    -0.263 A  
HETATM    5  C   UNL     1      -8.064  15.574  67.620  1.00  0.00    -0.162 A  
HETATM    6  C   UNL     1      -8.343  17.593  66.233  1.00  0.00    -0.216 C  
HETATM    7  N   UNL     1      -7.998  18.609  65.808  1.00  0.00    -0.464 NA 
HETATM    8  C   UNL     1      -8.539  14.326  68.085  1.00  0.00    -0.172 A  
HETATM    9  C   UNL     1      -9.794  13.802  67.645  1.00  0.00    -0.234 A  
HETATM   10  C   UNL     1      -7.664  13.601  69.081  1.00  0.00     0.182 C  
ENDROOT
BRANCH   9  11
HETATM   11  O   UNL     1      -9.979  12.468  67.988  1.00  0.00    -0.206 OA 
BRANCH  11  12
HETATM   12  C   UNL     1      -8.991  11.497  68.153  1.00  0.00    -0.172 A  
HETATM   13  C   UNL     1      -8.117  11.632  69.216  1.00  0.00     0.324 A  
HETATM   14  C   UNL     1      -7.173  10.626  69.350  1.00  0.00    -0.126 A  
HETATM   15 BR   UNL     1      -8.176  13.095  70.415  1.00  0.00     5.023 Br 
HETATM   16  N   UNL     1      -6.273  10.551  70.413  1.00  0.00    -0.124 NA 
HETATM   17  N   UNL     1      -7.093   9.586  68.504  1.00  0.00    -0.069 NA 
HETATM   18  H1  UNL     1      -5.578   9.811  70.511  1.00  0.00     0.000 HD 
HETATM   19  H2  UNL     1      -6.820  10.568  71.275  1.00  0.00     0.000 HD 
HETATM   20  C   UNL     1      -7.932   9.550  67.468  1.00  0.00    -0.106 A  
HETATM   21  N   UNL     1      -8.840  10.515  67.252  1.00  0.00    -0.136 NA 
BRANCH  20  22
HETATM   22  N   UNL     1      -7.957   8.470  66.577  1.00  0.00    -0.098 NA 
HETATM   23  H   UNL     1      -7.884   8.726  65.592  1.00  0.00     0.000 HD 
BRANCH  22  24
HETATM   24  C   UNL     1      -8.067   7.091  66.821  1.00  0.00    -0.109 A  
HETATM   25  C   UNL     1      -9.095   6.301  66.295  1.00  0.00    -0.166 A  
HETATM   26  C   UNL     1      -9.155   4.925  66.537  1.00  0.00    -0.124 A  
HETATM   27  C   UNL     1      -8.189   4.301  67.326  1.00  0.00    -0.100 A  
HETATM   28  C   UNL     1      -8.236   2.882  67.541  1.00  0.00    -0.081 C  
HETATM   29  C   UNL     1      -7.174   5.077  67.889  1.00  0.00    -0.067 A  
HETATM   30  C   UNL     1      -7.122   6.459  67.648  1.00  0.00    -0.084 A  
HETATM   31  N   UNL     1      -8.274   1.734  67.704  1.00  0.00    -0.064 NA 
ENDBRANCH  22  24
ENDBRANCH  20  22
ENDBRANCH  11  12
ENDBRANCH   9  11
TORSDOF 4
ENDMDL
MODEL      238
REMARK 921   NORMALIZED FREE ENERGY PREDICTED BY IDOCK:   10.27 KCAL/MOL
REMARK 922        TOTAL FREE ENERGY PREDICTED BY IDOCK:   12.01 KCAL/MOL
REMARK 923 INTER-LIGAND FREE ENERGY PREDICTED BY IDOCK:   12.31 KCAL/MOL
REMARK 924 INTRA-LIGAND FREE ENERGY PREDICTED BY IDOCK:   -0.30 KCAL/MOL
REMARK 927      BINDING AFFINITY PREDICTED BY RF-SCORE:    0.00 PKD
ROOT
HETATM    1  C   UNL     1     -10.223  16.313  67.496  1.00  0.00    -0.270 C  
HETATM    2  C   UNL     1     -10.192  17.773  67.828  1.00  0.00    -0.362 A  
HETATM    3  C   UNL     1     -11.236  18.502  67.211  1.00  0.00     0.281 A  
HETATM    4  C   UNL     1     -11.448  19.851  67.458  1.00  0.00     0.709 A  
HETATM    5  C   UNL     1     -10.623  20.497  68.365  1.00  0.00     0.111 A  
HETATM    6  C   UNL     1     -12.527  20.538  66.799  1.00  0.00     5.046 C  
HETATM    7  N   UNL     1     -13.401  21.053  66.250  1.00  0.00     6.741 NA 
HETATM    8  C   UNL     1      -9.557  19.808  68.987  1.00  0.00    -0.315 A  
HETATM    9  C   UNL     1      -9.288  18.436  68.688  1.00  0.00    -0.318 A  
HETATM   10  C   UNL     1      -8.744  20.591  69.992  1.00  0.00     1.740 C  
ENDROOT
BRANCH   9  11
HETATM   11  O   UNL     1      -8.063  18.000  69.179  1.00  0.00    -0.102 OA 
BRANCH  11  12
HETATM   12  C   UNL     1      -7.199  17.079  68.584  1.00  0.00    -0.221 A  
HETATM   13  C   UNL     1      -6.698  17.373  67.329  1.00  0.00    -0.161 A  
HETATM   14  C   UNL     1      -5.824  16.438  66.797  1.00  0.00     0.170 A  
HETATM   15 BR   UNL     1      -7.174  18.936  66.374  1.00  0.00    -0.273 Br 
HETATM   16  N   UNL     1      -5.153  16.614  65.586  1.00  0.00     0.972 NA 
HETATM   17  N   UNL     1      -5.483  15.312  67.442  1.00  0.00    -0.339 NA 
HETATM   18  H1  UNL     1      -4.510  15.927  65.195  1.00  0.00     0.000 HD 
HETATM   19  H2  UNL     1      -4.650  17.500  65.644  1.00  0.00     0.000 HD 
HETATM   20  C   UNL     1      -6.048  15.066  68.625  1.00  0.00    -0.087 A  
HETATM   21  N   UNL     1      -6.939  15.904  69.177  1.00  0.00    -0.163 NA 
BRANCH  20  22
HETATM   22  N   UNL     1      -5.700  13.946  69.390  1.00  0.00    -0.086 NA 
HETATM   23  H   UNL     1      -5.005  14.121  70.116  1.00  0.00     0.000 HD 
BRANCH  22  24
HETATM   24  C   UNL     1      -6.154  12.618  69.318  1.00  0.00    -0.100 A  
HETATM   25  C   UNL     1      -7.176  12.206  68.457  1.00  0.00    -0.102 A  
HETATM   26  C   UNL     1      -7.583  10.869  68.394  1.00  0.00    -0.104 A  
HETATM   27  C   UNL     1      -6.981   9.906  69.203  1.00  0.00    -0.057 A  
HETATM   28  C   UNL     1      -7.377   8.529  69.107  1.00  0.00    -0.079 C  
HETATM   29  C   UNL     1      -5.982  10.302  70.095  1.00  0.00    -0.076 A  
HETATM   30  C   UNL     1      -5.583  11.647  70.159  1.00  0.00    -0.127 A  
HETATM   31  N   UNL     1      -7.696   7.417  69.019  1.00  0.00    -0.115 NA 
ENDBRANCH  22  24
ENDBRANCH  20  22
ENDBRANCH  11  12
ENDBRANCH   9  11
TORSDOF 4
ENDMDL
MODEL      239
REMARK 921   NORMALIZED FREE ENERGY PREDICTED BY IDOCK:   16.50 KCAL/MOL
REMARK 922        TOTAL FREE ENERGY PREDICTED BY IDOCK:   19.70 KCAL/MOL
REMARK 923 INTER-LIGAND FREE ENERGY PREDICTED BY IDOCK:   18.06 KCAL/MOL
REMARK 924 INTRA-LIGAND FREE ENERGY PREDICTED BY IDOCK:    1.65 KCAL/MOL
REMARK 927      BINDING AFFINITY PREDICTED BY RF-SCORE:    0.00 PKD
ROOT
HETATM    1  C   UNL     1     -10.638  14.757  63.246  1.00  0.00     4.985 C  
HETATM    2  C   UNL     1      -9.625  15.027  64.316  1.00  0.00     3.368 A  
HETATM    3  C   UNL     1      -9.343  16.404  64.474  1.00  0.00     4.113 A  
HETATM    4  C   UNL     1      -8.505  16.882  65.472  1.00  0.00     0.952 A  
HETATM    5  C   UNL     1      -7.949  15.976  66.360  1.00  0.00    -0.197 A  
HETATM    6  C   UNL     1      -8.257  18.295  65.581  1.00  0.00     0.519 C  
HETATM    7  N   UNL     1      -8.081  19.433  65.635  1.00  0.00    -0.366 NA 
HETATM    8  C   UNL     1      -8.190  14.590  66.223  1.00  0.00     0.876 A  
HETATM    9  C   UNL     1      -8.997  14.082  65.158  1.00  0.00     1.977 A  
HETATM   10  C   UNL     1      -7.572  13.691  67.269  1.00  0.00    -0.073 C  
ENDROOT
BRANCH   9  11
HETATM   11  O   UNL     1      -8.914  12.701  65.019  1.00  0.00     0.711 OA 
BRANCH  11  12
HETATM   12  C   UNL     1      -9.349  11.737  65.930  1.00  0.00    -0.202 A  
HETATM   13  C   UNL     1     -10.201  10.749  65.473  1.00  0.00    -0.266 A  
HETATM   14  C   UNL     1     -10.580   9.801  66.411  1.00  0.00    -0.047 A  
HETATM   15 BR   UNL     1     -10.835  10.683  63.691  1.00  0.00     0.834 Br 
HETATM   16  N   UNL     1     -11.359   8.685  66.106  1.00  0.00     2.064 NA 
HETATM   17  N   UNL     1     -10.163   9.833  67.686  1.00  0.00    -0.198 NA 
HETATM   18  H1  UNL     1     -11.638   7.988  66.796  1.00  0.00     0.000 HD 
HETATM   19  H2  UNL     1     -10.892   8.188  65.346  1.00  0.00     0.000 HD 
HETATM   20  C   UNL     1      -9.387  10.847  68.072  1.00  0.00    -0.160 A  
HETATM   21  N   UNL     1      -9.020  11.824  67.227  1.00  0.00    -0.167 NA 
BRANCH  20  22
HETATM   22  N   UNL     1      -8.857  10.921  69.366  1.00  0.00    -0.390 NA 
HETATM   23  H   UNL     1      -9.031  11.802  69.850  1.00  0.00     0.000 HD 
BRANCH  22  24
HETATM   24  C   UNL     1      -8.125   9.976  70.105  1.00  0.00    -0.073 A  
HETATM   25  C   UNL     1      -8.623   9.352  71.253  1.00  0.00     0.170 A  
HETATM   26  C   UNL     1      -7.875   8.395  71.947  1.00  0.00    -0.165 A  
HETATM   27  C   UNL     1      -6.597   8.045  71.513  1.00  0.00    -0.045 A  
HETATM   28  C   UNL     1      -5.848   7.035  72.208  1.00  0.00    -0.038 C  
HETATM   29  C   UNL     1      -6.067   8.680  70.389  1.00  0.00    -0.031 A  
HETATM   30  C   UNL     1      -6.820   9.645  69.701  1.00  0.00    -0.067 A  
HETATM   31  N   UNL     1      -5.252   6.213  72.769  1.00  0.00    -0.030 NA 
ENDBRANCH  22  24
ENDBRANCH  20  22
ENDBRANCH  11  12
ENDBRANCH   9  11
TORSDOF 4
ENDMDL
MODEL      240
REMARK 921   NORMALIZED FREE ENERGY PREDICTED BY IDOCK:   17.79 KCAL/MOL
REMARK 922        TOTAL FREE ENERGY PREDICTED BY IDOCK:   21.30 KCAL/MOL
REMARK 923 INTER-LIGAND FREE ENERGY PREDICTED BY IDOCK:   21.10 KCAL/MOL
REMARK 924 INTRA-LIGAND FREE ENERGY PREDICTED BY IDOCK:    0.20 KCAL/MOL
REMARK 927      BINDING AFFINITY PREDICTED BY RF-SCORE:    0.00 PKD
ROOT
HETATM    1  C   UNL     1     -12.866  10.089  70.551  1.00  0.00    -0.178 C  
HETATM    2  C   UNL     1     -12.062  11.052  69.734  1.00  0.00    -0.424 A  
HETATM    3  C   UNL     1     -12.781  11.580  68.636  1.00  0.00     1.364 A  
HETATM    4  C   UNL     1     -12.256  12.560  67.805  1.00  0.00     0.119 A  
HETATM    5  C   UNL     1     -10.993  13.056  68.081  1.00  0.00    -0.269 A  
HETATM    6  C   UNL     1     -13.037  13.057  66.704  1.00  0.00     2.179 C  
HETATM    7  N   UNL     1     -13.693  13.429  65.831  1.00  0.00     0.785 NA 
HETATM    8  C   UNL     1     -10.234  12.540  69.156  1.00  0.00     0.224 A  
HETATM    9  C   UNL     1     -10.738  11.483  69.977  1.00  0.00     0.560 A  
HETATM   10  C   UNL     1      -8.886  13.179  69.399  1.00  0.00     1.185 C  
ENDROOT
BRANCH   9  11
HETATM   11  O   UNL     1      -9.772  10.926  70.806  1.00  0.00     1.749 OA 
BRANCH  11  12
HETATM   12  C   UNL     1      -8.920   9.862  70.506  1.00  0.00     0.179 A  
HETATM   13  C   UNL     1      -7.556  10.087  70.556  1.00  0.00     0.116 A  
HETATM   14  C   UNL     1      -6.756   8.990  70.277  1.00  0.00    -0.047 A  
HETATM   15 BR   UNL     1      -6.808  11.778  70.961  1.00  0.00     3.311 Br 
HETATM   16  N   UNL     1      -5.364   9.010  70.370  1.00  0.00    -0.026 NA 
HETATM   17  N   UNL     1      -7.256   7.784  69.968  1.00  0.00    -0.065 NA 
HETATM   18  H1  UNL     1      -4.775   8.204  70.165  1.00  0.00     0.000 HD 
HETATM   19  H2  UNL     1      -5.127   9.325  71.311  1.00  0.00     0.000 HD 
HETATM   20  C   UNL     1      -8.581   7.654  69.883  1.00  0.00    -0.138 A  
HETATM   21  N   UNL     1      -9.414   8.685  70.094  1.00  0.00    -0.161 NA 
BRANCH  20  22
HETATM   22  N   UNL     1      -9.186   6.417  69.628  1.00  0.00    -0.142 NA 
HETATM   23  H   UNL     1      -8.869   5.952  68.777  1.00  0.00     0.000 HD 
BRANCH  22  24
HETATM   24  C   UNL     1     -10.161   5.713  70.355  1.00  0.00    -0.235 A  
HETATM   25  C   UNL     1     -10.292   4.322  70.310  1.00  0.00     0.277 A  
HETATM   26  C   UNL     1     -11.258   3.654  71.071  1.00  0.00     3.422 A  
HETATM   27  C   UNL     1     -12.129   4.367  71.892  1.00  0.00     2.848 A  
HETATM   28  C   UNL     1     -13.094   3.673  72.699  1.00  0.00     3.008 C  
HETATM   29  C   UNL     1     -12.038   5.760  71.926  1.00  0.00     0.170 A  
HETATM   30  C   UNL     1     -11.072   6.425  71.155  1.00  0.00    -0.344 A  
HETATM   31  N   UNL     1     -13.866   3.107  73.354  1.00  0.00     1.638 NA 
ENDBRANCH  22  24
ENDBRANCH  20  22
ENDBRANCH  11  12
ENDBRANCH   9  11
TORSDOF 4
ENDMDL
MODEL      241
REMARK 921   NORMALIZED FREE ENERGY PREDICTED BY IDOCK:   17.96 KCAL/MOL
REMARK 922        TOTAL FREE ENERGY PREDICTED BY IDOCK:   21.51 KCAL/MOL
REMARK 923 INTER-LIGAND FREE ENERGY PREDICTED BY IDOCK:   21.79 KCAL/MOL
REMARK 924 INTRA-LIGAND FREE ENERGY PREDICTED BY IDOCK:   -0.28 KCAL/MOL
REMARK 927      BINDING AFFINITY PREDICTED BY RF-SCORE:    0.00 PKD
ROOT
HETATM    1  C   UNL     1      -9.860  16.751  67.947  1.00  0.00    -0.257 C  
HETATM    2  C   UNL     1      -9.593  18.004  68.722  1.00  0.00    -0.309 A  
HETATM    3  C   UNL     1     -10.756  18.783  68.928  1.00  0.00     0.514 A  
HETATM    4  C   UNL     1     -10.751  19.936  69.702  1.00  0.00     0.800 A  
HETATM    5  C   UNL     1      -9.569  20.318  70.315  1.00  0.00     1.009 A  
HETATM    6  C   UNL     1     -11.966  20.686  69.873  1.00  0.00     5.934 C  
HETATM    7  N   UNL     1     -12.960  21.261  69.986  1.00  0.00     5.928 NA 
HETATM    8  C   UNL     1      -8.381  19.577  70.117  1.00  0.00     1.167 A  
HETATM    9  C   UNL     1      -8.360  18.427  69.268  1.00  0.00     0.235 A  
HETATM   10  C   UNL     1      -7.157  20.053  70.864  1.00  0.00     0.613 C  
ENDROOT
BRANCH   9  11
HETATM   11  O   UNL     1      -7.075  17.983  68.981  1.00  0.00    -0.270 OA 
BRANCH  11  12
HETATM   12  C   UNL     1      -6.707  17.034  68.026  1.00  0.00    -0.149 A  
HETATM   13  C   UNL     1      -6.163  17.483  66.837  1.00  0.00    -0.171 A  
HETATM   14  C   UNL     1      -5.790  16.497  65.936  1.00  0.00     1.911 A  
HETATM   15 BR   UNL     1      -5.947  19.320  66.436  1.00  0.00    -0.181 Br 
HETATM   16  N   UNL     1      -5.142  16.764  64.729  1.00  0.00     2.585 NA 
HETATM   17  N   UNL     1      -5.949  15.188  66.184  1.00  0.00     3.488 NA 
HETATM   18  H1  UNL     1      -4.868  16.039  64.067  1.00  0.00     0.000 HD 
HETATM   19  H2  UNL     1      -4.306  17.306  64.947  1.00  0.00     0.000 HD 
HETATM   20  C   UNL     1      -6.532  14.828  67.328  1.00  0.00     0.262 A  
HETATM   21  N   UNL     1      -6.961  15.731  68.224  1.00  0.00    -0.113 NA 
BRANCH  20  22
HETATM   22  N   UNL     1      -6.679  13.484  67.691  1.00  0.00    -0.164 NA 
HETATM   23  H   UNL     1      -5.823  12.931  67.643  1.00  0.00     0.000 HD 
BRANCH  22  24
HETATM   24  C   UNL     1      -7.817  12.774  68.111  1.00  0.00    -0.146 A  
HETATM   25  C   UNL     1      -9.123  13.222  67.887  1.00  0.00    -0.203 A  
HETATM   26  C   UNL     1     -10.232  12.473  68.296  1.00  0.00    -0.235 A  
HETATM   27  C   UNL     1     -10.061  11.255  68.952  1.00  0.00    -0.185 A  
HETATM   28  C   UNL     1     -11.203  10.473  69.336  1.00  0.00    -0.269 C  
HETATM   29  C   UNL     1      -8.765  10.805  69.215  1.00  0.00    -0.044 A  
HETATM   30  C   UNL     1      -7.656  11.564  68.809  1.00  0.00    -0.129 A  
HETATM   31  N   UNL     1     -12.129   9.843  69.636  1.00  0.00     0.169 NA 
ENDBRANCH  22  24
ENDBRANCH  20  22
ENDBRANCH  11  12
ENDBRANCH   9  11
TORSDOF 4
ENDMDL
MODEL      242
REMARK 921   NORMALIZED FREE ENERGY PREDICTED BY IDOCK:   18.56 KCAL/MOL
REMARK 922        TOTAL FREE ENERGY PREDICTED BY IDOCK:   22.24 KCAL/MOL
REMARK 923 INTER-LIGAND FREE ENERGY PREDICTED BY IDOCK:   18.64 KCAL/MOL
REMARK 924 INTRA-LIGAND FREE ENERGY PREDICTED BY IDOCK:    3.61 KCAL/MOL
REMARK 927      BINDING AFFINITY PREDICTED BY RF-SCORE:    0.00 PKD
ROOT
HETATM    1  C   UNL     1      -5.277  11.781  65.432  1.00  0.00     1.422 C  
HETATM    2  C   UNL     1      -6.652  11.643  66.007  1.00  0.00     0.550 A  
HETATM    3  C   UNL     1      -7.104  10.302  66.042  1.00  0.00    -0.128 A  
HETATM    4  C   UNL     1      -8.312   9.938  66.621  1.00  0.00    -0.125 A  
HETATM    5  C   UNL     1      -9.086  10.923  67.212  1.00  0.00    -0.146 A  
HETATM    6  C   UNL     1      -8.716   8.558  66.624  1.00  0.00    -0.125 C  
HETATM    7  N   UNL     1      -9.006   7.442  66.605  1.00  0.00    -0.140 NA 
HETATM    8  C   UNL     1      -8.680  12.277  67.181  1.00  0.00    -0.193 A  
HETATM    9  C   UNL     1      -7.471  12.671  66.527  1.00  0.00     0.759 A  
HETATM   10  C   UNL     1      -9.574  13.266  67.891  1.00  0.00    -0.217 C  
ENDROOT
BRANCH   9  11
HETATM   11  O   UNL     1      -7.361  14.047  66.365  1.00  0.00     1.143 OA 
BRANCH  11  12
HETATM   12  C   UNL     1      -7.887  15.036  67.196  1.00  0.00    -0.190 A  
HETATM   13  C   UNL     1      -8.128  16.284  66.651  1.00  0.00    -0.288 A  
HETATM   14  C   UNL     1      -8.677  17.220  67.514  1.00  0.00    -0.210 A  
HETATM   15 BR   UNL     1      -7.725  16.714  64.853  1.00  0.00     6.591 Br 
HETATM   16  N   UNL     1      -9.068  18.498  67.113  1.00  0.00    -0.273 NA 
HETATM   17  N   UNL     1      -8.954  16.952  68.798  1.00  0.00    -0.266 NA 
HETATM   18  H1  UNL     1      -9.472  19.187  67.747  1.00  0.00     0.000 HD 
HETATM   19  H2  UNL     1      -9.719  18.386  66.335  1.00  0.00     0.000 HD 
HETATM   20  C   UNL     1      -8.645  15.744  69.272  1.00  0.00    -0.259 A  
HETATM   21  N   UNL     1      -8.068  14.804  68.505  1.00  0.00    -0.139 NA 
BRANCH  20  22
HETATM   22  N   UNL     1      -8.958  15.361  70.582  1.00  0.00     0.692 NA 
HETATM   23  H   UNL     1      -8.286  14.729  71.017  1.00  0.00     0.000 HD 
BRANCH  22  24
HETATM   24  C   UNL     1     -10.051  15.709  71.395  1.00  0.00     1.671 A  
HETATM   25  C   UNL     1     -10.413  17.034  71.662  1.00  0.00     3.060 A  
HETATM   26  C   UNL     1     -11.525  17.341  72.453  1.00  0.00     1.173 A  
HETATM   27  C   UNL     1     -12.300  16.325  73.010  1.00  0.00    -0.581 A  
HETATM   28  C   UNL     1     -13.462  16.646  73.791  1.00  0.00     0.745 C  
HETATM   29  C   UNL     1     -11.936  14.996  72.784  1.00  0.00    -0.414 A  
HETATM   30  C   UNL     1     -10.815  14.694  71.994  1.00  0.00     1.420 A  
HETATM   31  N   UNL     1     -14.403  16.913  74.415  1.00  0.00     3.104 NA 
ENDBRANCH  22  24
ENDBRANCH  20  22
ENDBRANCH  11  12
ENDBRANCH   9  11
TORSDOF 4
ENDMDL
MODEL      243
REMARK 921   NORMALIZED FREE ENERGY PREDICTED BY IDOCK:   19.07 KCAL/MOL
REMARK 922        TOTAL FREE ENERGY PREDICTED BY IDOCK:   22.88 KCAL/MOL
REMARK 923 INTER-LIGAND FREE ENERGY PREDICTED BY IDOCK:   23.81 KCAL/MOL
REMARK 924 INTRA-LIGAND FREE ENERGY PREDICTED BY IDOCK:   -0.93 KCAL/MOL
REMARK 927      BINDING AFFINITY PREDICTED BY RF-SCORE:    0.00 PKD
ROOT
HETATM    1  C   UNL     1      -5.922   9.998  69.628  1.00  0.00    -0.042 C  
HETATM    2  C   UNL     1      -7.141  10.846  69.437  1.00  0.00    -0.131 A  
HETATM    3  C   UNL     1      -7.315  11.802  70.466  1.00  0.00     2.595 A  
HETATM    4  C   UNL     1      -8.328  12.751  70.436  1.00  0.00     5.144 A  
HETATM    5  C   UNL     1      -9.179  12.778  69.343  1.00  0.00     1.242 A  
HETATM    6  C   UNL     1      -8.453  13.697  71.513  1.00  0.00     9.719 C  
HETATM    7  N   UNL     1      -8.522  14.436  72.395  1.00  0.00     6.232 NA 
HETATM    8  C   UNL     1      -9.050  11.827  68.305  1.00  0.00    -0.187 A  
HETATM    9  C   UNL     1      -8.054  10.804  68.359  1.00  0.00    -0.127 A  
HETATM   10  C   UNL     1     -10.000  11.970  67.138  1.00  0.00    -0.208 C  
ENDROOT
BRANCH   9  11
HETATM   11  O   UNL     1      -8.237   9.811  67.403  1.00  0.00    -0.113 OA 
BRANCH  11  12
HETATM   12  C   UNL     1      -9.013   8.658  67.527  1.00  0.00    -0.134 A  
HETATM   13  C   UNL     1      -9.507   8.079  66.372  1.00  0.00    -0.201 A  
HETATM   14  C   UNL     1     -10.247   6.921  66.550  1.00  0.00    -0.057 A  
HETATM   15 BR   UNL     1      -9.215   8.811  64.651  1.00  0.00     0.492 Br 
HETATM   16  N   UNL     1     -10.743   6.155  65.494  1.00  0.00     0.932 NA 
HETATM   17  N   UNL     1     -10.488   6.390  67.758  1.00  0.00    -0.195 NA 
HETATM   18  H1  UNL     1     -11.288   5.304  65.624  1.00  0.00     0.000 HD 
HETATM   19  H2  UNL     1      -9.953   5.919  64.894  1.00  0.00     0.000 HD 
HETATM   20  C   UNL     1     -10.028   7.032  68.833  1.00  0.00    -0.160 A  
HETATM   21  N   UNL     1      -9.344   8.183  68.737  1.00  0.00    -0.144 NA 
BRANCH  20  22
HETATM   22  N   UNL     1     -10.181   6.513  70.125  1.00  0.00    -0.188 NA 
HETATM   23  H   UNL     1     -11.107   6.641  70.532  1.00  0.00     0.000 HD 
BRANCH  22  24
HETATM   24  C   UNL     1      -9.261   5.843  70.950  1.00  0.00    -0.153 A  
HETATM   25  C   UNL     1      -9.224   6.005  72.339  1.00  0.00    -0.143 A  
HETATM   26  C   UNL     1      -8.312   5.299  73.132  1.00  0.00    -0.115 A  
HETATM   27  C   UNL     1      -7.401   4.418  72.550  1.00  0.00    -0.073 A  
HETATM   28  C   UNL     1      -6.493   3.669  73.371  1.00  0.00    -0.029 C  
HETATM   29  C   UNL     1      -7.400   4.268  71.161  1.00  0.00    -0.044 A  
HETATM   30  C   UNL     1      -8.313   4.984  70.371  1.00  0.00    -0.100 A  
HETATM   31  N   UNL     1      -5.766   3.061  74.041  1.00  0.00     0.000 NA 
ENDBRANCH  22  24
ENDBRANCH  20  22
ENDBRANCH  11  12
ENDBRANCH   9  11
TORSDOF 4
ENDMDL
MODEL      244
REMARK 921   NORMALIZED FREE ENERGY PREDICTED BY IDOCK:   20.98 KCAL/MOL
REMARK 922        TOTAL FREE ENERGY PREDICTED BY IDOCK:   25.23 KCAL/MOL
REMARK 923 INTER-LIGAND FREE ENERGY PREDICTED BY IDOCK:   20.52 KCAL/MOL
REMARK 924 INTRA-LIGAND FREE ENERGY PREDICTED BY IDOCK:    4.71 KCAL/MOL
REMARK 927      BINDING AFFINITY PREDICTED BY RF-SCORE:    0.00 PKD
ROOT
HETATM    1  C   UNL     1     -12.710  12.128  67.252  1.00  0.00     2.289 C  
HETATM    2  C   UNL     1     -12.254  11.839  68.648  1.00  0.00     0.029 A  
HETATM    3  C   UNL     1     -11.626  10.577  68.774  1.00  0.00    -0.252 A  
HETATM    4  C   UNL     1     -11.045  10.150  69.960  1.00  0.00    -0.368 A  
HETATM    5  C   UNL     1     -11.060  11.004  71.050  1.00  0.00     1.098 A  
HETATM    6  C   UNL     1     -10.421   8.855  70.025  1.00  0.00    -0.213 C  
HETATM    7  N   UNL     1      -9.932   7.811  70.037  1.00  0.00    -0.185 NA 
HETATM    8  C   UNL     1     -11.696  12.264  70.971  1.00  0.00     0.781 A  
HETATM    9  C   UNL     1     -12.355  12.686  69.775  1.00  0.00    -0.025 A  
HETATM   10  C   UNL     1     -11.618  13.138  72.202  1.00  0.00     3.194 C  
ENDROOT
BRANCH   9  11
HETATM   11  O   UNL     1     -13.141  13.818  69.954  1.00  0.00     0.219 OA 
BRANCH  11  12
HETATM   12  C   UNL     1     -12.698  15.125  70.160  1.00  0.00    -0.235 A  
HETATM   13  C   UNL     1     -12.469  15.537  71.460  1.00  0.00    -0.410 A  
HETATM   14  C   UNL     1     -12.003  16.835  71.605  1.00  0.00     0.585 A  
HETATM   15 BR   UNL     1     -12.780  14.425  72.959  1.00  0.00    -0.398 Br 
HETATM   16  N   UNL     1     -11.633  17.386  72.833  1.00  0.00     0.413 NA 
HETATM   17  N   UNL     1     -11.793  17.654  70.563  1.00  0.00     3.479 NA 
HETATM   18  H1  UNL     1     -11.291  18.341  72.940  1.00  0.00     0.000 HD 
HETATM   19  H2  UNL     1     -10.935  16.766  73.244  1.00  0.00     0.000 HD 
HETATM   20  C   UNL     1     -12.088  17.208  69.341  1.00  0.00     2.650 A  
HETATM   21  N   UNL     1     -12.587  15.980  69.132  1.00  0.00     0.303 NA 
BRANCH  20  22
HETATM   22  N   UNL     1     -11.839  17.975  68.196  1.00  0.00     1.261 NA 
HETATM   23  H   UNL     1     -12.572  18.643  67.959  1.00  0.00     0.000 HD 
BRANCH  22  24
HETATM   24  C   UNL     1     -10.741  17.971  67.319  1.00  0.00    -0.290 A  
HETATM   25  C   UNL     1     -10.870  18.094  65.932  1.00  0.00     0.015 A  
HETATM   26  C   UNL     1      -9.750  18.114  65.093  1.00  0.00     1.916 A  
HETATM   27  C   UNL     1      -8.466  17.999  65.624  1.00  0.00     0.581 A  
HETATM   28  C   UNL     1      -7.319  18.057  64.762  1.00  0.00     3.047 C  
HETATM   29  C   UNL     1      -8.316  17.842  67.004  1.00  0.00    -0.242 A  
HETATM   30  C   UNL     1      -9.444  17.815  67.839  1.00  0.00    -0.270 A  
HETATM   31  N   UNL     1      -6.396  18.113  64.061  1.00  0.00     1.554 NA 
ENDBRANCH  22  24
ENDBRANCH  20  22
ENDBRANCH  11  12
ENDBRANCH   9  11
TORSDOF 4
ENDMDL
MODEL      245
REMARK 921   NORMALIZED FREE ENERGY PREDICTED BY IDOCK:   21.21 KCAL/MOL
REMARK 922        TOTAL FREE ENERGY PREDICTED BY IDOCK:   25.52 KCAL/MOL
REMARK 923 INTER-LIGAND FREE ENERGY PREDICTED BY IDOCK:   16.55 KCAL/MOL
REMARK 924 INTRA-LIGAND FREE ENERGY PREDICTED BY IDOCK:    8.97 KCAL/MOL
REMARK 927      BINDING AFFINITY PREDICTED BY RF-SCORE:    0.00 PKD
ROOT
HETATM    1  C   UNL     1      -5.425  12.241  67.518  1.00  0.00    -0.118 C  
HETATM    2  C   UNL     1      -6.731  11.649  67.087  1.00  0.00    -0.142 A  
HETATM    3  C   UNL     1      -6.847  11.533  65.681  1.00  0.00     0.836 A  
HETATM    4  C   UNL     1      -7.936  10.925  65.073  1.00  0.00     0.181 A  
HETATM    5  C   UNL     1      -8.930  10.388  65.876  1.00  0.00    -0.182 A  
HETATM    6  C   UNL     1      -7.997  10.838  63.639  1.00  0.00     0.177 C  
HETATM    7  N   UNL     1      -8.010  10.789  62.486  1.00  0.00    -0.160 NA 
HETATM    8  C   UNL     1      -8.860  10.501  67.283  1.00  0.00    -0.138 A  
HETATM    9  C   UNL     1      -7.777  11.185  67.917  1.00  0.00    -0.105 A  
HETATM   10  C   UNL     1      -9.972   9.845  68.069  1.00  0.00    -0.179 C  
ENDROOT
BRANCH   9  11
HETATM   11  O   UNL     1      -7.999  11.429  69.267  1.00  0.00    -0.014 OA 
BRANCH  11  12
HETATM   12  C   UNL     1      -9.185  11.870  69.857  1.00  0.00     2.429 A  
HETATM   13  C   UNL     1     -10.222  10.965  69.987  1.00  0.00     0.432 A  
HETATM   14  C   UNL     1     -11.366  11.447  70.606  1.00  0.00     0.478 A  
HETATM   15 BR   UNL     1     -10.117   9.184  69.356  1.00  0.00    -0.211 Br 
HETATM   16  N   UNL     1     -12.473  10.651  70.902  1.00  0.00    -0.362 NA 
HETATM   17  N   UNL     1     -11.477  12.709  71.046  1.00  0.00     1.255 NA 
HETATM   18  H1  UNL     1     -13.314  11.005  71.356  1.00  0.00     0.000 HD 
HETATM   19  H2  UNL     1     -12.139   9.862  71.456  1.00  0.00     0.000 HD 
HETATM   20  C   UNL     1     -10.458  13.543  70.837  1.00  0.00     3.805 A  
HETATM   21  N   UNL     1      -9.339  13.156  70.203  1.00  0.00     3.309 NA 
BRANCH  20  22
HETATM   22  N   UNL     1     -10.468  14.858  71.320  1.00  0.00    -0.007 NA 
HETATM   23  H   UNL     1     -10.426  14.942  72.335  1.00  0.00     0.000 HD 
BRANCH  22  24
HETATM   24  C   UNL     1     -10.527  16.080  70.629  1.00  0.00     0.258 A  
HETATM   25  C   UNL     1     -10.358  17.320  71.255  1.00  0.00     2.943 A  
HETATM   26  C   UNL     1     -10.396  18.515  70.529  1.00  0.00     1.912 A  
HETATM   27  C   UNL     1     -10.617  18.501  69.152  1.00  0.00     0.439 A  
HETATM   28  C   UNL     1     -10.618  19.728  68.406  1.00  0.00    -0.118 C  
HETATM   29  C   UNL     1     -10.822  17.276  68.513  1.00  0.00    -0.240 A  
HETATM   30  C   UNL     1     -10.790  16.081  69.248  1.00  0.00    -0.300 A  
HETATM   31  N   UNL     1     -10.609  20.723  67.809  1.00  0.00     0.369 NA 
ENDBRANCH  22  24
ENDBRANCH  20  22
ENDBRANCH  11  12
ENDBRANCH   9  11
TORSDOF 4
ENDMDL
MODEL      246
REMARK 921   NORMALIZED FREE ENERGY PREDICTED BY IDOCK:   30.21 KCAL/MOL
REMARK 922        TOTAL FREE ENERGY PREDICTED BY IDOCK:   36.62 KCAL/MOL
REMARK 923 INTER-LIGAND FREE ENERGY PREDICTED BY IDOCK:   37.30 KCAL/MOL
REMARK 924 INTRA-LIGAND FREE ENERGY PREDICTED BY IDOCK:   -0.68 KCAL/MOL
REMARK 927      BINDING AFFINITY PREDICTED BY RF-SCORE:    0.00 PKD
ROOT
HETATM    1  C   UNL     1      -7.961  15.859  71.328  1.00  0.00     4.578 C  
HETATM    2  C   UNL     1      -9.240  15.113  71.549  1.00  0.00     3.704 A  
HETATM    3  C   UNL     1     -10.217  15.879  72.228  1.00  0.00     3.474 A  
HETATM    4  C   UNL     1     -11.505  15.413  72.452  1.00  0.00    -0.475 A  
HETATM    5  C   UNL     1     -11.851  14.163  71.966  1.00  0.00     0.375 A  
HETATM    6  C   UNL     1     -12.453  16.240  73.149  1.00  0.00    -0.460 C  
HETATM    7  N   UNL     1     -13.183  16.932  73.714  1.00  0.00     0.084 NA 
HETATM    8  C   UNL     1     -10.898  13.358  71.300  1.00  0.00     3.878 A  
HETATM    9  C   UNL     1      -9.550  13.801  71.123  1.00  0.00     6.712 A  
HETATM   10  C   UNL     1     -11.388  12.030  70.771  1.00  0.00     1.181 C  
ENDROOT
BRANCH   9  11
HETATM   11  O   UNL     1      -8.696  12.794  70.692  1.00  0.00     5.616 OA 
BRANCH  11  12
HETATM   12  C   UNL     1      -7.867  12.818  69.569  1.00  0.00     0.987 A  
HETATM   13  C   UNL     1      -6.887  11.848  69.462  1.00  0.00    -0.004 A  
HETATM   14  C   UNL     1      -6.112  11.902  68.314  1.00  0.00    -0.050 A  
HETATM   15 BR   UNL     1      -6.596  10.533  70.791  1.00  0.00     0.367 Br 
HETATM   16  N   UNL     1      -5.140  10.951  67.997  1.00  0.00    -0.036 NA 
HETATM   17  N   UNL     1      -6.281  12.834  67.365  1.00  0.00    -0.211 NA 
HETATM   18  H1  UNL     1      -4.569  10.991  67.154  1.00  0.00     0.000 HD 
HETATM   19  H2  UNL     1      -5.594  10.038  68.013  1.00  0.00     0.000 HD 
HETATM   20  C   UNL     1      -7.208  13.773  67.560  1.00  0.00    -0.158 A  
HETATM   21  N   UNL     1      -7.963  13.809  68.670  1.00  0.00    -0.126 NA 
BRANCH  20  22
HETATM   22  N   UNL     1      -7.492  14.744  66.591  1.00  0.00    -0.153 NA 
HETATM   23  H   UNL     1      -6.677  15.240  66.230  1.00  0.00     0.000 HD 
BRANCH  22  24
HETATM   24  C   UNL     1      -8.720  15.144  66.037  1.00  0.00     0.236 A  
HETATM   25  C   UNL     1      -9.541  16.115  66.620  1.00  0.00    -0.263 A  
HETATM   26  C   UNL     1     -10.744  16.508  66.023  1.00  0.00    -0.180 A  
HETATM   27  C   UNL     1     -11.164  15.928  64.827  1.00  0.00    -0.364 A  
HETATM   28  C   UNL     1     -12.381  16.362  64.201  1.00  0.00     1.438 C  
HETATM   29  C   UNL     1     -10.375  14.933  64.246  1.00  0.00     0.926 A  
HETATM   30  C   UNL     1      -9.173  14.537  64.853  1.00  0.00     1.784 A  
HETATM   31  N   UNL     1     -13.361  16.722  63.695  1.00  0.00     4.442 NA 
ENDBRANCH  22  24
ENDBRANCH  20  22
ENDBRANCH  11  12
ENDBRANCH   9  11
TORSDOF 4
ENDMDL
MODEL      247
REMARK 921   NORMALIZED FREE ENERGY PREDICTED BY IDOCK:   37.86 KCAL/MOL
REMARK 922        TOTAL FREE ENERGY PREDICTED BY IDOCK:   46.06 KCAL/MOL
REMARK 923 INTER-LIGAND FREE ENERGY PREDICTED BY IDOCK:   44.84 KCAL/MOL
REMARK 924 INTRA-LIGAND FREE ENERGY PREDICTED BY IDOCK:    1.22 KCAL/MOL
REMARK 927      BINDING AFFINITY PREDICTED BY RF-SCORE:    0.00 PKD
ROOT
HETATM    1  C   UNL     1     -10.614  14.754  63.174  1.00  0.00     5.809 C  
HETATM    2  C   UNL     1      -9.492  14.867  64.159  1.00  0.00     4.613 A  
HETATM    3  C   UNL     1      -9.040  16.198  64.330  1.00  0.00     5.796 A  
HETATM    4  C   UNL     1      -8.073  16.540  65.265  1.00  0.00     2.741 A  
HETATM    5  C   UNL     1      -7.554  15.545  66.077  1.00  0.00     1.934 A  
HETATM    6  C   UNL     1      -7.655  17.910  65.391  1.00  0.00     0.826 C  
HETATM    7  N   UNL     1      -7.344  19.019  65.461  1.00  0.00    -0.477 NA 
HETATM    8  C   UNL     1      -7.965  14.201  65.923  1.00  0.00     2.911 A  
HETATM    9  C   UNL     1      -8.911  13.827  64.919  1.00  0.00     3.020 A  
HETATM   10  C   UNL     1      -7.371  13.199  66.887  1.00  0.00     0.427 C  
ENDROOT
BRANCH   9  11
HETATM   11  O   UNL     1      -8.999  12.452  64.735  1.00  0.00     0.663 OA 
BRANCH  11  12
HETATM   12  C   UNL     1      -9.491  11.513  65.644  1.00  0.00    -0.222 A  
HETATM   13  C   UNL     1     -10.497  10.664  65.221  1.00  0.00    -0.194 A  
HETATM   14  C   UNL     1     -10.928   9.733  66.153  1.00  0.00     0.594 A  
HETATM   15 BR   UNL     1     -11.261  10.758  63.493  1.00  0.00     1.265 Br 
HETATM   16  N   UNL     1     -11.867   8.740  65.871  1.00  0.00     5.574 NA 
HETATM   17  N   UNL     1     -10.419   9.654  67.392  1.00  0.00    -0.245 NA 
HETATM   18  H1  UNL     1     -12.185   8.056  66.557  1.00  0.00     0.000 HD 
HETATM   19  H2  UNL     1     -11.526   8.222  65.062  1.00  0.00     0.000 HD 
HETATM   20  C   UNL     1      -9.490  10.542  67.750  1.00  0.00    -0.149 A  
HETATM   21  N   UNL     1      -9.060  11.500  66.914  1.00  0.00    -0.174 NA 
BRANCH  20  22
HETATM   22  N   UNL     1      -8.863  10.491  69.002  1.00  0.00    -0.167 NA 
HETATM   23  H   UNL     1      -8.973   9.608  69.500  1.00  0.00     0.000 HD 
BRANCH  22  24
HETATM   24  C   UNL     1      -8.108  11.462  69.681  1.00  0.00     0.722 A  
HETATM   25  C   UNL     1      -6.738  11.327  69.930  1.00  0.00    -0.067 A  
HETATM   26  C   UNL     1      -6.013  12.328  70.585  1.00  0.00     0.042 A  
HETATM   27  C   UNL     1      -6.646  13.491  71.020  1.00  0.00     1.097 A  
HETATM   28  C   UNL     1      -5.890  14.531  71.659  1.00  0.00     0.017 C  
HETATM   29  C   UNL     1      -8.019  13.631  70.812  1.00  0.00     4.295 A  
HETATM   30  C   UNL     1      -8.743  12.620  70.160  1.00  0.00     4.187 A  
HETATM   31  N   UNL     1      -5.271  15.371  72.168  1.00  0.00     0.003 NA 
ENDBRANCH  22  24
ENDBRANCH  20  22
ENDBRANCH  11  12
ENDBRANCH   9  11
TORSDOF 4
ENDMDL
MODEL      248
REMARK 921   NORMALIZED FREE ENERGY PREDICTED BY IDOCK:   53.09 KCAL/MOL
REMARK 922        TOTAL FREE ENERGY PREDICTED BY IDOCK:   64.85 KCAL/MOL
REMARK 923 INTER-LIGAND FREE ENERGY PREDICTED BY IDOCK:   61.81 KCAL/MOL
REMARK 924 INTRA-LIGAND FREE ENERGY PREDICTED BY IDOCK:    3.04 KCAL/MOL
REMARK 927      BINDING AFFINITY PREDICTED BY RF-SCORE:    0.00 PKD
ROOT
HETATM    1  C   UNL     1     -11.246  14.680  68.947  1.00  0.00    -0.285 C  
HETATM    2  C   UNL     1     -10.620  14.325  67.634  1.00  0.00    -0.253 A  
HETATM    3  C   UNL     1      -9.510  15.143  67.313  1.00  0.00    -0.214 A  
HETATM    4  C   UNL     1      -8.727  14.925  66.188  1.00  0.00     0.155 A  
HETATM    5  C   UNL     1      -9.029  13.850  65.368  1.00  0.00     1.346 A  
HETATM    6  C   UNL     1      -7.613  15.792  65.915  1.00  0.00     1.998 C  
HETATM    7  N   UNL     1      -6.729  16.509  65.729  1.00  0.00     0.912 NA 
HETATM    8  C   UNL     1     -10.141  13.022  65.644  1.00  0.00    -0.276 A  
HETATM    9  C   UNL     1     -10.994  13.278  66.762  1.00  0.00    -0.287 A  
HETATM   10  C   UNL     1     -10.358  11.851  64.713  1.00  0.00    -0.323 C  
ENDROOT
BRANCH   9  11
HETATM   11  O   UNL     1     -12.171  12.539  66.733  1.00  0.00    -0.532 OA 
BRANCH  11  12
HETATM   12  C   UNL     1     -12.414  11.374  66.004  1.00  0.00     2.746 A  
HETATM   13  C   UNL     1     -12.879  11.503  64.707  1.00  0.00     1.653 A  
HETATM   14  C   UNL     1     -13.076  10.316  64.019  1.00  0.00     8.410 A  
HETATM   15 BR   UNL     1     -13.243  13.179  63.909  1.00  0.00     1.301 Br 
HETATM   16  N   UNL     1     -13.453  10.258  62.677  1.00  0.00     5.581 NA 
HETATM   17  N   UNL     1     -12.846   9.112  64.565  1.00  0.00    16.397 NA 
HETATM   18  H1  UNL     1     -13.599   9.385  62.171  1.00  0.00     0.000 HD 
HETATM   19  H2  UNL     1     -12.773  10.804  62.148  1.00  0.00     0.000 HD 
HETATM   20  C   UNL     1     -12.452   9.061  65.838  1.00  0.00    13.242 A  
HETATM   21  N   UNL     1     -12.286  10.169  66.578  1.00  0.00     4.692 NA 
BRANCH  20  22
HETATM   22  N   UNL     1     -12.130   7.850  66.464  1.00  0.00     4.587 NA 
HETATM   23  H   UNL     1     -12.924   7.349  66.863  1.00  0.00     0.000 HD 
BRANCH  22  24
HETATM   24  C   UNL     1     -10.888   7.214  66.629  1.00  0.00     0.086 A  
HETATM   25  C   UNL     1     -10.054   6.875  65.559  1.00  0.00     1.569 A  
HETATM   26  C   UNL     1      -8.811   6.267  65.765  1.00  0.00    -0.122 A  
HETATM   27  C   UNL     1      -8.373   5.971  67.055  1.00  0.00    -0.105 A  
HETATM   28  C   UNL     1      -7.080   5.381  67.263  1.00  0.00    -0.070 C  
HETATM   29  C   UNL     1      -9.205   6.270  68.136  1.00  0.00    -0.110 A  
HETATM   30  C   UNL     1     -10.454   6.874  67.922  1.00  0.00    -0.262 A  
HETATM   31  N   UNL     1      -6.031   4.912  67.425  1.00  0.00    -0.022 NA 
ENDBRANCH  22  24
ENDBRANCH  20  22
ENDBRANCH  11  12
ENDBRANCH   9  11
TORSDOF 4
ENDMDL
MODEL      249
REMARK 921   NORMALIZED FREE ENERGY PREDICTED BY IDOCK:   61.16 KCAL/MOL
REMARK 922        TOTAL FREE ENERGY PREDICTED BY IDOCK:   74.81 KCAL/MOL
REMARK 923 INTER-LIGAND FREE ENERGY PREDICTED BY IDOCK:   68.65 KCAL/MOL
REMARK 924 INTRA-LIGAND FREE ENERGY PREDICTED BY IDOCK:    6.16 KCAL/MOL
REMARK 927      BINDING AFFINITY PREDICTED BY RF-SCORE:    0.00 PKD
ROOT
HETATM    1  C   UNL     1      -9.570  14.173  67.210  1.00  0.00    -0.234 C  
HETATM    2  C   UNL     1     -10.344  13.916  68.466  1.00  0.00    -0.244 A  
HETATM    3  C   UNL     1     -11.440  13.043  68.271  1.00  0.00    -0.347 A  
HETATM    4  C   UNL     1     -12.233  12.598  69.320  1.00  0.00    -0.089 A  
HETATM    5  C   UNL     1     -11.918  13.004  70.607  1.00  0.00    -0.224 A  
HETATM    6  C   UNL     1     -13.334  11.711  69.057  1.00  0.00     3.632 C  
HETATM    7  N   UNL     1     -14.208  11.001  68.806  1.00  0.00     8.003 NA 
HETATM    8  C   UNL     1     -10.844  13.892  70.841  1.00  0.00     1.718 A  
HETATM    9  C   UNL     1     -10.063  14.410  69.760  1.00  0.00     0.378 A  
HETATM   10  C   UNL     1     -10.557  14.239  72.283  1.00  0.00     3.779 C  
ENDROOT
BRANCH   9  11
HETATM   11  O   UNL     1      -9.232  15.457  70.139  1.00  0.00    -0.004 OA 
BRANCH  11  12
HETATM   12  C   UNL     1      -8.381  16.195  69.314  1.00  0.00    -0.178 A  
HETATM   13  C   UNL     1      -8.053  17.481  69.703  1.00  0.00     0.879 A  
HETATM   14  C   UNL     1      -7.183  18.159  68.862  1.00  0.00    -0.258 A  
HETATM   15 BR   UNL     1      -8.747  18.290  71.266  1.00  0.00     8.853 Br 
HETATM   16  N   UNL     1      -6.674  19.427  69.144  1.00  0.00    -0.321 NA 
HETATM   17  N   UNL     1      -6.691  17.619  67.737  1.00  0.00    -0.180 NA 
HETATM   18  H1  UNL     1      -6.035  19.926  68.526  1.00  0.00     0.000 HD 
HETATM   19  H2  UNL     1      -6.232  19.379  70.062  1.00  0.00     0.000 HD 
HETATM   20  C   UNL     1      -7.094  16.395  67.395  1.00  0.00    -0.159 A  
HETATM   21  N   UNL     1      -7.971  15.700  68.137  1.00  0.00    -0.127 NA 
BRANCH  20  22
HETATM   22  N   UNL     1      -6.581  15.735  66.271  1.00  0.00     0.662 NA 
HETATM   23  H   UNL     1      -5.775  16.188  65.840  1.00  0.00     0.000 HD 
BRANCH  22  24
HETATM   24  C   UNL     1      -6.998  14.550  65.643  1.00  0.00     8.166 A  
HETATM   25  C   UNL     1      -8.301  14.050  65.742  1.00  0.00     2.197 A  
HETATM   26  C   UNL     1      -8.687  12.880  65.078  1.00  0.00     2.068 A  
HETATM   27  C   UNL     1      -7.770  12.171  64.303  1.00  0.00     4.054 A  
HETATM   28  C   UNL     1      -8.182  10.992  63.595  1.00  0.00     0.320 C  
HETATM   29  C   UNL     1      -6.456  12.634  64.218  1.00  0.00    10.266 A  
HETATM   30  C   UNL     1      -6.073  13.805  64.892  1.00  0.00    16.196 A  
HETATM   31  N   UNL     1      -8.523  10.044  63.018  1.00  0.00    -0.162 NA 
ENDBRANCH  22  24
ENDBRANCH  20  22
ENDBRANCH  11  12
ENDBRANCH   9  11
TORSDOF 4
ENDMDL
MODEL      250
REMARK 921   NORMALIZED FREE ENERGY PREDICTED BY IDOCK:   77.25 KCAL/MOL
REMARK 922        TOTAL FREE ENERGY PREDICTED BY IDOCK:   94.66 KCAL/MOL
REMARK 923 INTER-LIGAND FREE ENERGY PREDICTED BY IDOCK:   93.63 KCAL/MOL
REMARK 924 INTRA-LIGAND FREE ENERGY PREDICTED BY IDOCK:    1.02 KCAL/MOL
REMARK 927      BINDING AFFINITY PREDICTED BY RF-SCORE:    0.00 PKD
ROOT
HETATM    1  C   UNL     1      -7.206  18.798  67.038  1.00  0.00    -0.218 C  
HETATM    2  C   UNL     1      -6.546  17.678  67.780  1.00  0.00    -0.189 A  
HETATM    3  C   UNL     1      -6.301  17.985  69.139  1.00  0.00    -0.246 A  
HETATM    4  C   UNL     1      -5.784  17.055  70.030  1.00  0.00    -0.227 A  
HETATM    5  C   UNL     1      -5.526  15.772  69.574  1.00  0.00    -0.113 A  
HETATM    6  C   UNL     1      -5.556  17.428  71.401  1.00  0.00     0.495 C  
HETATM    7  N   UNL     1      -5.386  17.765  72.491  1.00  0.00     0.486 NA 
HETATM    8  C   UNL     1      -5.738  15.432  68.219  1.00  0.00    -0.120 A  
HETATM    9  C   UNL     1      -6.207  16.401  67.278  1.00  0.00    -0.177 A  
HETATM   10  C   UNL     1      -5.467  13.996  67.833  1.00  0.00    -0.086 C  
ENDROOT
BRANCH   9  11
HETATM   11  O   UNL     1      -6.108  15.975  65.959  1.00  0.00     1.237 OA 
BRANCH  11  12
HETATM   12  C   UNL     1      -7.079  16.089  64.963  1.00  0.00     7.947 A  
HETATM   13  C   UNL     1      -7.141  17.271  64.247  1.00  0.00     7.764 A  
HETATM   14  C   UNL     1      -8.105  17.320  63.252  1.00  0.00    20.503 A  
HETATM   15 BR   UNL     1      -6.003  18.743  64.595  1.00  0.00    -0.095 Br 
HETATM   16  N   UNL     1      -8.248  18.395  62.373  1.00  0.00    18.278 NA 
HETATM   17  N   UNL     1      -8.938  16.301  62.995  1.00  0.00    17.016 NA 
HETATM   18  H1  UNL     1      -8.957  18.432  61.642  1.00  0.00     0.000 HD 
HETATM   19  H2  UNL     1      -7.343  18.542  61.925  1.00  0.00     0.000 HD 
HETATM   20  C   UNL     1      -8.860  15.213  63.763  1.00  0.00    12.291 A  
HETATM   21  N   UNL     1      -7.982  15.115  64.773  1.00  0.00     7.045 NA 
BRANCH  20  22
HETATM   22  N   UNL     1      -9.649  14.081  63.522  1.00  0.00     2.866 NA 
HETATM   23  H   UNL     1     -10.398  14.217  62.843  1.00  0.00     0.000 HD 
BRANCH  22  24
HETATM   24  C   UNL     1      -9.575  12.788  64.066  1.00  0.00     0.511 A  
HETATM   25  C   UNL     1      -8.960  11.717  63.409  1.00  0.00     0.184 A  
HETATM   26  C   UNL     1      -8.881  10.449  63.995  1.00  0.00    -0.225 A  
HETATM   27  C   UNL     1      -9.428  10.216  65.257  1.00  0.00    -0.306 A  
HETATM   28  C   UNL     1      -9.312   8.923  65.869  1.00  0.00    -0.236 C  
HETATM   29  C   UNL     1     -10.076  11.264  65.915  1.00  0.00    -0.291 A  
HETATM   30  C   UNL     1     -10.158  12.532  65.319  1.00  0.00    -0.275 A  
HETATM   31  N   UNL     1      -9.207   7.878  66.362  1.00  0.00    -0.184 NA 
ENDBRANCH  22  24
ENDBRANCH  20  22
ENDBRANCH  11  12
ENDBRANCH   9  11
TORSDOF 4
ENDMDL
