MODEL        1
REMARK 921   NORMALIZED FREE ENERGY PREDICTED BY IDOCK:   -4.93 KCAL/MOL
REMARK 922        TOTAL FREE ENERGY PREDICTED BY IDOCK:   -5.99 KCAL/MOL
REMARK 923 INTER-LIGAND FREE ENERGY PREDICTED BY IDOCK:   -5.80 KCAL/MOL
REMARK 924 INTRA-LIGAND FREE ENERGY PREDICTED BY IDOCK:   -0.19 KCAL/MOL
REMARK 927      BINDING AFFINITY PREDICTED BY RF-SCORE:    0.00 PKD
ROOT
HETATM    1  C   UNL     1     -12.402  12.420  63.477  1.00  0.00    -0.546 C  
HETATM    2  O   UNL     1     -12.659  13.809  63.658  1.00  0.00    -0.742 OA 
ENDROOT
BRANCH   2   3
HETATM    3  C   UNL     1     -12.093  14.412  64.749  1.00  0.00    -0.452 A  
HETATM    4  C   UNL     1     -11.557  15.700  64.810  1.00  0.00    -0.218 A  
HETATM    5  O   UNL     1     -11.470  16.530  63.728  1.00  0.00    -1.615 OA 
HETATM    6  C   UNL     1     -10.996  16.186  65.989  1.00  0.00    -0.056 A  
HETATM    7  H   UNL     1     -11.105  17.406  63.769  1.00  0.00     0.000 HD 
HETATM    8  C   UNL     1     -10.916  15.369  67.115  1.00  0.00    -0.317 A  
HETATM    9  C   UNL     1     -11.418  14.063  67.075  1.00  0.00    -0.370 A  
HETATM   10  C   UNL     1     -12.006  13.597  65.885  1.00  0.00    -0.438 A  
BRANCH   9  11
HETATM   11  C   UNL     1     -11.298  13.166  68.286  1.00  0.00    -0.333 C  
BRANCH  11  12
HETATM   12  C   UNL     1     -12.137  13.641  69.441  1.00  0.00    -0.364 C  
HETATM   13  C   UNL     1     -12.070  13.142  70.683  1.00  0.00    -0.346 C  
ENDBRANCH  11  12
ENDBRANCH   9  11
ENDBRANCH   2   3
TORSDOF 3
ENDMDL
MODEL        2
REMARK 921   NORMALIZED FREE ENERGY PREDICTED BY IDOCK:   -4.93 KCAL/MOL
REMARK 922        TOTAL FREE ENERGY PREDICTED BY IDOCK:   -5.98 KCAL/MOL
REMARK 923 INTER-LIGAND FREE ENERGY PREDICTED BY IDOCK:   -5.77 KCAL/MOL
REMARK 924 INTRA-LIGAND FREE ENERGY PREDICTED BY IDOCK:   -0.21 KCAL/MOL
REMARK 927      BINDING AFFINITY PREDICTED BY RF-SCORE:    0.00 PKD
ROOT
HETATM    1  C   UNL     1     -12.181  12.580  63.375  1.00  0.00    -0.517 C  
HETATM    2  O   UNL     1     -12.736  13.676  64.096  1.00  0.00    -0.657 OA 
ENDROOT
BRANCH   2   3
HETATM    3  C   UNL     1     -11.916  14.318  64.985  1.00  0.00    -0.410 A  
HETATM    4  C   UNL     1     -11.347  15.584  64.837  1.00  0.00    -0.335 A  
HETATM    5  O   UNL     1     -11.490  16.346  63.711  1.00  0.00    -1.590 OA 
HETATM    6  C   UNL     1     -10.515  16.114  65.820  1.00  0.00    -0.384 A  
HETATM    7  H   UNL     1     -11.102  17.207  63.610  1.00  0.00     0.000 HD 
HETATM    8  C   UNL     1     -10.198  15.361  66.950  1.00  0.00    -0.273 A  
HETATM    9  C   UNL     1     -10.731  14.077  67.113  1.00  0.00    -0.283 A  
HETATM   10  C   UNL     1     -11.590  13.567  66.122  1.00  0.00    -0.371 A  
BRANCH   9  11
HETATM   11  C   UNL     1     -10.358  13.248  68.320  1.00  0.00    -0.252 C  
BRANCH  11  12
HETATM   12  C   UNL     1     -11.045  11.910  68.336  1.00  0.00    -0.292 C  
HETATM   13  C   UNL     1     -11.776  11.445  69.358  1.00  0.00    -0.406 C  
ENDBRANCH  11  12
ENDBRANCH   9  11
ENDBRANCH   2   3
TORSDOF 3
ENDMDL
MODEL        3
REMARK 921   NORMALIZED FREE ENERGY PREDICTED BY IDOCK:   -4.89 KCAL/MOL
REMARK 922        TOTAL FREE ENERGY PREDICTED BY IDOCK:   -5.94 KCAL/MOL
REMARK 923 INTER-LIGAND FREE ENERGY PREDICTED BY IDOCK:   -5.73 KCAL/MOL
REMARK 924 INTRA-LIGAND FREE ENERGY PREDICTED BY IDOCK:   -0.21 KCAL/MOL
REMARK 927      BINDING AFFINITY PREDICTED BY RF-SCORE:    0.00 PKD
ROOT
HETATM    1  C   UNL     1     -10.284  18.106  66.307  1.00  0.00    -0.395 C  
HETATM    2  O   UNL     1      -9.718  16.908  65.785  1.00  0.00    -0.517 OA 
ENDROOT
BRANCH   2   3
HETATM    3  C   UNL     1     -10.541  15.819  65.685  1.00  0.00    -0.377 A  
HETATM    4  C   UNL     1     -11.430  15.533  64.647  1.00  0.00    -0.324 A  
HETATM    5  O   UNL     1     -11.644  16.370  63.588  1.00  0.00    -1.514 OA 
HETATM    6  C   UNL     1     -12.224  14.389  64.680  1.00  0.00    -0.479 A  
HETATM    7  H   UNL     1     -12.249  16.175  62.882  1.00  0.00     0.000 HD 
HETATM    8  C   UNL     1     -12.178  13.536  65.782  1.00  0.00    -0.505 A  
HETATM    9  C   UNL     1     -11.318  13.812  66.851  1.00  0.00    -0.345 A  
HETATM   10  C   UNL     1     -10.504  14.958  66.790  1.00  0.00    -0.284 A  
BRANCH   9  11
HETATM   11  C   UNL     1     -11.295  12.906  68.061  1.00  0.00    -0.333 C  
BRANCH  11  12
HETATM   12  C   UNL     1     -11.443  11.454  67.696  1.00  0.00    -0.348 C  
HETATM   13  C   UNL     1     -11.004  10.435  68.447  1.00  0.00    -0.312 C  
ENDBRANCH  11  12
ENDBRANCH   9  11
ENDBRANCH   2   3
TORSDOF 3
ENDMDL
MODEL        4
REMARK 921   NORMALIZED FREE ENERGY PREDICTED BY IDOCK:   -4.85 KCAL/MOL
REMARK 922        TOTAL FREE ENERGY PREDICTED BY IDOCK:   -5.89 KCAL/MOL
REMARK 923 INTER-LIGAND FREE ENERGY PREDICTED BY IDOCK:   -5.64 KCAL/MOL
REMARK 924 INTRA-LIGAND FREE ENERGY PREDICTED BY IDOCK:   -0.25 KCAL/MOL
REMARK 927      BINDING AFFINITY PREDICTED BY RF-SCORE:    0.00 PKD
ROOT
HETATM    1  C   UNL     1     -11.829  13.358  67.645  1.00  0.00    -0.354 C  
HETATM    2  O   UNL     1     -11.176  12.915  68.831  1.00  0.00    -0.253 OA 
ENDROOT
BRANCH   2   3
HETATM    3  C   UNL     1     -11.949  12.763  69.951  1.00  0.00    -0.298 A  
HETATM    4  C   UNL     1     -12.338  11.559  70.543  1.00  0.00    -0.342 A  
HETATM    5  O   UNL     1     -12.036  10.333  70.021  1.00  0.00    -0.403 OA 
HETATM    6  C   UNL     1     -13.143  11.548  71.680  1.00  0.00    -0.478 A  
HETATM    7  H   UNL     1     -12.300   9.514  70.424  1.00  0.00     0.000 HD 
HETATM    8  C   UNL     1     -13.616  12.746  72.214  1.00  0.00    -0.563 A  
HETATM    9  C   UNL     1     -13.267  13.967  71.624  1.00  0.00    -0.446 A  
HETATM   10  C   UNL     1     -12.431  13.961  70.493  1.00  0.00    -0.422 A  
BRANCH   9  11
HETATM   11  C   UNL     1     -13.809  15.262  72.184  1.00  0.00    -0.625 C  
BRANCH  11  12
HETATM   12  C   UNL     1     -12.829  15.955  73.090  1.00  0.00    -0.643 C  
HETATM   13  C   UNL     1     -12.408  15.469  74.266  1.00  0.00    -0.815 C  
ENDBRANCH  11  12
ENDBRANCH   9  11
ENDBRANCH   2   3
TORSDOF 3
ENDMDL
MODEL        5
REMARK 921   NORMALIZED FREE ENERGY PREDICTED BY IDOCK:   -4.81 KCAL/MOL
REMARK 922        TOTAL FREE ENERGY PREDICTED BY IDOCK:   -5.84 KCAL/MOL
REMARK 923 INTER-LIGAND FREE ENERGY PREDICTED BY IDOCK:   -5.63 KCAL/MOL
REMARK 924 INTRA-LIGAND FREE ENERGY PREDICTED BY IDOCK:   -0.22 KCAL/MOL
REMARK 927      BINDING AFFINITY PREDICTED BY RF-SCORE:    0.00 PKD
ROOT
HETATM    1  C   UNL     1     -13.358  15.967  73.190  1.00  0.00    -0.587 C  
HETATM    2  O   UNL     1     -14.114  15.087  72.365  1.00  0.00    -0.474 OA 
ENDROOT
BRANCH   2   3
HETATM    3  C   UNL     1     -13.419  14.153  71.644  1.00  0.00    -0.369 A  
HETATM    4  C   UNL     1     -12.686  14.373  70.475  1.00  0.00    -0.340 A  
HETATM    5  O   UNL     1     -12.621  15.584  69.845  1.00  0.00    -0.582 OA 
HETATM    6  C   UNL     1     -12.034  13.324  69.832  1.00  0.00    -0.400 A  
HETATM    7  H   UNL     1     -12.123  15.734  69.050  1.00  0.00     0.000 HD 
HETATM    8  C   UNL     1     -12.148  12.024  70.321  1.00  0.00    -0.395 A  
HETATM    9  C   UNL     1     -12.900  11.768  71.474  1.00  0.00    -0.450 A  
HETATM   10  C   UNL     1     -13.530  12.843  72.127  1.00  0.00    -0.619 A  
BRANCH   9  11
HETATM   11  C   UNL     1     -13.052  10.353  71.983  1.00  0.00    -0.521 C  
BRANCH  11  12
HETATM   12  C   UNL     1     -12.027   9.418  71.402  1.00  0.00    -0.446 C  
HETATM   13  C   UNL     1     -11.310   8.539  72.116  1.00  0.00    -0.442 C  
ENDBRANCH  11  12
ENDBRANCH   9  11
ENDBRANCH   2   3
TORSDOF 3
ENDMDL
MODEL        6
REMARK 921   NORMALIZED FREE ENERGY PREDICTED BY IDOCK:   -4.80 KCAL/MOL
REMARK 922        TOTAL FREE ENERGY PREDICTED BY IDOCK:   -5.84 KCAL/MOL
REMARK 923 INTER-LIGAND FREE ENERGY PREDICTED BY IDOCK:   -5.58 KCAL/MOL
REMARK 924 INTRA-LIGAND FREE ENERGY PREDICTED BY IDOCK:   -0.25 KCAL/MOL
REMARK 927      BINDING AFFINITY PREDICTED BY RF-SCORE:    0.00 PKD
ROOT
HETATM    1  C   UNL     1     -11.742  12.581  67.398  1.00  0.00    -0.366 C  
HETATM    2  O   UNL     1     -11.188  12.011  68.579  1.00  0.00    -0.216 OA 
ENDROOT
BRANCH   2   3
HETATM    3  C   UNL     1     -11.884  12.189  69.745  1.00  0.00    -0.327 A  
HETATM    4  C   UNL     1     -12.397  11.189  70.576  1.00  0.00    -0.364 A  
HETATM    5  O   UNL     1     -12.320   9.857  70.284  1.00  0.00    -0.479 OA 
HETATM    6  C   UNL     1     -13.102  11.513  71.732  1.00  0.00    -0.503 A  
HETATM    7  H   UNL     1     -12.668   9.177  70.849  1.00  0.00     0.000 HD 
HETATM    8  C   UNL     1     -13.350  12.847  72.051  1.00  0.00    -0.579 A  
HETATM    9  C   UNL     1     -12.874  13.870  71.221  1.00  0.00    -0.435 A  
HETATM   10  C   UNL     1     -12.141  13.526  70.071  1.00  0.00    -0.411 A  
BRANCH   9  11
HETATM   11  C   UNL     1     -13.175  15.315  71.549  1.00  0.00    -0.542 C  
BRANCH  11  12
HETATM   12  C   UNL     1     -13.426  15.533  73.016  1.00  0.00    -0.632 C  
HETATM   13  C   UNL     1     -12.538  16.063  73.867  1.00  0.00    -0.730 C  
ENDBRANCH  11  12
ENDBRANCH   9  11
ENDBRANCH   2   3
TORSDOF 3
ENDMDL
MODEL        7
REMARK 921   NORMALIZED FREE ENERGY PREDICTED BY IDOCK:   -4.79 KCAL/MOL
REMARK 922        TOTAL FREE ENERGY PREDICTED BY IDOCK:   -5.82 KCAL/MOL
REMARK 923 INTER-LIGAND FREE ENERGY PREDICTED BY IDOCK:   -5.56 KCAL/MOL
REMARK 924 INTRA-LIGAND FREE ENERGY PREDICTED BY IDOCK:   -0.25 KCAL/MOL
REMARK 927      BINDING AFFINITY PREDICTED BY RF-SCORE:    0.00 PKD
ROOT
HETATM    1  C   UNL     1      -8.433  15.882  66.742  1.00  0.00    -0.262 C  
HETATM    2  O   UNL     1      -9.371  16.203  65.720  1.00  0.00    -0.396 OA 
ENDROOT
BRANCH   2   3
HETATM    3  C   UNL     1     -10.362  15.292  65.471  1.00  0.00    -0.383 A  
HETATM    4  C   UNL     1     -11.375  15.395  64.515  1.00  0.00    -0.313 A  
HETATM    5  O   UNL     1     -11.548  16.492  63.719  1.00  0.00    -1.617 OA 
HETATM    6  C   UNL     1     -12.333  14.393  64.378  1.00  0.00    -0.428 A  
HETATM    7  H   UNL     1     -12.237  16.562  63.069  1.00  0.00     0.000 HD 
HETATM    8  C   UNL     1     -12.323  13.293  65.233  1.00  0.00    -0.525 A  
HETATM    9  C   UNL     1     -11.337  13.176  66.220  1.00  0.00    -0.348 A  
HETATM   10  C   UNL     1     -10.362  14.183  66.328  1.00  0.00    -0.294 A  
BRANCH   9  11
HETATM   11  C   UNL     1     -11.349  12.000  67.169  1.00  0.00    -0.396 C  
BRANCH  11  12
HETATM   12  C   UNL     1     -10.276  10.994  66.855  1.00  0.00    -0.263 C  
HETATM   13  C   UNL     1     -10.150  10.360  65.681  1.00  0.00    -0.337 C  
ENDBRANCH  11  12
ENDBRANCH   9  11
ENDBRANCH   2   3
TORSDOF 3
ENDMDL
MODEL        8
REMARK 921   NORMALIZED FREE ENERGY PREDICTED BY IDOCK:   -4.75 KCAL/MOL
REMARK 922        TOTAL FREE ENERGY PREDICTED BY IDOCK:   -5.77 KCAL/MOL
REMARK 923 INTER-LIGAND FREE ENERGY PREDICTED BY IDOCK:   -5.54 KCAL/MOL
REMARK 924 INTRA-LIGAND FREE ENERGY PREDICTED BY IDOCK:   -0.24 KCAL/MOL
REMARK 927      BINDING AFFINITY PREDICTED BY RF-SCORE:    0.00 PKD
ROOT
HETATM    1  C   UNL     1      -9.884  17.793  66.752  1.00  0.00    -0.320 C  
HETATM    2  O   UNL     1      -9.648  16.795  65.764  1.00  0.00    -0.506 OA 
ENDROOT
BRANCH   2   3
HETATM    3  C   UNL     1     -10.528  15.748  65.711  1.00  0.00    -0.367 A  
HETATM    4  C   UNL     1     -11.464  15.491  64.706  1.00  0.00    -0.313 A  
HETATM    5  O   UNL     1     -11.670  16.321  63.640  1.00  0.00    -1.447 OA 
HETATM    6  C   UNL     1     -12.314  14.390  64.785  1.00  0.00    -0.427 A  
HETATM    7  H   UNL     1     -12.306  16.147  62.957  1.00  0.00     0.000 HD 
HETATM    8  C   UNL     1     -12.275  13.554  65.899  1.00  0.00    -0.507 A  
HETATM    9  C   UNL     1     -11.367  13.803  66.936  1.00  0.00    -0.345 A  
HETATM   10  C   UNL     1     -10.499  14.904  66.828  1.00  0.00    -0.284 A  
BRANCH   9  11
HETATM   11  C   UNL     1     -11.351  12.916  68.160  1.00  0.00    -0.327 C  
BRANCH  11  12
HETATM   12  C   UNL     1     -11.292  13.702  69.441  1.00  0.00    -0.303 C  
HETATM   13  C   UNL     1     -12.325  14.371  69.970  1.00  0.00    -0.391 C  
ENDBRANCH  11  12
ENDBRANCH   9  11
ENDBRANCH   2   3
TORSDOF 3
ENDMDL
MODEL        9
REMARK 921   NORMALIZED FREE ENERGY PREDICTED BY IDOCK:   -4.70 KCAL/MOL
REMARK 922        TOTAL FREE ENERGY PREDICTED BY IDOCK:   -5.72 KCAL/MOL
REMARK 923 INTER-LIGAND FREE ENERGY PREDICTED BY IDOCK:   -5.45 KCAL/MOL
REMARK 924 INTRA-LIGAND FREE ENERGY PREDICTED BY IDOCK:   -0.26 KCAL/MOL
REMARK 927      BINDING AFFINITY PREDICTED BY RF-SCORE:    0.00 PKD
ROOT
HETATM    1  C   UNL     1     -12.135  12.510  63.454  1.00  0.00    -0.529 C  
HETATM    2  O   UNL     1     -12.561  13.774  63.952  1.00  0.00    -0.701 OA 
ENDROOT
BRANCH   2   3
HETATM    3  C   UNL     1     -11.749  14.392  64.865  1.00  0.00    -0.408 A  
HETATM    4  C   UNL     1     -11.241  15.691  64.791  1.00  0.00    -0.382 A  
HETATM    5  O   UNL     1     -11.446  16.519  63.724  1.00  0.00    -1.615 OA 
HETATM    6  C   UNL     1     -10.409  16.191  65.791  1.00  0.00    -0.398 A  
HETATM    7  H   UNL     1     -11.100  17.402  63.673  1.00  0.00     0.000 HD 
HETATM    8  C   UNL     1     -10.031  15.379  66.859  1.00  0.00    -0.247 A  
HETATM    9  C   UNL     1     -10.502  14.063  66.945  1.00  0.00    -0.276 A  
HETATM   10  C   UNL     1     -11.362  13.582  65.940  1.00  0.00    -0.321 A  
BRANCH   9  11
HETATM   11  C   UNL     1     -10.062  13.173  68.084  1.00  0.00    -0.237 C  
BRANCH  11  12
HETATM   12  C   UNL     1      -9.043  12.151  67.658  1.00  0.00    -0.181 C  
HETATM   13  C   UNL     1      -7.780  12.436  67.317  1.00  0.00    -0.158 C  
ENDBRANCH  11  12
ENDBRANCH   9  11
ENDBRANCH   2   3
TORSDOF 3
ENDMDL
MODEL       10
REMARK 921   NORMALIZED FREE ENERGY PREDICTED BY IDOCK:   -4.68 KCAL/MOL
REMARK 922        TOTAL FREE ENERGY PREDICTED BY IDOCK:   -5.69 KCAL/MOL
REMARK 923 INTER-LIGAND FREE ENERGY PREDICTED BY IDOCK:   -5.41 KCAL/MOL
REMARK 924 INTRA-LIGAND FREE ENERGY PREDICTED BY IDOCK:   -0.28 KCAL/MOL
REMARK 927      BINDING AFFINITY PREDICTED BY RF-SCORE:    0.00 PKD
ROOT
HETATM    1  C   UNL     1     -13.689   9.362  71.462  1.00  0.00    -0.294 C  
HETATM    2  O   UNL     1     -12.677  10.240  71.944  1.00  0.00    -0.415 OA 
ENDROOT
BRANCH   2   3
HETATM    3  C   UNL     1     -12.620  11.491  71.390  1.00  0.00    -0.314 A  
HETATM    4  C   UNL     1     -11.878  11.880  70.272  1.00  0.00    -0.281 A  
HETATM    5  O   UNL     1     -11.033  11.041  69.602  1.00  0.00    -0.288 OA 
HETATM    6  C   UNL     1     -11.901  13.198  69.822  1.00  0.00    -0.386 A  
HETATM    7  H   UNL     1     -10.529  11.305  68.842  1.00  0.00     0.000 HD 
HETATM    8  C   UNL     1     -12.628  14.162  70.517  1.00  0.00    -0.410 A  
HETATM    9  C   UNL     1     -13.358  13.809  71.658  1.00  0.00    -0.430 A  
HETATM   10  C   UNL     1     -13.346  12.468  72.084  1.00  0.00    -0.540 A  
BRANCH   9  11
HETATM   11  C   UNL     1     -14.117  14.863  72.431  1.00  0.00    -0.554 C  
BRANCH  11  12
HETATM   12  C   UNL     1     -13.206  15.851  73.106  1.00  0.00    -0.692 C  
HETATM   13  C   UNL     1     -12.504  15.599  74.219  1.00  0.00    -0.804 C  
ENDBRANCH  11  12
ENDBRANCH   9  11
ENDBRANCH   2   3
TORSDOF 3
ENDMDL
MODEL       11
REMARK 921   NORMALIZED FREE ENERGY PREDICTED BY IDOCK:   -4.65 KCAL/MOL
REMARK 922        TOTAL FREE ENERGY PREDICTED BY IDOCK:   -5.66 KCAL/MOL
REMARK 923 INTER-LIGAND FREE ENERGY PREDICTED BY IDOCK:   -5.42 KCAL/MOL
REMARK 924 INTRA-LIGAND FREE ENERGY PREDICTED BY IDOCK:   -0.24 KCAL/MOL
REMARK 927      BINDING AFFINITY PREDICTED BY RF-SCORE:    0.00 PKD
ROOT
HETATM    1  C   UNL     1      -9.690  11.385  63.207  1.00  0.00    -0.394 C  
HETATM    2  O   UNL     1     -11.063  11.277  63.567  1.00  0.00    -0.367 OA 
ENDROOT
BRANCH   2   3
HETATM    3  C   UNL     1     -11.541  12.173  64.485  1.00  0.00    -0.336 A  
HETATM    4  C   UNL     1     -12.211  13.370  64.219  1.00  0.00    -0.392 A  
HETATM    5  O   UNL     1     -12.425  13.846  62.956  1.00  0.00    -1.099 OA 
HETATM    6  C   UNL     1     -12.632  14.199  65.255  1.00  0.00    -0.460 A  
HETATM    7  H   UNL     1     -12.880  14.660  62.774  1.00  0.00     0.000 HD 
HETATM    8  C   UNL     1     -12.345  13.868  66.578  1.00  0.00    -0.447 A  
HETATM    9  C   UNL     1     -11.649  12.690  66.875  1.00  0.00    -0.438 A  
HETATM   10  C   UNL     1     -11.254  11.850  65.817  1.00  0.00    -0.365 A  
BRANCH   9  11
HETATM   11  C   UNL     1     -11.307  12.351  68.307  1.00  0.00    -0.332 C  
BRANCH  11  12
HETATM   12  C   UNL     1     -11.714  13.433  69.269  1.00  0.00    -0.383 C  
HETATM   13  C   UNL     1     -12.229  13.212  70.486  1.00  0.00    -0.405 C  
ENDBRANCH  11  12
ENDBRANCH   9  11
ENDBRANCH   2   3
TORSDOF 3
ENDMDL
MODEL       12
REMARK 921   NORMALIZED FREE ENERGY PREDICTED BY IDOCK:   -4.64 KCAL/MOL
REMARK 922        TOTAL FREE ENERGY PREDICTED BY IDOCK:   -5.64 KCAL/MOL
REMARK 923 INTER-LIGAND FREE ENERGY PREDICTED BY IDOCK:   -5.42 KCAL/MOL
REMARK 924 INTRA-LIGAND FREE ENERGY PREDICTED BY IDOCK:   -0.22 KCAL/MOL
REMARK 927      BINDING AFFINITY PREDICTED BY RF-SCORE:    0.00 PKD
ROOT
HETATM    1  C   UNL     1     -10.645   7.165  73.217  1.00  0.00    -0.364 C  
HETATM    2  O   UNL     1     -11.732   7.328  72.312  1.00  0.00    -0.275 OA 
ENDROOT
BRANCH   2   3
HETATM    3  C   UNL     1     -12.027   8.604  71.913  1.00  0.00    -0.356 A  
HETATM    4  C   UNL     1     -13.062   9.413  72.387  1.00  0.00    -0.379 A  
HETATM    5  O   UNL     1     -13.986   8.991  73.301  1.00  0.00    -1.205 OA 
HETATM    6  C   UNL     1     -13.258  10.695  71.880  1.00  0.00    -0.528 A  
HETATM    7  H   UNL     1     -14.690   9.541  73.624  1.00  0.00     0.000 HD 
HETATM    8  C   UNL     1     -12.449  11.171  70.849  1.00  0.00    -0.509 A  
HETATM    9  C   UNL     1     -11.422  10.373  70.333  1.00  0.00    -0.420 A  
HETATM   10  C   UNL     1     -11.221   9.090  70.875  1.00  0.00    -0.348 A  
BRANCH   9  11
HETATM   11  C   UNL     1     -10.570  10.877  69.191  1.00  0.00    -0.253 C  
BRANCH  11  12
HETATM   12  C   UNL     1     -11.359  11.075  67.926  1.00  0.00    -0.381 C  
HETATM   13  C   UNL     1     -11.744  12.267  67.450  1.00  0.00    -0.405 C  
ENDBRANCH  11  12
ENDBRANCH   9  11
ENDBRANCH   2   3
TORSDOF 3
ENDMDL
MODEL       13
REMARK 921   NORMALIZED FREE ENERGY PREDICTED BY IDOCK:   -4.58 KCAL/MOL
REMARK 922        TOTAL FREE ENERGY PREDICTED BY IDOCK:   -5.58 KCAL/MOL
REMARK 923 INTER-LIGAND FREE ENERGY PREDICTED BY IDOCK:   -5.34 KCAL/MOL
REMARK 924 INTRA-LIGAND FREE ENERGY PREDICTED BY IDOCK:   -0.24 KCAL/MOL
REMARK 927      BINDING AFFINITY PREDICTED BY RF-SCORE:    0.00 PKD
ROOT
HETATM    1  C   UNL     1     -11.709  15.718  68.907  1.00  0.00    -0.394 C  
HETATM    2  O   UNL     1     -12.332  15.815  70.183  1.00  0.00    -0.384 OA 
ENDROOT
BRANCH   2   3
HETATM    3  C   UNL     1     -12.691  14.643  70.794  1.00  0.00    -0.359 A  
HETATM    4  C   UNL     1     -13.506  14.500  71.919  1.00  0.00    -0.378 A  
HETATM    5  O   UNL     1     -14.017  15.558  72.617  1.00  0.00    -0.545 OA 
HETATM    6  C   UNL     1     -13.780  13.241  72.448  1.00  0.00    -0.678 A  
HETATM    7  H   UNL     1     -14.572  15.461  73.382  1.00  0.00     0.000 HD 
HETATM    8  C   UNL     1     -13.198  12.105  71.889  1.00  0.00    -0.474 A  
HETATM    9  C   UNL     1     -12.353  12.220  70.778  1.00  0.00    -0.383 A  
HETATM   10  C   UNL     1     -12.109  13.496  70.240  1.00  0.00    -0.425 A  
BRANCH   9  11
HETATM   11  C   UNL     1     -11.695  10.991  70.195  1.00  0.00    -0.442 C  
BRANCH  11  12
HETATM   12  C   UNL     1     -11.924   9.762  71.032  1.00  0.00    -0.440 C  
HETATM   13  C   UNL     1     -10.952   9.048  71.615  1.00  0.00    -0.435 C  
ENDBRANCH  11  12
ENDBRANCH   9  11
ENDBRANCH   2   3
TORSDOF 3
ENDMDL
MODEL       14
REMARK 921   NORMALIZED FREE ENERGY PREDICTED BY IDOCK:   -4.57 KCAL/MOL
REMARK 922        TOTAL FREE ENERGY PREDICTED BY IDOCK:   -5.57 KCAL/MOL
REMARK 923 INTER-LIGAND FREE ENERGY PREDICTED BY IDOCK:   -5.34 KCAL/MOL
REMARK 924 INTRA-LIGAND FREE ENERGY PREDICTED BY IDOCK:   -0.23 KCAL/MOL
REMARK 927      BINDING AFFINITY PREDICTED BY RF-SCORE:    0.00 PKD
ROOT
HETATM    1  C   UNL     1     -14.382  14.521  72.160  1.00  0.00    -0.510 C  
HETATM    2  O   UNL     1     -13.710  13.346  72.602  1.00  0.00    -0.687 OA 
ENDROOT
BRANCH   2   3
HETATM    3  C   UNL     1     -13.094  12.583  71.647  1.00  0.00    -0.315 A  
HETATM    4  C   UNL     1     -13.036  11.188  71.599  1.00  0.00    -0.443 A  
HETATM    5  O   UNL     1     -13.553  10.380  72.572  1.00  0.00    -0.581 OA 
HETATM    6  C   UNL     1     -12.359  10.535  70.571  1.00  0.00    -0.432 A  
HETATM    7  H   UNL     1     -13.513   9.431  72.539  1.00  0.00     0.000 HD 
HETATM    8  C   UNL     1     -11.683  11.272  69.600  1.00  0.00    -0.420 A  
HETATM    9  C   UNL     1     -11.699  12.672  69.638  1.00  0.00    -0.373 A  
HETATM   10  C   UNL     1     -12.410  13.314  70.668  1.00  0.00    -0.416 A  
BRANCH   9  11
HETATM   11  C   UNL     1     -10.936  13.468  68.605  1.00  0.00    -0.289 C  
BRANCH  11  12
HETATM   12  C   UNL     1     -11.751  13.742  67.371  1.00  0.00    -0.417 C  
HETATM   13  C   UNL     1     -11.775  12.954  66.287  1.00  0.00    -0.457 C  
ENDBRANCH  11  12
ENDBRANCH   9  11
ENDBRANCH   2   3
TORSDOF 3
ENDMDL
MODEL       15
REMARK 921   NORMALIZED FREE ENERGY PREDICTED BY IDOCK:   -4.50 KCAL/MOL
REMARK 922        TOTAL FREE ENERGY PREDICTED BY IDOCK:   -5.48 KCAL/MOL
REMARK 923 INTER-LIGAND FREE ENERGY PREDICTED BY IDOCK:   -5.29 KCAL/MOL
REMARK 924 INTRA-LIGAND FREE ENERGY PREDICTED BY IDOCK:   -0.20 KCAL/MOL
REMARK 927      BINDING AFFINITY PREDICTED BY RF-SCORE:    0.00 PKD
ROOT
HETATM    1  C   UNL     1     -11.883  14.403  67.468  1.00  0.00    -0.386 C  
HETATM    2  O   UNL     1     -12.528  13.991  66.267  1.00  0.00    -0.465 OA 
ENDROOT
BRANCH   2   3
HETATM    3  C   UNL     1     -11.851  13.112  65.464  1.00  0.00    -0.380 A  
HETATM    4  C   UNL     1     -11.807  13.116  64.068  1.00  0.00    -0.453 A  
HETATM    5  O   UNL     1     -12.513  13.994  63.296  1.00  0.00    -1.139 OA 
HETATM    6  C   UNL     1     -11.086  12.148  63.372  1.00  0.00    -0.495 A  
HETATM    7  H   UNL     1     -12.483  13.997  62.346  1.00  0.00     0.000 HD 
HETATM    8  C   UNL     1     -10.437  11.126  64.065  1.00  0.00    -0.447 A  
HETATM    9  C   UNL     1     -10.488  11.080  65.463  1.00  0.00    -0.302 A  
HETATM   10  C   UNL     1     -11.198  12.080  66.151  1.00  0.00    -0.394 A  
BRANCH   9  11
HETATM   11  C   UNL     1      -9.814   9.951  66.209  1.00  0.00    -0.308 C  
BRANCH  11  12
HETATM   12  C   UNL     1     -10.540   9.582  67.474  1.00  0.00    -0.338 C  
HETATM   13  C   UNL     1      -9.986   9.582  68.694  1.00  0.00    -0.181 C  
ENDBRANCH  11  12
ENDBRANCH   9  11
ENDBRANCH   2   3
TORSDOF 3
ENDMDL
MODEL       16
REMARK 921   NORMALIZED FREE ENERGY PREDICTED BY IDOCK:   -4.46 KCAL/MOL
REMARK 922        TOTAL FREE ENERGY PREDICTED BY IDOCK:   -5.43 KCAL/MOL
REMARK 923 INTER-LIGAND FREE ENERGY PREDICTED BY IDOCK:   -5.20 KCAL/MOL
REMARK 924 INTRA-LIGAND FREE ENERGY PREDICTED BY IDOCK:   -0.23 KCAL/MOL
REMARK 927      BINDING AFFINITY PREDICTED BY RF-SCORE:    0.00 PKD
ROOT
HETATM    1  C   UNL     1     -11.245   6.333  71.630  1.00  0.00    -0.285 C  
HETATM    2  O   UNL     1     -11.718   7.305  72.557  1.00  0.00    -0.270 OA 
ENDROOT
BRANCH   2   3
HETATM    3  C   UNL     1     -11.990   8.555  72.068  1.00  0.00    -0.361 A  
HETATM    4  C   UNL     1     -13.068   9.373  72.412  1.00  0.00    -0.379 A  
HETATM    5  O   UNL     1     -14.061   8.988  73.268  1.00  0.00    -1.218 OA 
HETATM    6  C   UNL     1     -13.232  10.625  71.823  1.00  0.00    -0.526 A  
HETATM    7  H   UNL     1     -14.794   9.544  73.503  1.00  0.00     0.000 HD 
HETATM    8  C   UNL     1     -12.346  11.057  70.838  1.00  0.00    -0.503 A  
HETATM    9  C   UNL     1     -11.272  10.246  70.451  1.00  0.00    -0.407 A  
HETATM   10  C   UNL     1     -11.106   8.996  71.075  1.00  0.00    -0.356 A  
BRANCH   9  11
HETATM   11  C   UNL     1     -10.333  10.701  69.358  1.00  0.00    -0.234 C  
BRANCH  11  12
HETATM   12  C   UNL     1     -10.801  10.293  67.988  1.00  0.00    -0.325 C  
HETATM   13  C   UNL     1     -10.453   9.153  67.375  1.00  0.00    -0.339 C  
ENDBRANCH  11  12
ENDBRANCH   9  11
ENDBRANCH   2   3
TORSDOF 3
ENDMDL
MODEL       17
REMARK 921   NORMALIZED FREE ENERGY PREDICTED BY IDOCK:   -4.43 KCAL/MOL
REMARK 922        TOTAL FREE ENERGY PREDICTED BY IDOCK:   -5.40 KCAL/MOL
REMARK 923 INTER-LIGAND FREE ENERGY PREDICTED BY IDOCK:   -5.22 KCAL/MOL
REMARK 924 INTRA-LIGAND FREE ENERGY PREDICTED BY IDOCK:   -0.19 KCAL/MOL
REMARK 927      BINDING AFFINITY PREDICTED BY RF-SCORE:    0.00 PKD
ROOT
HETATM    1  C   UNL     1     -14.382  14.966  71.709  1.00  0.00    -0.578 C  
HETATM    2  O   UNL     1     -13.118  15.295  71.142  1.00  0.00    -0.408 OA 
ENDROOT
BRANCH   2   3
HETATM    3  C   UNL     1     -12.509  14.339  70.374  1.00  0.00    -0.362 A  
HETATM    4  C   UNL     1     -11.986  14.505  69.089  1.00  0.00    -0.309 A  
HETATM    5  O   UNL     1     -12.077  15.673  68.385  1.00  0.00    -0.497 OA 
HETATM    6  C   UNL     1     -11.403  13.437  68.411  1.00  0.00    -0.329 A  
HETATM    7  H   UNL     1     -11.722  15.786  67.512  1.00  0.00     0.000 HD 
HETATM    8  C   UNL     1     -11.380  12.169  68.990  1.00  0.00    -0.329 A  
HETATM    9  C   UNL     1     -11.923  11.966  70.264  1.00  0.00    -0.416 A  
HETATM   10  C   UNL     1     -12.484  13.061  70.946  1.00  0.00    -0.396 A  
BRANCH   9  11
HETATM   11  C   UNL     1     -11.929  10.584  70.875  1.00  0.00    -0.481 C  
BRANCH  11  12
HETATM   12  C   UNL     1     -13.116  10.353  71.769  1.00  0.00    -0.567 C  
HETATM   13  C   UNL     1     -13.441   9.171  72.310  1.00  0.00    -0.546 C  
ENDBRANCH  11  12
ENDBRANCH   9  11
ENDBRANCH   2   3
TORSDOF 3
ENDMDL
MODEL       18
REMARK 921   NORMALIZED FREE ENERGY PREDICTED BY IDOCK:   -4.36 KCAL/MOL
REMARK 922        TOTAL FREE ENERGY PREDICTED BY IDOCK:   -5.32 KCAL/MOL
REMARK 923 INTER-LIGAND FREE ENERGY PREDICTED BY IDOCK:   -5.10 KCAL/MOL
REMARK 924 INTRA-LIGAND FREE ENERGY PREDICTED BY IDOCK:   -0.22 KCAL/MOL
REMARK 927      BINDING AFFINITY PREDICTED BY RF-SCORE:    0.00 PKD
ROOT
HETATM    1  C   UNL     1     -12.992  12.847  71.515  1.00  0.00    -0.294 C  
HETATM    2  O   UNL     1     -13.465  11.671  72.165  1.00  0.00    -0.423 OA 
ENDROOT
BRANCH   2   3
HETATM    3  C   UNL     1     -12.912  10.479  71.780  1.00  0.00    -0.476 A  
HETATM    4  C   UNL     1     -13.188   9.217  72.312  1.00  0.00    -0.460 A  
HETATM    5  O   UNL     1     -14.030   9.015  73.369  1.00  0.00    -1.220 OA 
HETATM    6  C   UNL     1     -12.539   8.082  71.833  1.00  0.00    -0.359 A  
HETATM    7  H   UNL     1     -14.218   8.157  73.731  1.00  0.00     0.000 HD 
HETATM    8  C   UNL     1     -11.563   8.198  70.845  1.00  0.00    -0.283 A  
HETATM    9  C   UNL     1     -11.244   9.453  70.313  1.00  0.00    -0.286 A  
HETATM   10  C   UNL     1     -11.928  10.586  70.789  1.00  0.00    -0.472 A  
BRANCH   9  11
HETATM   11  C   UNL     1     -10.161   9.581  69.267  1.00  0.00    -0.203 C  
BRANCH  11  12
HETATM   12  C   UNL     1     -10.710   9.618  67.868  1.00  0.00    -0.302 C  
HETATM   13  C   UNL     1     -10.920  10.738  67.163  1.00  0.00    -0.324 C  
ENDBRANCH  11  12
ENDBRANCH   9  11
ENDBRANCH   2   3
TORSDOF 3
ENDMDL
MODEL       19
REMARK 921   NORMALIZED FREE ENERGY PREDICTED BY IDOCK:   -4.36 KCAL/MOL
REMARK 922        TOTAL FREE ENERGY PREDICTED BY IDOCK:   -5.31 KCAL/MOL
REMARK 923 INTER-LIGAND FREE ENERGY PREDICTED BY IDOCK:   -5.06 KCAL/MOL
REMARK 924 INTRA-LIGAND FREE ENERGY PREDICTED BY IDOCK:   -0.26 KCAL/MOL
REMARK 927      BINDING AFFINITY PREDICTED BY RF-SCORE:    0.00 PKD
ROOT
HETATM    1  C   UNL     1     -11.581  11.781  68.503  1.00  0.00    -0.321 C  
HETATM    2  O   UNL     1     -11.985  11.688  67.141  1.00  0.00    -0.614 OA 
ENDROOT
BRANCH   2   3
HETATM    3  C   UNL     1     -11.791  12.792  66.355  1.00  0.00    -0.408 A  
HETATM    4  C   UNL     1     -12.429  13.083  65.147  1.00  0.00    -0.496 A  
HETATM    5  O   UNL     1     -13.317  12.238  64.543  1.00  0.00    -0.769 OA 
HETATM    6  C   UNL     1     -12.124  14.242  64.438  1.00  0.00    -0.490 A  
HETATM    7  H   UNL     1     -13.751  12.435  63.722  1.00  0.00     0.000 HD 
HETATM    8  C   UNL     1     -11.134  15.107  64.903  1.00  0.00    -0.425 A  
HETATM    9  C   UNL     1     -10.456  14.827  66.095  1.00  0.00    -0.311 A  
HETATM   10  C   UNL     1     -10.796  13.665  66.812  1.00  0.00    -0.291 A  
BRANCH   9  11
HETATM   11  C   UNL     1      -9.359  15.747  66.578  1.00  0.00    -0.312 C  
BRANCH  11  12
HETATM   12  C   UNL     1      -9.674  16.370  67.911  1.00  0.00    -0.235 C  
HETATM   13  C   UNL     1     -10.632  17.283  68.114  1.00  0.00    -0.386 C  
ENDBRANCH  11  12
ENDBRANCH   9  11
ENDBRANCH   2   3
TORSDOF 3
ENDMDL
MODEL       20
REMARK 921   NORMALIZED FREE ENERGY PREDICTED BY IDOCK:   -4.35 KCAL/MOL
REMARK 922        TOTAL FREE ENERGY PREDICTED BY IDOCK:   -5.30 KCAL/MOL
REMARK 923 INTER-LIGAND FREE ENERGY PREDICTED BY IDOCK:   -5.07 KCAL/MOL
REMARK 924 INTRA-LIGAND FREE ENERGY PREDICTED BY IDOCK:   -0.23 KCAL/MOL
REMARK 927      BINDING AFFINITY PREDICTED BY RF-SCORE:    0.00 PKD
ROOT
HETATM    1  C   UNL     1     -12.638  12.075  63.452  1.00  0.00    -0.469 C  
HETATM    2  O   UNL     1     -13.114  12.541  64.710  1.00  0.00    -0.853 OA 
ENDROOT
BRANCH   2   3
HETATM    3  C   UNL     1     -12.217  13.186  65.518  1.00  0.00    -0.461 A  
HETATM    4  C   UNL     1     -11.651  12.699  66.699  1.00  0.00    -0.381 A  
HETATM    5  O   UNL     1     -11.984  11.495  67.251  1.00  0.00    -0.605 OA 
HETATM    6  C   UNL     1     -10.756  13.473  67.435  1.00  0.00    -0.269 A  
HETATM    7  H   UNL     1     -11.599  11.163  68.053  1.00  0.00     0.000 HD 
HETATM    8  C   UNL     1     -10.452  14.770  67.027  1.00  0.00    -0.270 A  
HETATM    9  C   UNL     1     -11.026  15.296  65.863  1.00  0.00    -0.325 A  
HETATM   10  C   UNL     1     -11.907  14.492  65.118  1.00  0.00    -0.374 A  
BRANCH   9  11
HETATM   11  C   UNL     1     -10.723  16.716  65.442  1.00  0.00    -0.228 C  
BRANCH  11  12
HETATM   12  C   UNL     1     -10.182  17.549  66.571  1.00  0.00    -0.342 C  
HETATM   13  C   UNL     1     -10.430  18.856  66.736  1.00  0.00    -0.497 C  
ENDBRANCH  11  12
ENDBRANCH   9  11
ENDBRANCH   2   3
TORSDOF 3
ENDMDL
MODEL       21
REMARK 921   NORMALIZED FREE ENERGY PREDICTED BY IDOCK:   -4.32 KCAL/MOL
REMARK 922        TOTAL FREE ENERGY PREDICTED BY IDOCK:   -5.27 KCAL/MOL
REMARK 923 INTER-LIGAND FREE ENERGY PREDICTED BY IDOCK:   -5.01 KCAL/MOL
REMARK 924 INTRA-LIGAND FREE ENERGY PREDICTED BY IDOCK:   -0.26 KCAL/MOL
REMARK 927      BINDING AFFINITY PREDICTED BY RF-SCORE:    0.00 PKD
ROOT
HETATM    1  C   UNL     1     -10.386  10.269  69.562  1.00  0.00    -0.242 C  
HETATM    2  O   UNL     1     -11.555  10.860  69.002  1.00  0.00    -0.274 OA 
ENDROOT
BRANCH   2   3
HETATM    3  C   UNL     1     -11.829  12.155  69.349  1.00  0.00    -0.309 A  
HETATM    4  C   UNL     1     -11.534  13.302  68.608  1.00  0.00    -0.304 A  
HETATM    5  O   UNL     1     -10.852  13.277  67.424  1.00  0.00    -0.261 OA 
HETATM    6  C   UNL     1     -11.858  14.568  69.090  1.00  0.00    -0.354 A  
HETATM    7  H   UNL     1     -10.651  14.056  66.920  1.00  0.00     0.000 HD 
HETATM    8  C   UNL     1     -12.437  14.710  70.349  1.00  0.00    -0.410 A  
HETATM    9  C   UNL     1     -12.718  13.581  71.128  1.00  0.00    -0.425 A  
HETATM   10  C   UNL     1     -12.408  12.308  70.615  1.00  0.00    -0.375 A  
BRANCH   9  11
HETATM   11  C   UNL     1     -13.313  13.740  72.508  1.00  0.00    -0.656 C  
BRANCH  11  12
HETATM   12  C   UNL     1     -13.169  15.139  73.041  1.00  0.00    -0.604 C  
HETATM   13  C   UNL     1     -12.379  15.483  74.067  1.00  0.00    -0.791 C  
ENDBRANCH  11  12
ENDBRANCH   9  11
ENDBRANCH   2   3
TORSDOF 3
ENDMDL
MODEL       22
REMARK 921   NORMALIZED FREE ENERGY PREDICTED BY IDOCK:   -4.25 KCAL/MOL
REMARK 922        TOTAL FREE ENERGY PREDICTED BY IDOCK:   -5.19 KCAL/MOL
REMARK 923 INTER-LIGAND FREE ENERGY PREDICTED BY IDOCK:   -4.96 KCAL/MOL
REMARK 924 INTRA-LIGAND FREE ENERGY PREDICTED BY IDOCK:   -0.23 KCAL/MOL
REMARK 927      BINDING AFFINITY PREDICTED BY RF-SCORE:    0.00 PKD
ROOT
HETATM    1  C   UNL     1     -12.543   8.846  71.705  1.00  0.00    -0.346 C  
HETATM    2  O   UNL     1     -13.253  10.022  72.081  1.00  0.00    -0.442 OA 
ENDROOT
BRANCH   2   3
HETATM    3  C   UNL     1     -12.879  11.196  71.484  1.00  0.00    -0.437 A  
HETATM    4  C   UNL     1     -13.209  12.489  71.897  1.00  0.00    -0.392 A  
HETATM    5  O   UNL     1     -14.033  12.752  72.955  1.00  0.00    -0.605 OA 
HETATM    6  C   UNL     1     -12.770  13.602  71.184  1.00  0.00    -0.432 A  
HETATM    7  H   UNL     1     -14.258  13.631  73.236  1.00  0.00     0.000 HD 
HETATM    8  C   UNL     1     -12.033  13.436  70.013  1.00  0.00    -0.407 A  
HETATM    9  C   UNL     1     -11.711  12.152  69.558  1.00  0.00    -0.402 A  
HETATM   10  C   UNL     1     -12.140  11.040  70.304  1.00  0.00    -0.448 A  
BRANCH   9  11
HETATM   11  C   UNL     1     -10.942  11.974  68.269  1.00  0.00    -0.275 C  
BRANCH  11  12
HETATM   12  C   UNL     1     -11.769  12.299  67.055  1.00  0.00    -0.399 C  
HETATM   13  C   UNL     1     -11.587  13.377  66.279  1.00  0.00    -0.378 C  
ENDBRANCH  11  12
ENDBRANCH   9  11
ENDBRANCH   2   3
TORSDOF 3
ENDMDL
MODEL       23
REMARK 921   NORMALIZED FREE ENERGY PREDICTED BY IDOCK:   -4.21 KCAL/MOL
REMARK 922        TOTAL FREE ENERGY PREDICTED BY IDOCK:   -5.14 KCAL/MOL
REMARK 923 INTER-LIGAND FREE ENERGY PREDICTED BY IDOCK:   -5.02 KCAL/MOL
REMARK 924 INTRA-LIGAND FREE ENERGY PREDICTED BY IDOCK:   -0.12 KCAL/MOL
REMARK 927      BINDING AFFINITY PREDICTED BY RF-SCORE:    0.00 PKD
ROOT
HETATM    1  C   UNL     1     -11.420  10.903  70.086  1.00  0.00    -0.319 C  
HETATM    2  O   UNL     1     -12.337  11.455  71.026  1.00  0.00    -0.369 OA 
ENDROOT
BRANCH   2   3
HETATM    3  C   UNL     1     -12.537  12.808  70.983  1.00  0.00    -0.271 A  
HETATM    4  C   UNL     1     -13.342  13.564  71.839  1.00  0.00    -0.443 A  
HETATM    5  O   UNL     1     -14.112  13.016  72.826  1.00  0.00    -0.737 OA 
HETATM    6  C   UNL     1     -13.468  14.941  71.672  1.00  0.00    -0.484 A  
HETATM    7  H   UNL     1     -14.660  13.529  73.407  1.00  0.00     0.000 HD 
HETATM    8  C   UNL     1     -12.827  15.579  70.611  1.00  0.00    -0.466 A  
HETATM    9  C   UNL     1     -12.037  14.843  69.720  1.00  0.00    -0.357 A  
HETATM   10  C   UNL     1     -11.899  13.458  69.919  1.00  0.00    -0.385 A  
BRANCH   9  11
HETATM   11  C   UNL     1     -11.372  15.531  68.550  1.00  0.00    -0.356 C  
BRANCH  11  12
HETATM   12  C   UNL     1     -11.175  14.612  67.376  1.00  0.00    -0.351 C  
HETATM   13  C   UNL     1     -12.155  14.208  66.555  1.00  0.00    -0.481 C  
ENDBRANCH  11  12
ENDBRANCH   9  11
ENDBRANCH   2   3
TORSDOF 3
ENDMDL
MODEL       24
REMARK 921   NORMALIZED FREE ENERGY PREDICTED BY IDOCK:   -4.18 KCAL/MOL
REMARK 922        TOTAL FREE ENERGY PREDICTED BY IDOCK:   -5.10 KCAL/MOL
REMARK 923 INTER-LIGAND FREE ENERGY PREDICTED BY IDOCK:   -4.90 KCAL/MOL
REMARK 924 INTRA-LIGAND FREE ENERGY PREDICTED BY IDOCK:   -0.21 KCAL/MOL
REMARK 927      BINDING AFFINITY PREDICTED BY RF-SCORE:    0.00 PKD
ROOT
HETATM    1  C   UNL     1     -12.953  15.928  73.821  1.00  0.00    -0.515 C  
HETATM    2  O   UNL     1     -13.800  15.556  72.738  1.00  0.00    -0.529 OA 
ENDROOT
BRANCH   2   3
HETATM    3  C   UNL     1     -13.257  14.761  71.765  1.00  0.00    -0.348 A  
HETATM    4  C   UNL     1     -13.169  13.367  71.775  1.00  0.00    -0.407 A  
HETATM    5  O   UNL     1     -13.573  12.595  72.828  1.00  0.00    -0.661 OA 
HETATM    6  C   UNL     1     -12.576  12.680  70.718  1.00  0.00    -0.302 A  
HETATM    7  H   UNL     1     -13.514  11.647  72.835  1.00  0.00     0.000 HD 
HETATM    8  C   UNL     1     -12.012  13.384  69.655  1.00  0.00    -0.386 A  
HETATM    9  C   UNL     1     -12.059  14.783  69.632  1.00  0.00    -0.346 A  
HETATM   10  C   UNL     1     -12.686  15.459  70.694  1.00  0.00    -0.490 A  
BRANCH   9  11
HETATM   11  C   UNL     1     -11.416  15.545  68.496  1.00  0.00    -0.369 C  
BRANCH  11  12
HETATM   12  C   UNL     1     -10.455  14.700  67.706  1.00  0.00    -0.246 C  
HETATM   13  C   UNL     1     -10.669  14.277  66.453  1.00  0.00    -0.297 C  
ENDBRANCH  11  12
ENDBRANCH   9  11
ENDBRANCH   2   3
TORSDOF 3
ENDMDL
MODEL       25
REMARK 921   NORMALIZED FREE ENERGY PREDICTED BY IDOCK:   -4.17 KCAL/MOL
REMARK 922        TOTAL FREE ENERGY PREDICTED BY IDOCK:   -5.09 KCAL/MOL
REMARK 923 INTER-LIGAND FREE ENERGY PREDICTED BY IDOCK:   -4.89 KCAL/MOL
REMARK 924 INTRA-LIGAND FREE ENERGY PREDICTED BY IDOCK:   -0.19 KCAL/MOL
REMARK 927      BINDING AFFINITY PREDICTED BY RF-SCORE:    0.00 PKD
ROOT
HETATM    1  C   UNL     1     -10.802  11.479  66.618  1.00  0.00    -0.287 C  
HETATM    2  O   UNL     1     -11.992  12.199  66.923  1.00  0.00    -0.603 OA 
ENDROOT
BRANCH   2   3
HETATM    3  C   UNL     1     -11.848  13.409  67.548  1.00  0.00    -0.366 A  
HETATM    4  C   UNL     1     -11.488  14.621  66.955  1.00  0.00    -0.368 A  
HETATM    5  O   UNL     1     -11.158  14.743  65.635  1.00  0.00    -0.324 OA 
HETATM    6  C   UNL     1     -11.363  15.780  67.717  1.00  0.00    -0.240 A  
HETATM    7  H   UNL     1     -10.913  15.567  65.232  1.00  0.00     0.000 HD 
HETATM    8  C   UNL     1     -11.549  15.734  69.098  1.00  0.00    -0.399 A  
HETATM    9  C   UNL     1     -11.882  14.528  69.724  1.00  0.00    -0.367 A  
HETATM   10  C   UNL     1     -12.030  13.371  68.937  1.00  0.00    -0.362 A  
BRANCH   9  11
HETATM   11  C   UNL     1     -12.048  14.472  71.225  1.00  0.00    -0.419 C  
BRANCH  11  12
HETATM   12  C   UNL     1     -12.337  15.822  71.824  1.00  0.00    -0.523 C  
HETATM   13  C   UNL     1     -12.357  16.081  73.138  1.00  0.00    -0.637 C  
ENDBRANCH  11  12
ENDBRANCH   9  11
ENDBRANCH   2   3
TORSDOF 3
ENDMDL
MODEL       26
REMARK 921   NORMALIZED FREE ENERGY PREDICTED BY IDOCK:   -4.13 KCAL/MOL
REMARK 922        TOTAL FREE ENERGY PREDICTED BY IDOCK:   -5.05 KCAL/MOL
REMARK 923 INTER-LIGAND FREE ENERGY PREDICTED BY IDOCK:   -4.83 KCAL/MOL
REMARK 924 INTRA-LIGAND FREE ENERGY PREDICTED BY IDOCK:   -0.21 KCAL/MOL
REMARK 927      BINDING AFFINITY PREDICTED BY RF-SCORE:    0.00 PKD
ROOT
HETATM    1  C   UNL     1     -10.890  12.378  68.543  1.00  0.00    -0.242 C  
HETATM    2  O   UNL     1     -11.876  12.922  67.671  1.00  0.00    -0.356 OA 
ENDROOT
BRANCH   2   3
HETATM    3  C   UNL     1     -11.745  12.654  66.335  1.00  0.00    -0.405 A  
HETATM    4  C   UNL     1     -12.498  13.200  65.293  1.00  0.00    -0.495 A  
HETATM    5  O   UNL     1     -13.544  14.058  65.490  1.00  0.00    -0.673 OA 
HETATM    6  C   UNL     1     -12.268  12.826  63.971  1.00  0.00    -0.518 A  
HETATM    7  H   UNL     1     -14.056  14.429  64.782  1.00  0.00     0.000 HD 
HETATM    8  C   UNL     1     -11.311  11.857  63.675  1.00  0.00    -0.536 A  
HETATM    9  C   UNL     1     -10.560  11.270  64.701  1.00  0.00    -0.392 A  
HETATM   10  C   UNL     1     -10.788  11.679  66.028  1.00  0.00    -0.339 A  
BRANCH   9  11
HETATM   11  C   UNL     1      -9.549  10.194  64.381  1.00  0.00    -0.366 C  
BRANCH  11  12
HETATM   12  C   UNL     1      -9.369   9.992  62.902  1.00  0.00    -0.290 C  
HETATM   13  C   UNL     1      -8.586   9.053  62.353  1.00  0.00    -0.220 C  
ENDBRANCH  11  12
ENDBRANCH   9  11
ENDBRANCH   2   3
TORSDOF 3
ENDMDL
MODEL       27
REMARK 921   NORMALIZED FREE ENERGY PREDICTED BY IDOCK:   -4.12 KCAL/MOL
REMARK 922        TOTAL FREE ENERGY PREDICTED BY IDOCK:   -5.04 KCAL/MOL
REMARK 923 INTER-LIGAND FREE ENERGY PREDICTED BY IDOCK:   -4.85 KCAL/MOL
REMARK 924 INTRA-LIGAND FREE ENERGY PREDICTED BY IDOCK:   -0.19 KCAL/MOL
REMARK 927      BINDING AFFINITY PREDICTED BY RF-SCORE:    0.00 PKD
ROOT
HETATM    1  C   UNL     1      -8.721  10.517  65.088  1.00  0.00    -0.185 C  
HETATM    2  O   UNL     1     -10.100  10.405  65.425  1.00  0.00    -0.277 OA 
ENDROOT
BRANCH   2   3
HETATM    3  C   UNL     1     -10.881  11.515  65.241  1.00  0.00    -0.259 A  
HETATM    4  C   UNL     1     -11.497  11.918  64.054  1.00  0.00    -0.398 A  
HETATM    5  O   UNL     1     -11.339  11.263  62.865  1.00  0.00    -0.826 OA 
HETATM    6  C   UNL     1     -12.257  13.084  64.003  1.00  0.00    -0.489 A  
HETATM    7  H   UNL     1     -11.758  11.537  62.058  1.00  0.00     0.000 HD 
HETATM    8  C   UNL     1     -12.371  13.896  65.130  1.00  0.00    -0.471 A  
HETATM    9  C   UNL     1     -11.740  13.533  66.326  1.00  0.00    -0.401 A  
HETATM   10  C   UNL     1     -10.998  12.338  66.368  1.00  0.00    -0.326 A  
BRANCH   9  11
HETATM   11  C   UNL     1     -11.834  14.432  67.537  1.00  0.00    -0.418 C  
BRANCH  11  12
HETATM   12  C   UNL     1     -11.915  13.659  68.825  1.00  0.00    -0.394 C  
HETATM   13  C   UNL     1     -12.332  14.169  69.992  1.00  0.00    -0.403 C  
ENDBRANCH  11  12
ENDBRANCH   9  11
ENDBRANCH   2   3
TORSDOF 3
ENDMDL
MODEL       28
REMARK 921   NORMALIZED FREE ENERGY PREDICTED BY IDOCK:   -4.12 KCAL/MOL
REMARK 922        TOTAL FREE ENERGY PREDICTED BY IDOCK:   -5.03 KCAL/MOL
REMARK 923 INTER-LIGAND FREE ENERGY PREDICTED BY IDOCK:   -4.85 KCAL/MOL
REMARK 924 INTRA-LIGAND FREE ENERGY PREDICTED BY IDOCK:   -0.18 KCAL/MOL
REMARK 927      BINDING AFFINITY PREDICTED BY RF-SCORE:    0.00 PKD
ROOT
HETATM    1  C   UNL     1     -11.020  15.932  64.887  1.00  0.00    -0.411 C  
HETATM    2  O   UNL     1     -10.748  17.327  64.973  1.00  0.00    -0.708 OA 
ENDROOT
BRANCH   2   3
HETATM    3  C   UNL     1     -10.556  17.850  66.224  1.00  0.00    -0.240 A  
HETATM    4  C   UNL     1     -10.232  19.172  66.539  1.00  0.00    -0.429 A  
HETATM    5  O   UNL     1      -9.994  20.132  65.596  1.00  0.00    -0.512 OA 
HETATM    6  C   UNL     1     -10.051  19.569  67.862  1.00  0.00    -0.531 A  
HETATM    7  H   UNL     1      -9.774  21.031  65.810  1.00  0.00     0.000 HD 
HETATM    8  C   UNL     1     -10.141  18.633  68.891  1.00  0.00    -0.357 A  
HETATM    9  C   UNL     1     -10.436  17.295  68.604  1.00  0.00    -0.356 A  
HETATM   10  C   UNL     1     -10.642  16.917  67.265  1.00  0.00    -0.270 A  
BRANCH   9  11
HETATM   11  C   UNL     1     -10.498  16.276  69.718  1.00  0.00    -0.260 C  
BRANCH  11  12
HETATM   12  C   UNL     1     -11.828  15.577  69.788  1.00  0.00    -0.376 C  
HETATM   13  C   UNL     1     -12.063  14.460  70.490  1.00  0.00    -0.404 C  
ENDBRANCH  11  12
ENDBRANCH   9  11
ENDBRANCH   2   3
TORSDOF 3
ENDMDL
MODEL       29
REMARK 921   NORMALIZED FREE ENERGY PREDICTED BY IDOCK:   -4.09 KCAL/MOL
REMARK 922        TOTAL FREE ENERGY PREDICTED BY IDOCK:   -5.00 KCAL/MOL
REMARK 923 INTER-LIGAND FREE ENERGY PREDICTED BY IDOCK:   -4.78 KCAL/MOL
REMARK 924 INTRA-LIGAND FREE ENERGY PREDICTED BY IDOCK:   -0.22 KCAL/MOL
REMARK 927      BINDING AFFINITY PREDICTED BY RF-SCORE:    0.00 PKD
ROOT
HETATM    1  C   UNL     1     -11.276  16.031  70.332  1.00  0.00    -0.387 C  
HETATM    2  O   UNL     1     -12.378  15.365  69.724  1.00  0.00    -0.324 OA 
ENDROOT
BRANCH   2   3
HETATM    3  C   UNL     1     -12.098  14.260  68.965  1.00  0.00    -0.285 A  
HETATM    4  C   UNL     1     -11.963  12.946  69.416  1.00  0.00    -0.269 A  
HETATM    5  O   UNL     1     -12.033  12.592  70.734  1.00  0.00    -0.494 OA 
HETATM    6  C   UNL     1     -11.662  11.913  68.531  1.00  0.00    -0.388 A  
HETATM    7  H   UNL     1     -11.941  11.698  71.042  1.00  0.00     0.000 HD 
HETATM    8  C   UNL     1     -11.439  12.189  67.183  1.00  0.00    -0.413 A  
HETATM    9  C   UNL     1     -11.539  13.502  66.707  1.00  0.00    -0.397 A  
HETATM   10  C   UNL     1     -11.870  14.529  67.609  1.00  0.00    -0.395 A  
BRANCH   9  11
HETATM   11  C   UNL     1     -11.262  13.804  65.252  1.00  0.00    -0.311 C  
BRANCH  11  12
HETATM   12  C   UNL     1     -12.272  13.178  64.330  1.00  0.00    -0.462 C  
HETATM   13  C   UNL     1     -12.042  12.097  63.573  1.00  0.00    -0.649 C  
ENDBRANCH  11  12
ENDBRANCH   9  11
ENDBRANCH   2   3
TORSDOF 3
ENDMDL
MODEL       30
REMARK 921   NORMALIZED FREE ENERGY PREDICTED BY IDOCK:   -4.09 KCAL/MOL
REMARK 922        TOTAL FREE ENERGY PREDICTED BY IDOCK:   -5.00 KCAL/MOL
REMARK 923 INTER-LIGAND FREE ENERGY PREDICTED BY IDOCK:   -4.85 KCAL/MOL
REMARK 924 INTRA-LIGAND FREE ENERGY PREDICTED BY IDOCK:   -0.15 KCAL/MOL
REMARK 927      BINDING AFFINITY PREDICTED BY RF-SCORE:    0.00 PKD
ROOT
HETATM    1  C   UNL     1      -9.935  11.265  63.214  1.00  0.00    -0.393 C  
HETATM    2  O   UNL     1     -11.140  12.025  63.228  1.00  0.00    -0.384 OA 
ENDROOT
BRANCH   2   3
HETATM    3  C   UNL     1     -11.521  12.570  64.425  1.00  0.00    -0.349 A  
HETATM    4  C   UNL     1     -12.224  13.762  64.616  1.00  0.00    -0.406 A  
HETATM    5  O   UNL     1     -12.579  14.597  63.595  1.00  0.00    -1.017 OA 
HETATM    6  C   UNL     1     -12.537  14.210  65.897  1.00  0.00    -0.447 A  
HETATM    7  H   UNL     1     -13.058  15.408  63.725  1.00  0.00     0.000 HD 
HETATM    8  C   UNL     1     -12.103  13.497  67.013  1.00  0.00    -0.401 A  
HETATM    9  C   UNL     1     -11.371  12.314  66.853  1.00  0.00    -0.392 A  
HETATM   10  C   UNL     1     -11.087  11.862  65.552  1.00  0.00    -0.356 A  
BRANCH   9  11
HETATM   11  C   UNL     1     -10.871  11.561  68.065  1.00  0.00    -0.259 C  
BRANCH  11  12
HETATM   12  C   UNL     1      -9.882  10.486  67.708  1.00  0.00    -0.188 C  
HETATM   13  C   UNL     1     -10.155   9.174  67.705  1.00  0.00    -0.253 C  
ENDBRANCH  11  12
ENDBRANCH   9  11
ENDBRANCH   2   3
TORSDOF 3
ENDMDL
MODEL       31
REMARK 921   NORMALIZED FREE ENERGY PREDICTED BY IDOCK:   -4.09 KCAL/MOL
REMARK 922        TOTAL FREE ENERGY PREDICTED BY IDOCK:   -5.00 KCAL/MOL
REMARK 923 INTER-LIGAND FREE ENERGY PREDICTED BY IDOCK:   -4.78 KCAL/MOL
REMARK 924 INTRA-LIGAND FREE ENERGY PREDICTED BY IDOCK:   -0.22 KCAL/MOL
REMARK 927      BINDING AFFINITY PREDICTED BY RF-SCORE:    0.00 PKD
ROOT
HETATM    1  C   UNL     1     -10.088   9.162  68.676  1.00  0.00    -0.194 C  
HETATM    2  O   UNL     1     -10.490   8.453  69.844  1.00  0.00    -0.214 OA 
ENDROOT
BRANCH   2   3
HETATM    3  C   UNL     1     -11.450   9.034  70.628  1.00  0.00    -0.248 A  
HETATM    4  C   UNL     1     -12.348   8.380  71.475  1.00  0.00    -0.309 A  
HETATM    5  O   UNL     1     -12.426   7.021  71.583  1.00  0.00    -0.341 OA 
HETATM    6  C   UNL     1     -13.289   9.098  72.210  1.00  0.00    -0.540 A  
HETATM    7  H   UNL     1     -13.037   6.576  72.159  1.00  0.00     0.000 HD 
HETATM    8  C   UNL     1     -13.381  10.482  72.069  1.00  0.00    -0.420 A  
HETATM    9  C   UNL     1     -12.513  11.161  71.206  1.00  0.00    -0.466 A  
HETATM   10  C   UNL     1     -11.551  10.424  70.491  1.00  0.00    -0.433 A  
BRANCH   9  11
HETATM   11  C   UNL     1     -12.637  12.657  71.028  1.00  0.00    -0.354 C  
BRANCH  11  12
HETATM   12  C   UNL     1     -13.478  13.297  72.098  1.00  0.00    -0.655 C  
HETATM   13  C   UNL     1     -14.085  14.486  71.977  1.00  0.00    -0.606 C  
ENDBRANCH  11  12
ENDBRANCH   9  11
ENDBRANCH   2   3
TORSDOF 3
ENDMDL
MODEL       32
REMARK 921   NORMALIZED FREE ENERGY PREDICTED BY IDOCK:   -4.06 KCAL/MOL
REMARK 922        TOTAL FREE ENERGY PREDICTED BY IDOCK:   -4.97 KCAL/MOL
REMARK 923 INTER-LIGAND FREE ENERGY PREDICTED BY IDOCK:   -4.74 KCAL/MOL
REMARK 924 INTRA-LIGAND FREE ENERGY PREDICTED BY IDOCK:   -0.23 KCAL/MOL
REMARK 927      BINDING AFFINITY PREDICTED BY RF-SCORE:    0.00 PKD
ROOT
HETATM    1  C   UNL     1     -11.168  11.262  67.420  1.00  0.00    -0.303 C  
HETATM    2  O   UNL     1     -12.161  12.273  67.284  1.00  0.00    -0.548 OA 
ENDROOT
BRANCH   2   3
HETATM    3  C   UNL     1     -11.857  13.345  66.488  1.00  0.00    -0.396 A  
HETATM    4  C   UNL     1     -12.247  13.541  65.162  1.00  0.00    -0.428 A  
HETATM    5  O   UNL     1     -12.957  12.620  64.443  1.00  0.00    -0.740 OA 
HETATM    6  C   UNL     1     -11.852  14.678  64.460  1.00  0.00    -0.442 A  
HETATM    7  H   UNL     1     -13.222  12.753  63.541  1.00  0.00     0.000 HD 
HETATM    8  C   UNL     1     -11.015  15.616  65.062  1.00  0.00    -0.445 A  
HETATM    9  C   UNL     1     -10.584  15.432  66.381  1.00  0.00    -0.307 A  
HETATM   10  C   UNL     1     -11.013  14.291  67.084  1.00  0.00    -0.305 A  
BRANCH   9  11
HETATM   11  C   UNL     1      -9.647  16.432  67.020  1.00  0.00    -0.244 C  
BRANCH  11  12
HETATM   12  C   UNL     1      -8.374  16.611  66.238  1.00  0.00    -0.360 C  
HETATM   13  C   UNL     1      -7.741  17.781  66.076  1.00  0.00    -0.223 C  
ENDBRANCH  11  12
ENDBRANCH   9  11
ENDBRANCH   2   3
TORSDOF 3
ENDMDL
MODEL       33
REMARK 921   NORMALIZED FREE ENERGY PREDICTED BY IDOCK:   -4.05 KCAL/MOL
REMARK 922        TOTAL FREE ENERGY PREDICTED BY IDOCK:   -4.96 KCAL/MOL
REMARK 923 INTER-LIGAND FREE ENERGY PREDICTED BY IDOCK:   -4.77 KCAL/MOL
REMARK 924 INTRA-LIGAND FREE ENERGY PREDICTED BY IDOCK:   -0.18 KCAL/MOL
REMARK 927      BINDING AFFINITY PREDICTED BY RF-SCORE:    0.00 PKD
ROOT
HETATM    1  C   UNL     1     -10.644  17.192  67.862  1.00  0.00    -0.376 C  
HETATM    2  O   UNL     1     -10.731  17.076  69.279  1.00  0.00    -0.323 OA 
ENDROOT
BRANCH   2   3
HETATM    3  C   UNL     1     -11.289  15.930  69.779  1.00  0.00    -0.347 A  
HETATM    4  C   UNL     1     -11.792  15.737  71.067  1.00  0.00    -0.420 A  
HETATM    5  O   UNL     1     -11.729  16.685  72.049  1.00  0.00    -0.616 OA 
HETATM    6  C   UNL     1     -12.322  14.507  71.451  1.00  0.00    -0.425 A  
HETATM    7  H   UNL     1     -12.071  16.553  72.926  1.00  0.00     0.000 HD 
HETATM    8  C   UNL     1     -12.311  13.432  70.563  1.00  0.00    -0.401 A  
HETATM    9  C   UNL     1     -11.787  13.588  69.274  1.00  0.00    -0.392 A  
HETATM   10  C   UNL     1     -11.279  14.844  68.895  1.00  0.00    -0.282 A  
BRANCH   9  11
HETATM   11  C   UNL     1     -11.743  12.413  68.325  1.00  0.00    -0.398 C  
BRANCH  11  12
HETATM   12  C   UNL     1     -11.598  12.835  66.889  1.00  0.00    -0.428 C  
HETATM   13  C   UNL     1     -11.656  12.001  65.843  1.00  0.00    -0.364 C  
ENDBRANCH  11  12
ENDBRANCH   9  11
ENDBRANCH   2   3
TORSDOF 3
ENDMDL
MODEL       34
REMARK 921   NORMALIZED FREE ENERGY PREDICTED BY IDOCK:   -4.04 KCAL/MOL
REMARK 922        TOTAL FREE ENERGY PREDICTED BY IDOCK:   -4.94 KCAL/MOL
REMARK 923 INTER-LIGAND FREE ENERGY PREDICTED BY IDOCK:   -4.73 KCAL/MOL
REMARK 924 INTRA-LIGAND FREE ENERGY PREDICTED BY IDOCK:   -0.21 KCAL/MOL
REMARK 927      BINDING AFFINITY PREDICTED BY RF-SCORE:    0.00 PKD
ROOT
HETATM    1  C   UNL     1     -11.690  15.154  71.415  1.00  0.00    -0.374 C  
HETATM    2  O   UNL     1     -11.659  16.303  70.575  1.00  0.00    -0.343 OA 
ENDROOT
BRANCH   2   3
HETATM    3  C   UNL     1     -11.286  16.115  69.272  1.00  0.00    -0.337 A  
HETATM    4  C   UNL     1     -10.616  17.026  68.452  1.00  0.00    -0.375 A  
HETATM    5  O   UNL     1     -10.292  18.294  68.845  1.00  0.00    -0.430 OA 
HETATM    6  C   UNL     1     -10.308  16.708  67.131  1.00  0.00    -0.300 A  
HETATM    7  H   UNL     1      -9.837  18.914  68.288  1.00  0.00     0.000 HD 
HETATM    8  C   UNL     1     -10.713  15.488  66.593  1.00  0.00    -0.306 A  
HETATM    9  C   UNL     1     -11.412  14.566  67.381  1.00  0.00    -0.385 A  
HETATM   10  C   UNL     1     -11.691  14.893  68.721  1.00  0.00    -0.353 A  
BRANCH   9  11
HETATM   11  C   UNL     1     -11.881  13.259  66.785  1.00  0.00    -0.448 C  
BRANCH  11  12
HETATM   12  C   UNL     1     -12.440  13.425  65.399  1.00  0.00    -0.543 C  
HETATM   13  C   UNL     1     -12.422  12.475  64.454  1.00  0.00    -0.530 C  
ENDBRANCH  11  12
ENDBRANCH   9  11
ENDBRANCH   2   3
TORSDOF 3
ENDMDL
MODEL       35
REMARK 921   NORMALIZED FREE ENERGY PREDICTED BY IDOCK:   -4.03 KCAL/MOL
REMARK 922        TOTAL FREE ENERGY PREDICTED BY IDOCK:   -4.93 KCAL/MOL
REMARK 923 INTER-LIGAND FREE ENERGY PREDICTED BY IDOCK:   -4.80 KCAL/MOL
REMARK 924 INTRA-LIGAND FREE ENERGY PREDICTED BY IDOCK:   -0.13 KCAL/MOL
REMARK 927      BINDING AFFINITY PREDICTED BY RF-SCORE:    0.00 PKD
ROOT
HETATM    1  C   UNL     1     -11.058  10.336  69.481  1.00  0.00    -0.262 C  
HETATM    2  O   UNL     1     -12.084  11.047  68.795  1.00  0.00    -0.518 OA 
ENDROOT
BRANCH   2   3
HETATM    3  C   UNL     1     -11.851  12.367  68.518  1.00  0.00    -0.304 A  
HETATM    4  C   UNL     1     -11.761  13.413  69.438  1.00  0.00    -0.325 A  
HETATM    5  O   UNL     1     -11.965  13.254  70.780  1.00  0.00    -0.501 OA 
HETATM    6  C   UNL     1     -11.533  14.721  69.015  1.00  0.00    -0.316 A  
HETATM    7  H   UNL     1     -11.904  13.966  71.406  1.00  0.00     0.000 HD 
HETATM    8  C   UNL     1     -11.443  15.010  67.654  1.00  0.00    -0.344 A  
HETATM    9  C   UNL     1     -11.558  13.986  66.706  1.00  0.00    -0.406 A  
HETATM   10  C   UNL     1     -11.762  12.668  67.152  1.00  0.00    -0.438 A  
BRANCH   9  11
HETATM   11  C   UNL     1     -11.495  14.307  65.231  1.00  0.00    -0.344 C  
BRANCH  11  12
HETATM   12  C   UNL     1     -12.251  13.313  64.392  1.00  0.00    -0.449 C  
HETATM   13  C   UNL     1     -11.695  12.532  63.456  1.00  0.00    -0.595 C  
ENDBRANCH  11  12
ENDBRANCH   9  11
ENDBRANCH   2   3
TORSDOF 3
ENDMDL
MODEL       36
REMARK 921   NORMALIZED FREE ENERGY PREDICTED BY IDOCK:   -4.03 KCAL/MOL
REMARK 922        TOTAL FREE ENERGY PREDICTED BY IDOCK:   -4.93 KCAL/MOL
REMARK 923 INTER-LIGAND FREE ENERGY PREDICTED BY IDOCK:   -4.74 KCAL/MOL
REMARK 924 INTRA-LIGAND FREE ENERGY PREDICTED BY IDOCK:   -0.19 KCAL/MOL
REMARK 927      BINDING AFFINITY PREDICTED BY RF-SCORE:    0.00 PKD
ROOT
HETATM    1  C   UNL     1     -10.534  18.925  66.022  1.00  0.00    -0.446 C  
HETATM    2  O   UNL     1     -10.919  18.062  64.957  1.00  0.00    -0.748 OA 
ENDROOT
BRANCH   2   3
HETATM    3  C   UNL     1     -10.684  16.723  65.120  1.00  0.00    -0.143 A  
HETATM    4  C   UNL     1     -11.353  15.672  64.489  1.00  0.00    -0.320 A  
HETATM    5  O   UNL     1     -12.410  15.854  63.643  1.00  0.00    -1.066 OA 
HETATM    6  C   UNL     1     -11.020  14.347  64.761  1.00  0.00    -0.409 A  
HETATM    7  H   UNL     1     -12.865  15.139  63.213  1.00  0.00     0.000 HD 
HETATM    8  C   UNL     1     -10.044  14.051  65.710  1.00  0.00    -0.345 A  
HETATM    9  C   UNL     1      -9.376  15.083  66.381  1.00  0.00    -0.334 A  
HETATM   10  C   UNL     1      -9.707  16.416  66.075  1.00  0.00    -0.356 A  
BRANCH   9  11
HETATM   11  C   UNL     1      -8.344  14.760  67.436  1.00  0.00    -0.218 C  
BRANCH  11  12
HETATM   12  C   UNL     1      -7.641  15.986  67.950  1.00  0.00    -0.144 C  
HETATM   13  C   UNL     1      -7.106  16.097  69.174  1.00  0.00    -0.209 C  
ENDBRANCH  11  12
ENDBRANCH   9  11
ENDBRANCH   2   3
TORSDOF 3
ENDMDL
MODEL       37
REMARK 921   NORMALIZED FREE ENERGY PREDICTED BY IDOCK:   -4.03 KCAL/MOL
REMARK 922        TOTAL FREE ENERGY PREDICTED BY IDOCK:   -4.93 KCAL/MOL
REMARK 923 INTER-LIGAND FREE ENERGY PREDICTED BY IDOCK:   -4.69 KCAL/MOL
REMARK 924 INTRA-LIGAND FREE ENERGY PREDICTED BY IDOCK:   -0.23 KCAL/MOL
REMARK 927      BINDING AFFINITY PREDICTED BY RF-SCORE:    0.00 PKD
ROOT
HETATM    1  C   UNL     1     -14.255   8.478  71.940  1.00  0.00    -0.455 C  
HETATM    2  O   UNL     1     -13.613   9.580  72.574  1.00  0.00    -0.433 OA 
ENDROOT
BRANCH   2   3
HETATM    3  C   UNL     1     -13.053  10.529  71.762  1.00  0.00    -0.464 A  
HETATM    4  C   UNL     1     -13.200  11.914  71.866  1.00  0.00    -0.362 A  
HETATM    5  O   UNL     1     -14.006  12.517  72.790  1.00  0.00    -0.577 OA 
HETATM    6  C   UNL     1     -12.581  12.769  70.957  1.00  0.00    -0.362 A  
HETATM    7  H   UNL     1     -14.106  13.459  72.860  1.00  0.00     0.000 HD 
HETATM    8  C   UNL     1     -11.843  12.247  69.895  1.00  0.00    -0.383 A  
HETATM    9  C   UNL     1     -11.702  10.862  69.749  1.00  0.00    -0.413 A  
HETATM   10  C   UNL     1     -12.312  10.014  70.690  1.00  0.00    -0.342 A  
BRANCH   9  11
HETATM   11  C   UNL     1     -10.932  10.298  68.577  1.00  0.00    -0.294 C  
BRANCH  11  12
HETATM   12  C   UNL     1     -11.077  11.133  67.335  1.00  0.00    -0.370 C  
HETATM   13  C   UNL     1     -10.054  11.674  66.660  1.00  0.00    -0.238 C  
ENDBRANCH  11  12
ENDBRANCH   9  11
ENDBRANCH   2   3
TORSDOF 3
ENDMDL
MODEL       38
REMARK 921   NORMALIZED FREE ENERGY PREDICTED BY IDOCK:   -4.02 KCAL/MOL
REMARK 922        TOTAL FREE ENERGY PREDICTED BY IDOCK:   -4.92 KCAL/MOL
REMARK 923 INTER-LIGAND FREE ENERGY PREDICTED BY IDOCK:   -4.84 KCAL/MOL
REMARK 924 INTRA-LIGAND FREE ENERGY PREDICTED BY IDOCK:   -0.08 KCAL/MOL
REMARK 927      BINDING AFFINITY PREDICTED BY RF-SCORE:    0.00 PKD
ROOT
HETATM    1  C   UNL     1     -12.068  14.735  64.540  1.00  0.00    -0.446 C  
HETATM    2  O   UNL     1     -10.972  14.692  65.448  1.00  0.00    -0.316 OA 
ENDROOT
BRANCH   2   3
HETATM    3  C   UNL     1     -11.227  14.243  66.716  1.00  0.00    -0.332 A  
HETATM    4  C   UNL     1     -11.661  12.967  67.081  1.00  0.00    -0.377 A  
HETATM    5  O   UNL     1     -11.957  11.986  66.177  1.00  0.00    -0.581 OA 
HETATM    6  C   UNL     1     -11.898  12.647  68.416  1.00  0.00    -0.347 A  
HETATM    7  H   UNL     1     -12.252  11.118  66.425  1.00  0.00     0.000 HD 
HETATM    8  C   UNL     1     -11.753  13.618  69.405  1.00  0.00    -0.379 A  
HETATM    9  C   UNL     1     -11.348  14.915  69.066  1.00  0.00    -0.310 A  
HETATM   10  C   UNL     1     -11.087  15.214  67.716  1.00  0.00    -0.313 A  
BRANCH   9  11
HETATM   11  C   UNL     1     -11.226  15.976  70.135  1.00  0.00    -0.376 C  
BRANCH  11  12
HETATM   12  C   UNL     1     -12.185  15.761  71.273  1.00  0.00    -0.491 C  
HETATM   13  C   UNL     1     -11.819  15.537  72.542  1.00  0.00    -0.572 C  
ENDBRANCH  11  12
ENDBRANCH   9  11
ENDBRANCH   2   3
TORSDOF 3
ENDMDL
MODEL       39
REMARK 921   NORMALIZED FREE ENERGY PREDICTED BY IDOCK:   -4.00 KCAL/MOL
REMARK 922        TOTAL FREE ENERGY PREDICTED BY IDOCK:   -4.89 KCAL/MOL
REMARK 923 INTER-LIGAND FREE ENERGY PREDICTED BY IDOCK:   -4.64 KCAL/MOL
REMARK 924 INTRA-LIGAND FREE ENERGY PREDICTED BY IDOCK:   -0.25 KCAL/MOL
REMARK 927      BINDING AFFINITY PREDICTED BY RF-SCORE:    0.00 PKD
ROOT
HETATM    1  C   UNL     1      -9.945  10.515  66.431  1.00  0.00    -0.218 C  
HETATM    2  O   UNL     1     -10.265  10.821  65.078  1.00  0.00    -0.284 OA 
ENDROOT
BRANCH   2   3
HETATM    3  C   UNL     1     -10.853  12.033  64.833  1.00  0.00    -0.301 A  
HETATM    4  C   UNL     1     -11.873  12.299  63.916  1.00  0.00    -0.464 A  
HETATM    5  O   UNL     1     -12.388  11.358  63.071  1.00  0.00    -0.952 OA 
HETATM    6  C   UNL     1     -12.372  13.590  63.757  1.00  0.00    -0.392 A  
HETATM    7  H   UNL     1     -13.082  11.539  62.447  1.00  0.00     0.000 HD 
HETATM    8  C   UNL     1     -11.821  14.647  64.479  1.00  0.00    -0.442 A  
HETATM    9  C   UNL     1     -10.778  14.416  65.383  1.00  0.00    -0.359 A  
HETATM   10  C   UNL     1     -10.304  13.102  65.551  1.00  0.00    -0.299 A  
BRANCH   9  11
HETATM   11  C   UNL     1     -10.158  15.569  66.138  1.00  0.00    -0.329 C  
BRANCH  11  12
HETATM   12  C   UNL     1     -10.277  15.413  67.629  1.00  0.00    -0.246 C  
HETATM   13  C   UNL     1     -11.437  15.333  68.295  1.00  0.00    -0.359 C  
ENDBRANCH  11  12
ENDBRANCH   9  11
ENDBRANCH   2   3
TORSDOF 3
ENDMDL
MODEL       40
REMARK 921   NORMALIZED FREE ENERGY PREDICTED BY IDOCK:   -3.99 KCAL/MOL
REMARK 922        TOTAL FREE ENERGY PREDICTED BY IDOCK:   -4.88 KCAL/MOL
REMARK 923 INTER-LIGAND FREE ENERGY PREDICTED BY IDOCK:   -4.74 KCAL/MOL
REMARK 924 INTRA-LIGAND FREE ENERGY PREDICTED BY IDOCK:   -0.13 KCAL/MOL
REMARK 927      BINDING AFFINITY PREDICTED BY RF-SCORE:    0.00 PKD
ROOT
HETATM    1  C   UNL     1     -10.781  18.329  67.692  1.00  0.00    -0.348 C  
HETATM    2  O   UNL     1     -10.137  17.382  68.538  1.00  0.00    -0.309 OA 
ENDROOT
BRANCH   2   3
HETATM    3  C   UNL     1     -10.786  16.197  68.758  1.00  0.00    -0.310 A  
HETATM    4  C   UNL     1     -10.956  15.152  67.846  1.00  0.00    -0.302 A  
HETATM    5  O   UNL     1     -10.533  15.211  66.548  1.00  0.00    -0.278 OA 
HETATM    6  C   UNL     1     -11.655  14.001  68.199  1.00  0.00    -0.369 A  
HETATM    7  H   UNL     1     -10.648  14.501  65.928  1.00  0.00     0.000 HD 
HETATM    8  C   UNL     1     -12.242  13.897  69.459  1.00  0.00    -0.356 A  
HETATM    9  C   UNL     1     -12.114  14.940  70.384  1.00  0.00    -0.386 A  
HETATM   10  C   UNL     1     -11.382  16.085  70.020  1.00  0.00    -0.353 A  
BRANCH   9  11
HETATM   11  C   UNL     1     -12.781  14.841  71.737  1.00  0.00    -0.396 C  
BRANCH  11  12
HETATM   12  C   UNL     1     -11.992  15.522  72.821  1.00  0.00    -0.573 C  
HETATM   13  C   UNL     1     -12.500  15.916  73.997  1.00  0.00    -0.764 C  
ENDBRANCH  11  12
ENDBRANCH   9  11
ENDBRANCH   2   3
TORSDOF 3
ENDMDL
MODEL       41
REMARK 921   NORMALIZED FREE ENERGY PREDICTED BY IDOCK:   -3.98 KCAL/MOL
REMARK 922        TOTAL FREE ENERGY PREDICTED BY IDOCK:   -4.86 KCAL/MOL
REMARK 923 INTER-LIGAND FREE ENERGY PREDICTED BY IDOCK:   -4.68 KCAL/MOL
REMARK 924 INTRA-LIGAND FREE ENERGY PREDICTED BY IDOCK:   -0.19 KCAL/MOL
REMARK 927      BINDING AFFINITY PREDICTED BY RF-SCORE:    0.00 PKD
ROOT
HETATM    1  C   UNL     1     -11.114   6.116  69.632  1.00  0.00    -0.419 C  
HETATM    2  O   UNL     1     -10.832   6.826  70.833  1.00  0.00    -0.234 OA 
ENDROOT
BRANCH   2   3
HETATM    3  C   UNL     1     -11.701   7.821  71.191  1.00  0.00    -0.284 A  
HETATM    4  C   UNL     1     -12.886   7.678  71.916  1.00  0.00    -0.282 A  
HETATM    5  O   UNL     1     -13.378   6.470  72.321  1.00  0.00    -0.527 OA 
HETATM    6  C   UNL     1     -13.689   8.781  72.199  1.00  0.00    -0.498 A  
HETATM    7  H   UNL     1     -14.184   6.372  72.814  1.00  0.00     0.000 HD 
HETATM    8  C   UNL     1     -13.343  10.041  71.715  1.00  0.00    -0.492 A  
HETATM    9  C   UNL     1     -12.176  10.211  70.961  1.00  0.00    -0.474 A  
HETATM   10  C   UNL     1     -11.363   9.091  70.706  1.00  0.00    -0.329 A  
BRANCH   9  11
HETATM   11  C   UNL     1     -11.821  11.572  70.407  1.00  0.00    -0.413 C  
BRANCH  11  12
HETATM   12  C   UNL     1     -11.948  11.636  68.910  1.00  0.00    -0.355 C  
HETATM   13  C   UNL     1     -11.868  12.763  68.189  1.00  0.00    -0.372 C  
ENDBRANCH  11  12
ENDBRANCH   9  11
ENDBRANCH   2   3
TORSDOF 3
ENDMDL
MODEL       42
REMARK 921   NORMALIZED FREE ENERGY PREDICTED BY IDOCK:   -3.95 KCAL/MOL
REMARK 922        TOTAL FREE ENERGY PREDICTED BY IDOCK:   -4.83 KCAL/MOL
REMARK 923 INTER-LIGAND FREE ENERGY PREDICTED BY IDOCK:   -4.58 KCAL/MOL
REMARK 924 INTRA-LIGAND FREE ENERGY PREDICTED BY IDOCK:   -0.25 KCAL/MOL
REMARK 927      BINDING AFFINITY PREDICTED BY RF-SCORE:    0.00 PKD
ROOT
HETATM    1  C   UNL     1     -10.192  17.700  67.768  1.00  0.00    -0.354 C  
HETATM    2  O   UNL     1      -9.604  16.466  67.368  1.00  0.00    -0.227 OA 
ENDROOT
BRANCH   2   3
HETATM    3  C   UNL     1     -10.447  15.403  67.187  1.00  0.00    -0.290 A  
HETATM    4  C   UNL     1     -10.824  14.460  68.146  1.00  0.00    -0.244 A  
HETATM    5  O   UNL     1     -10.330  14.443  69.419  1.00  0.00    -0.397 OA 
HETATM    6  C   UNL     1     -11.683  13.413  67.820  1.00  0.00    -0.394 A  
HETATM    7  H   UNL     1     -10.586  13.802  70.071  1.00  0.00     0.000 HD 
HETATM    8  C   UNL     1     -12.140  13.263  66.511  1.00  0.00    -0.435 A  
HETATM    9  C   UNL     1     -11.755  14.176  65.522  1.00  0.00    -0.344 A  
HETATM   10  C   UNL     1     -10.908  15.243  65.874  1.00  0.00    -0.345 A  
BRANCH   9  11
HETATM   11  C   UNL     1     -12.222  13.992  64.096  1.00  0.00    -0.433 C  
BRANCH  11  12
HETATM   12  C   UNL     1     -11.874  12.636  63.546  1.00  0.00    -0.619 C  
HETATM   13  C   UNL     1     -10.633  12.133  63.495  1.00  0.00    -0.501 C  
ENDBRANCH  11  12
ENDBRANCH   9  11
ENDBRANCH   2   3
TORSDOF 3
ENDMDL
MODEL       43
REMARK 921   NORMALIZED FREE ENERGY PREDICTED BY IDOCK:   -3.92 KCAL/MOL
REMARK 922        TOTAL FREE ENERGY PREDICTED BY IDOCK:   -4.80 KCAL/MOL
REMARK 923 INTER-LIGAND FREE ENERGY PREDICTED BY IDOCK:   -4.58 KCAL/MOL
REMARK 924 INTRA-LIGAND FREE ENERGY PREDICTED BY IDOCK:   -0.22 KCAL/MOL
REMARK 927      BINDING AFFINITY PREDICTED BY RF-SCORE:    0.00 PKD
ROOT
HETATM    1  C   UNL     1     -10.437   9.981  68.448  1.00  0.00    -0.205 C  
HETATM    2  O   UNL     1     -11.625  10.479  67.842  1.00  0.00    -0.461 OA 
ENDROOT
BRANCH   2   3
HETATM    3  C   UNL     1     -11.772  11.838  67.778  1.00  0.00    -0.267 A  
HETATM    4  C   UNL     1     -11.841  12.620  66.623  1.00  0.00    -0.380 A  
HETATM    5  O   UNL     1     -11.700  12.113  65.362  1.00  0.00    -0.364 OA 
HETATM    6  C   UNL     1     -11.978  14.004  66.704  1.00  0.00    -0.473 A  
HETATM    7  H   UNL     1     -11.746  12.645  64.577  1.00  0.00     0.000 HD 
HETATM    8  C   UNL     1     -11.997  14.635  67.947  1.00  0.00    -0.299 A  
HETATM    9  C   UNL     1     -11.901  13.879  69.122  1.00  0.00    -0.401 A  
HETATM   10  C   UNL     1     -11.790  12.481  69.023  1.00  0.00    -0.344 A  
BRANCH   9  11
HETATM   11  C   UNL     1     -11.886  14.567  70.467  1.00  0.00    -0.372 C  
BRANCH  11  12
HETATM   12  C   UNL     1     -12.767  13.883  71.475  1.00  0.00    -0.440 C  
HETATM   13  C   UNL     1     -13.941  14.362  71.907  1.00  0.00    -0.574 C  
ENDBRANCH  11  12
ENDBRANCH   9  11
ENDBRANCH   2   3
TORSDOF 3
ENDMDL
MODEL       44
REMARK 921   NORMALIZED FREE ENERGY PREDICTED BY IDOCK:   -3.90 KCAL/MOL
REMARK 922        TOTAL FREE ENERGY PREDICTED BY IDOCK:   -4.78 KCAL/MOL
REMARK 923 INTER-LIGAND FREE ENERGY PREDICTED BY IDOCK:   -4.56 KCAL/MOL
REMARK 924 INTRA-LIGAND FREE ENERGY PREDICTED BY IDOCK:   -0.22 KCAL/MOL
REMARK 927      BINDING AFFINITY PREDICTED BY RF-SCORE:    0.00 PKD
ROOT
HETATM    1  C   UNL     1      -6.380  17.755  69.080  1.00  0.00    -0.233 C  
HETATM    2  O   UNL     1      -6.810  19.029  68.611  1.00  0.00    -0.258 OA 
ENDROOT
BRANCH   2   3
HETATM    3  C   UNL     1      -8.077  19.112  68.100  1.00  0.00    -0.316 A  
HETATM    4  C   UNL     1      -8.618  20.172  67.369  1.00  0.00    -0.343 A  
HETATM    5  O   UNL     1      -7.944  21.333  67.117  1.00  0.00    -0.693 OA 
HETATM    6  C   UNL     1      -9.936  20.131  66.918  1.00  0.00    -0.600 A  
HETATM    7  H   UNL     1      -8.311  22.054  66.620  1.00  0.00     0.000 HD 
HETATM    8  C   UNL     1     -10.751  19.046  67.236  1.00  0.00    -0.556 A  
HETATM    9  C   UNL     1     -10.245  17.982  67.992  1.00  0.00    -0.390 A  
HETATM   10  C   UNL     1      -8.905  18.027  68.417  1.00  0.00    -0.300 A  
BRANCH   9  11
HETATM   11  C   UNL     1     -11.141  16.824  68.367  1.00  0.00    -0.266 C  
BRANCH  11  12
HETATM   12  C   UNL     1     -10.576  15.496  67.942  1.00  0.00    -0.274 C  
HETATM   13  C   UNL     1     -10.972  14.814  66.859  1.00  0.00    -0.328 C  
ENDBRANCH  11  12
ENDBRANCH   9  11
ENDBRANCH   2   3
TORSDOF 3
ENDMDL
MODEL       45
REMARK 921   NORMALIZED FREE ENERGY PREDICTED BY IDOCK:   -3.89 KCAL/MOL
REMARK 922        TOTAL FREE ENERGY PREDICTED BY IDOCK:   -4.76 KCAL/MOL
REMARK 923 INTER-LIGAND FREE ENERGY PREDICTED BY IDOCK:   -4.55 KCAL/MOL
REMARK 924 INTRA-LIGAND FREE ENERGY PREDICTED BY IDOCK:   -0.21 KCAL/MOL
REMARK 927      BINDING AFFINITY PREDICTED BY RF-SCORE:    0.00 PKD
ROOT
HETATM    1  C   UNL     1     -12.318  12.866  65.346  1.00  0.00    -0.485 C  
HETATM    2  O   UNL     1     -11.275  12.532  66.256  1.00  0.00    -0.286 OA 
ENDROOT
BRANCH   2   3
HETATM    3  C   UNL     1     -11.425  12.938  67.555  1.00  0.00    -0.335 A  
HETATM    4  C   UNL     1     -11.841  12.156  68.634  1.00  0.00    -0.306 A  
HETATM    5  O   UNL     1     -12.227  10.851  68.512  1.00  0.00    -0.799 OA 
HETATM    6  C   UNL     1     -11.965  12.703  69.909  1.00  0.00    -0.365 A  
HETATM    7  H   UNL     1     -12.511  10.318  69.246  1.00  0.00     0.000 HD 
HETATM    8  C   UNL     1     -11.723  14.061  70.114  1.00  0.00    -0.331 A  
HETATM    9  C   UNL     1     -11.332  14.876  69.045  1.00  0.00    -0.310 A  
HETATM   10  C   UNL     1     -11.186  14.301  67.770  1.00  0.00    -0.309 A  
BRANCH   9  11
HETATM   11  C   UNL     1     -11.104  16.355  69.263  1.00  0.00    -0.297 C  
BRANCH  11  12
HETATM   12  C   UNL     1     -10.564  17.041  68.039  1.00  0.00    -0.373 C  
HETATM   13  C   UNL     1     -10.752  18.336  67.749  1.00  0.00    -0.358 C  
ENDBRANCH  11  12
ENDBRANCH   9  11
ENDBRANCH   2   3
TORSDOF 3
ENDMDL
MODEL       46
REMARK 921   NORMALIZED FREE ENERGY PREDICTED BY IDOCK:   -3.88 KCAL/MOL
REMARK 922        TOTAL FREE ENERGY PREDICTED BY IDOCK:   -4.75 KCAL/MOL
REMARK 923 INTER-LIGAND FREE ENERGY PREDICTED BY IDOCK:   -4.56 KCAL/MOL
REMARK 924 INTRA-LIGAND FREE ENERGY PREDICTED BY IDOCK:   -0.19 KCAL/MOL
REMARK 927      BINDING AFFINITY PREDICTED BY RF-SCORE:    0.00 PKD
ROOT
HETATM    1  C   UNL     1     -10.508   8.742  69.907  1.00  0.00    -0.221 C  
HETATM    2  O   UNL     1     -11.772   8.907  70.540  1.00  0.00    -0.228 OA 
ENDROOT
BRANCH   2   3
HETATM    3  C   UNL     1     -12.164  10.187  70.829  1.00  0.00    -0.338 A  
HETATM    4  C   UNL     1     -13.069  10.584  71.816  1.00  0.00    -0.464 A  
HETATM    5  O   UNL     1     -13.753   9.704  72.606  1.00  0.00    -0.701 OA 
HETATM    6  C   UNL     1     -13.390  11.928  71.993  1.00  0.00    -0.425 A  
HETATM    7  H   UNL     1     -14.369   9.974  73.277  1.00  0.00     0.000 HD 
HETATM    8  C   UNL     1     -12.847  12.895  71.148  1.00  0.00    -0.326 A  
HETATM    9  C   UNL     1     -11.959  12.524  70.131  1.00  0.00    -0.377 A  
HETATM   10  C   UNL     1     -11.625  11.165  69.983  1.00  0.00    -0.421 A  
BRANCH   9  11
HETATM   11  C   UNL     1     -11.400  13.569  69.194  1.00  0.00    -0.333 C  
BRANCH  11  12
HETATM   12  C   UNL     1     -11.879  14.956  69.524  1.00  0.00    -0.360 C  
HETATM   13  C   UNL     1     -11.160  15.869  70.189  1.00  0.00    -0.369 C  
ENDBRANCH  11  12
ENDBRANCH   9  11
ENDBRANCH   2   3
TORSDOF 3
ENDMDL
MODEL       47
REMARK 921   NORMALIZED FREE ENERGY PREDICTED BY IDOCK:   -3.88 KCAL/MOL
REMARK 922        TOTAL FREE ENERGY PREDICTED BY IDOCK:   -4.75 KCAL/MOL
REMARK 923 INTER-LIGAND FREE ENERGY PREDICTED BY IDOCK:   -4.55 KCAL/MOL
REMARK 924 INTRA-LIGAND FREE ENERGY PREDICTED BY IDOCK:   -0.20 KCAL/MOL
REMARK 927      BINDING AFFINITY PREDICTED BY RF-SCORE:    0.00 PKD
ROOT
HETATM    1  C   UNL     1     -11.732  14.790  65.519  1.00  0.00    -0.274 C  
HETATM    2  O   UNL     1     -12.310  13.525  65.217  1.00  0.00    -0.413 OA 
ENDROOT
BRANCH   2   3
HETATM    3  C   UNL     1     -11.504  12.425  65.334  1.00  0.00    -0.358 A  
HETATM    4  C   UNL     1     -10.840  11.759  64.301  1.00  0.00    -0.349 A  
HETATM    5  O   UNL     1     -10.969  12.097  62.984  1.00  0.00    -0.674 OA 
HETATM    6  C   UNL     1     -10.058  10.636  64.561  1.00  0.00    -0.421 A  
HETATM    7  H   UNL     1     -10.518  11.644  62.281  1.00  0.00     0.000 HD 
HETATM    8  C   UNL     1      -9.968  10.129  65.856  1.00  0.00    -0.334 A  
HETATM    9  C   UNL     1     -10.646  10.759  66.908  1.00  0.00    -0.312 A  
HETATM   10  C   UNL     1     -11.410  11.907  66.632  1.00  0.00    -0.400 A  
BRANCH   9  11
HETATM   11  C   UNL     1     -10.576  10.187  68.305  1.00  0.00    -0.262 C  
BRANCH  11  12
HETATM   12  C   UNL     1     -11.684  10.689  69.189  1.00  0.00    -0.324 C  
HETATM   13  C   UNL     1     -11.632  10.721  70.528  1.00  0.00    -0.425 C  
ENDBRANCH  11  12
ENDBRANCH   9  11
ENDBRANCH   2   3
TORSDOF 3
ENDMDL
MODEL       48
REMARK 921   NORMALIZED FREE ENERGY PREDICTED BY IDOCK:   -3.87 KCAL/MOL
REMARK 922        TOTAL FREE ENERGY PREDICTED BY IDOCK:   -4.74 KCAL/MOL
REMARK 923 INTER-LIGAND FREE ENERGY PREDICTED BY IDOCK:   -4.51 KCAL/MOL
REMARK 924 INTRA-LIGAND FREE ENERGY PREDICTED BY IDOCK:   -0.23 KCAL/MOL
REMARK 927      BINDING AFFINITY PREDICTED BY RF-SCORE:    0.00 PKD
ROOT
HETATM    1  C   UNL     1     -12.645  13.400  65.097  1.00  0.00    -0.440 C  
HETATM    2  O   UNL     1     -11.352  13.716  64.590  1.00  0.00    -0.340 OA 
ENDROOT
BRANCH   2   3
HETATM    3  C   UNL     1     -10.695  14.770  65.166  1.00  0.00    -0.415 A  
HETATM    4  C   UNL     1     -10.821  16.120  64.832  1.00  0.00    -0.334 A  
HETATM    5  O   UNL     1     -11.600  16.570  63.803  1.00  0.00    -1.617 OA 
HETATM    6  C   UNL     1     -10.076  17.093  65.494  1.00  0.00     0.010 A  
HETATM    7  H   UNL     1     -11.685  17.488  63.575  1.00  0.00     0.000 HD 
HETATM    8  C   UNL     1      -9.153  16.724  66.471  1.00  0.00    -0.302 A  
HETATM    9  C   UNL     1      -8.984  15.376  66.807  1.00  0.00    -0.288 A  
HETATM   10  C   UNL     1      -9.763  14.408  66.147  1.00  0.00    -0.335 A  
BRANCH   9  11
HETATM   11  C   UNL     1      -7.957  14.974  67.841  1.00  0.00    -0.146 C  
BRANCH  11  12
HETATM   12  C   UNL     1      -6.759  15.884  67.847  1.00  0.00    -0.163 C  
HETATM   13  C   UNL     1      -5.487  15.464  67.897  1.00  0.00    -0.139 C  
ENDBRANCH  11  12
ENDBRANCH   9  11
ENDBRANCH   2   3
TORSDOF 3
ENDMDL
MODEL       49
REMARK 921   NORMALIZED FREE ENERGY PREDICTED BY IDOCK:   -3.86 KCAL/MOL
REMARK 922        TOTAL FREE ENERGY PREDICTED BY IDOCK:   -4.73 KCAL/MOL
REMARK 923 INTER-LIGAND FREE ENERGY PREDICTED BY IDOCK:   -4.58 KCAL/MOL
REMARK 924 INTRA-LIGAND FREE ENERGY PREDICTED BY IDOCK:   -0.16 KCAL/MOL
REMARK 927      BINDING AFFINITY PREDICTED BY RF-SCORE:    0.00 PKD
ROOT
HETATM    1  C   UNL     1     -12.048  14.251  64.211  1.00  0.00    -0.441 C  
HETATM    2  O   UNL     1     -10.913  14.209  65.070  1.00  0.00    -0.342 OA 
ENDROOT
BRANCH   2   3
HETATM    3  C   UNL     1     -11.098  14.603  66.369  1.00  0.00    -0.334 A  
HETATM    4  C   UNL     1     -11.631  13.837  67.408  1.00  0.00    -0.362 A  
HETATM    5  O   UNL     1     -12.113  12.570  67.238  1.00  0.00    -0.490 OA 
HETATM    6  C   UNL     1     -11.777  14.371  68.687  1.00  0.00    -0.367 A  
HETATM    7  H   UNL     1     -12.476  12.050  67.945  1.00  0.00     0.000 HD 
HETATM    8  C   UNL     1     -11.437  15.700  68.934  1.00  0.00    -0.367 A  
HETATM    9  C   UNL     1     -10.927  16.500  67.904  1.00  0.00    -0.288 A  
HETATM   10  C   UNL     1     -10.762  15.938  66.625  1.00  0.00    -0.270 A  
BRANCH   9  11
HETATM   11  C   UNL     1     -10.593  17.951  68.165  1.00  0.00    -0.351 C  
BRANCH  11  12
HETATM   12  C   UNL     1      -9.899  18.602  67.001  1.00  0.00    -0.351 C  
HETATM   13  C   UNL     1     -10.474  19.481  66.169  1.00  0.00    -0.613 C  
ENDBRANCH  11  12
ENDBRANCH   9  11
ENDBRANCH   2   3
TORSDOF 3
ENDMDL
MODEL       50
REMARK 921   NORMALIZED FREE ENERGY PREDICTED BY IDOCK:   -3.86 KCAL/MOL
REMARK 922        TOTAL FREE ENERGY PREDICTED BY IDOCK:   -4.73 KCAL/MOL
REMARK 923 INTER-LIGAND FREE ENERGY PREDICTED BY IDOCK:   -4.59 KCAL/MOL
REMARK 924 INTRA-LIGAND FREE ENERGY PREDICTED BY IDOCK:   -0.13 KCAL/MOL
REMARK 927      BINDING AFFINITY PREDICTED BY RF-SCORE:    0.00 PKD
ROOT
HETATM    1  C   UNL     1     -12.092  13.373  66.096  1.00  0.00    -0.429 C  
HETATM    2  O   UNL     1     -11.237  13.085  67.197  1.00  0.00    -0.265 OA 
ENDROOT
BRANCH   2   3
HETATM    3  C   UNL     1     -11.750  13.268  68.453  1.00  0.00    -0.354 A  
HETATM    4  C   UNL     1     -12.062  14.486  69.062  1.00  0.00    -0.251 A  
HETATM    5  O   UNL     1     -11.824  15.699  68.480  1.00  0.00    -0.440 OA 
HETATM    6  C   UNL     1     -12.569  14.529  70.358  1.00  0.00    -0.405 A  
HETATM    7  H   UNL     1     -12.036  16.528  68.894  1.00  0.00     0.000 HD 
HETATM    8  C   UNL     1     -12.724  13.351  71.088  1.00  0.00    -0.411 A  
HETATM    9  C   UNL     1     -12.393  12.118  70.515  1.00  0.00    -0.358 A  
HETATM   10  C   UNL     1     -11.907  12.090  69.195  1.00  0.00    -0.369 A  
BRANCH   9  11
HETATM   11  C   UNL     1     -12.528  10.846  71.321  1.00  0.00    -0.493 C  
BRANCH  11  12
HETATM   12  C   UNL     1     -11.434   9.857  71.026  1.00  0.00    -0.466 C  
HETATM   13  C   UNL     1     -11.419   8.590  71.461  1.00  0.00    -0.350 C  
ENDBRANCH  11  12
ENDBRANCH   9  11
ENDBRANCH   2   3
TORSDOF 3
ENDMDL
MODEL       51
REMARK 921   NORMALIZED FREE ENERGY PREDICTED BY IDOCK:   -3.83 KCAL/MOL
REMARK 922        TOTAL FREE ENERGY PREDICTED BY IDOCK:   -4.70 KCAL/MOL
REMARK 923 INTER-LIGAND FREE ENERGY PREDICTED BY IDOCK:   -4.47 KCAL/MOL
REMARK 924 INTRA-LIGAND FREE ENERGY PREDICTED BY IDOCK:   -0.22 KCAL/MOL
REMARK 927      BINDING AFFINITY PREDICTED BY RF-SCORE:    0.00 PKD
ROOT
HETATM    1  C   UNL     1     -13.277  11.271  71.747  1.00  0.00    -0.375 C  
HETATM    2  O   UNL     1     -12.038  11.316  71.047  1.00  0.00    -0.319 OA 
ENDROOT
BRANCH   2   3
HETATM    3  C   UNL     1     -12.011  12.014  69.869  1.00  0.00    -0.318 A  
HETATM    4  C   UNL     1     -11.910  11.481  68.582  1.00  0.00    -0.318 A  
HETATM    5  O   UNL     1     -11.755  10.147  68.330  1.00  0.00    -0.673 OA 
HETATM    6  C   UNL     1     -11.879  12.313  67.464  1.00  0.00    -0.331 A  
HETATM    7  H   UNL     1     -11.686   9.785  67.455  1.00  0.00     0.000 HD 
HETATM    8  C   UNL     1     -11.897  13.697  67.621  1.00  0.00    -0.404 A  
HETATM    9  C   UNL     1     -11.968  14.261  68.901  1.00  0.00    -0.356 A  
HETATM   10  C   UNL     1     -12.026  13.407  70.017  1.00  0.00    -0.407 A  
BRANCH   9  11
HETATM   11  C   UNL     1     -11.952  15.763  69.071  1.00  0.00    -0.294 C  
BRANCH  11  12
HETATM   12  C   UNL     1     -10.607  16.363  68.767  1.00  0.00    -0.310 C  
HETATM   13  C   UNL     1     -10.396  17.343  67.878  1.00  0.00    -0.369 C  
ENDBRANCH  11  12
ENDBRANCH   9  11
ENDBRANCH   2   3
TORSDOF 3
ENDMDL
MODEL       52
REMARK 921   NORMALIZED FREE ENERGY PREDICTED BY IDOCK:   -3.81 KCAL/MOL
REMARK 922        TOTAL FREE ENERGY PREDICTED BY IDOCK:   -4.66 KCAL/MOL
REMARK 923 INTER-LIGAND FREE ENERGY PREDICTED BY IDOCK:   -4.52 KCAL/MOL
REMARK 924 INTRA-LIGAND FREE ENERGY PREDICTED BY IDOCK:   -0.14 KCAL/MOL
REMARK 927      BINDING AFFINITY PREDICTED BY RF-SCORE:    0.00 PKD
ROOT
HETATM    1  C   UNL     1      -9.441   9.258  67.824  1.00  0.00    -0.140 C  
HETATM    2  O   UNL     1     -10.822   9.586  67.936  1.00  0.00    -0.245 OA 
ENDROOT
BRANCH   2   3
HETATM    3  C   UNL     1     -11.141  10.910  68.081  1.00  0.00    -0.280 A  
HETATM    4  C   UNL     1     -11.332  11.598  69.281  1.00  0.00    -0.290 A  
HETATM    5  O   UNL     1     -11.285  10.999  70.508  1.00  0.00    -0.450 OA 
HETATM    6  C   UNL     1     -11.669  12.950  69.284  1.00  0.00    -0.378 A  
HETATM    7  H   UNL     1     -11.415  11.467  71.324  1.00  0.00     0.000 HD 
HETATM    8  C   UNL     1     -11.872  13.623  68.080  1.00  0.00    -0.407 A  
HETATM    9  C   UNL     1     -11.716  12.952  66.862  1.00  0.00    -0.445 A  
HETATM   10  C   UNL     1     -11.349  11.594  66.877  1.00  0.00    -0.364 A  
BRANCH   9  11
HETATM   11  C   UNL     1     -11.970  13.674  65.559  1.00  0.00    -0.409 C  
BRANCH  11  12
HETATM   12  C   UNL     1     -12.650  12.802  64.539  1.00  0.00    -0.463 C  
HETATM   13  C   UNL     1     -12.037  12.254  63.481  1.00  0.00    -0.649 C  
ENDBRANCH  11  12
ENDBRANCH   9  11
ENDBRANCH   2   3
TORSDOF 3
ENDMDL
MODEL       53
REMARK 921   NORMALIZED FREE ENERGY PREDICTED BY IDOCK:   -3.78 KCAL/MOL
REMARK 922        TOTAL FREE ENERGY PREDICTED BY IDOCK:   -4.63 KCAL/MOL
REMARK 923 INTER-LIGAND FREE ENERGY PREDICTED BY IDOCK:   -4.40 KCAL/MOL
REMARK 924 INTRA-LIGAND FREE ENERGY PREDICTED BY IDOCK:   -0.24 KCAL/MOL
REMARK 927      BINDING AFFINITY PREDICTED BY RF-SCORE:    0.00 PKD
ROOT
HETATM    1  C   UNL     1     -11.843  12.721  66.543  1.00  0.00    -0.405 C  
HETATM    2  O   UNL     1     -10.664  13.112  67.239  1.00  0.00    -0.251 OA 
ENDROOT
BRANCH   2   3
HETATM    3  C   UNL     1     -10.676  14.337  67.851  1.00  0.00    -0.240 A  
HETATM    4  C   UNL     1     -10.951  14.598  69.195  1.00  0.00    -0.262 A  
HETATM    5  O   UNL     1     -11.320  13.633  70.089  1.00  0.00    -0.491 OA 
HETATM    6  C   UNL     1     -10.943  15.902  69.686  1.00  0.00    -0.319 A  
HETATM    7  H   UNL     1     -11.507  13.811  71.003  1.00  0.00     0.000 HD 
HETATM    8  C   UNL     1     -10.709  16.973  68.825  1.00  0.00    -0.313 A  
HETATM    9  C   UNL     1     -10.459  16.744  67.467  1.00  0.00    -0.319 A  
HETATM   10  C   UNL     1     -10.445  15.419  66.993  1.00  0.00    -0.295 A  
BRANCH   9  11
HETATM   11  C   UNL     1     -10.241  17.908  66.528  1.00  0.00    -0.379 C  
BRANCH  11  12
HETATM   12  C   UNL     1     -10.642  19.223  67.138  1.00  0.00    -0.575 C  
HETATM   13  C   UNL     1     -10.030  20.390  66.894  1.00  0.00    -0.549 C  
ENDBRANCH  11  12
ENDBRANCH   9  11
ENDBRANCH   2   3
TORSDOF 3
ENDMDL
MODEL       54
REMARK 921   NORMALIZED FREE ENERGY PREDICTED BY IDOCK:   -3.77 KCAL/MOL
REMARK 922        TOTAL FREE ENERGY PREDICTED BY IDOCK:   -4.63 KCAL/MOL
REMARK 923 INTER-LIGAND FREE ENERGY PREDICTED BY IDOCK:   -4.41 KCAL/MOL
REMARK 924 INTRA-LIGAND FREE ENERGY PREDICTED BY IDOCK:   -0.22 KCAL/MOL
REMARK 927      BINDING AFFINITY PREDICTED BY RF-SCORE:    0.00 PKD
ROOT
HETATM    1  C   UNL     1     -12.248  14.666  64.332  1.00  0.00    -0.452 C  
HETATM    2  O   UNL     1     -11.066  14.288  65.030  1.00  0.00    -0.335 OA 
ENDROOT
BRANCH   2   3
HETATM    3  C   UNL     1     -11.169  13.250  65.917  1.00  0.00    -0.290 A  
HETATM    4  C   UNL     1     -11.723  13.295  67.198  1.00  0.00    -0.376 A  
HETATM    5  O   UNL     1     -12.193  14.442  67.774  1.00  0.00    -0.599 OA 
HETATM    6  C   UNL     1     -11.750  12.161  68.006  1.00  0.00    -0.409 A  
HETATM    7  H   UNL     1     -12.570  14.473  68.645  1.00  0.00     0.000 HD 
HETATM    8  C   UNL     1     -11.174  10.971  67.562  1.00  0.00    -0.372 A  
HETATM    9  C   UNL     1     -10.586  10.903  66.294  1.00  0.00    -0.276 A  
HETATM   10  C   UNL     1     -10.590  12.051  65.480  1.00  0.00    -0.313 A  
BRANCH   9  11
HETATM   11  C   UNL     1      -9.931   9.623  65.828  1.00  0.00    -0.342 C  
BRANCH  11  12
HETATM   12  C   UNL     1      -9.806   8.606  66.929  1.00  0.00    -0.305 C  
HETATM   13  C   UNL     1     -10.208   7.331  66.834  1.00  0.00    -0.340 C  
ENDBRANCH  11  12
ENDBRANCH   9  11
ENDBRANCH   2   3
TORSDOF 3
ENDMDL
MODEL       55
REMARK 921   NORMALIZED FREE ENERGY PREDICTED BY IDOCK:   -3.77 KCAL/MOL
REMARK 922        TOTAL FREE ENERGY PREDICTED BY IDOCK:   -4.62 KCAL/MOL
REMARK 923 INTER-LIGAND FREE ENERGY PREDICTED BY IDOCK:   -4.41 KCAL/MOL
REMARK 924 INTRA-LIGAND FREE ENERGY PREDICTED BY IDOCK:   -0.21 KCAL/MOL
REMARK 927      BINDING AFFINITY PREDICTED BY RF-SCORE:    0.00 PKD
ROOT
HETATM    1  C   UNL     1      -9.365  15.410  67.550  1.00  0.00    -0.203 C  
HETATM    2  O   UNL     1     -10.781  15.345  67.678  1.00  0.00    -0.278 OA 
ENDROOT
BRANCH   2   3
HETATM    3  C   UNL     1     -11.282  14.958  68.892  1.00  0.00    -0.269 A  
HETATM    4  C   UNL     1     -11.439  15.756  70.027  1.00  0.00    -0.356 A  
HETATM    5  O   UNL     1     -11.036  17.060  70.089  1.00  0.00    -0.361 OA 
HETATM    6  C   UNL     1     -11.952  15.227  71.209  1.00  0.00    -0.409 A  
HETATM    7  H   UNL     1     -11.142  17.604  70.861  1.00  0.00     0.000 HD 
HETATM    8  C   UNL     1     -12.270  13.872  71.289  1.00  0.00    -0.353 A  
HETATM    9  C   UNL     1     -12.096  13.040  70.176  1.00  0.00    -0.377 A  
HETATM   10  C   UNL     1     -11.602  13.597  68.982  1.00  0.00    -0.356 A  
BRANCH   9  11
HETATM   11  C   UNL     1     -12.408  11.565  70.276  1.00  0.00    -0.355 C  
BRANCH  11  12
HETATM   12  C   UNL     1     -12.937  11.177  71.629  1.00  0.00    -0.548 C  
HETATM   13  C   UNL     1     -13.148   9.916  72.029  1.00  0.00    -0.545 C  
ENDBRANCH  11  12
ENDBRANCH   9  11
ENDBRANCH   2   3
TORSDOF 3
ENDMDL
MODEL       56
REMARK 921   NORMALIZED FREE ENERGY PREDICTED BY IDOCK:   -3.76 KCAL/MOL
REMARK 922        TOTAL FREE ENERGY PREDICTED BY IDOCK:   -4.61 KCAL/MOL
REMARK 923 INTER-LIGAND FREE ENERGY PREDICTED BY IDOCK:   -4.47 KCAL/MOL
REMARK 924 INTRA-LIGAND FREE ENERGY PREDICTED BY IDOCK:   -0.15 KCAL/MOL
REMARK 927      BINDING AFFINITY PREDICTED BY RF-SCORE:    0.00 PKD
ROOT
HETATM    1  C   UNL     1     -12.244  12.738  64.919  1.00  0.00    -0.463 C  
HETATM    2  O   UNL     1     -11.330  12.627  66.005  1.00  0.00    -0.296 OA 
ENDROOT
BRANCH   2   3
HETATM    3  C   UNL     1     -11.552  13.428  67.093  1.00  0.00    -0.358 A  
HETATM    4  C   UNL     1     -11.408  14.815  67.156  1.00  0.00    -0.356 A  
HETATM    5  O   UNL     1     -10.948  15.571  66.115  1.00  0.00    -0.316 OA 
HETATM    6  C   UNL     1     -11.655  15.507  68.339  1.00  0.00    -0.368 A  
HETATM    7  H   UNL     1     -10.850  16.515  66.157  1.00  0.00     0.000 HD 
HETATM    8  C   UNL     1     -12.002  14.813  69.497  1.00  0.00    -0.351 A  
HETATM    9  C   UNL     1     -12.125  13.418  69.472  1.00  0.00    -0.334 A  
HETATM   10  C   UNL     1     -11.898  12.738  68.262  1.00  0.00    -0.357 A  
BRANCH   9  11
HETATM   11  C   UNL     1     -12.466  12.664  70.736  1.00  0.00    -0.357 C  
BRANCH  11  12
HETATM   12  C   UNL     1     -12.085  11.211  70.662  1.00  0.00    -0.477 C  
HETATM   13  C   UNL     1     -12.928  10.193  70.884  1.00  0.00    -0.432 C  
ENDBRANCH  11  12
ENDBRANCH   9  11
ENDBRANCH   2   3
TORSDOF 3
ENDMDL
MODEL       57
REMARK 921   NORMALIZED FREE ENERGY PREDICTED BY IDOCK:   -3.76 KCAL/MOL
REMARK 922        TOTAL FREE ENERGY PREDICTED BY IDOCK:   -4.61 KCAL/MOL
REMARK 923 INTER-LIGAND FREE ENERGY PREDICTED BY IDOCK:   -4.40 KCAL/MOL
REMARK 924 INTRA-LIGAND FREE ENERGY PREDICTED BY IDOCK:   -0.21 KCAL/MOL
REMARK 927      BINDING AFFINITY PREDICTED BY RF-SCORE:    0.00 PKD
ROOT
HETATM    1  C   UNL     1     -11.265  11.522  65.719  1.00  0.00    -0.164 C  
HETATM    2  O   UNL     1     -12.171  12.571  66.046  1.00  0.00    -0.605 OA 
ENDROOT
BRANCH   2   3
HETATM    3  C   UNL     1     -11.747  13.854  65.825  1.00  0.00    -0.359 A  
HETATM    4  C   UNL     1     -11.871  14.584  64.640  1.00  0.00    -0.453 A  
HETATM    5  O   UNL     1     -12.393  14.066  63.489  1.00  0.00    -1.032 OA 
HETATM    6  C   UNL     1     -11.380  15.884  64.547  1.00  0.00    -0.316 A  
HETATM    7  H   UNL     1     -12.477  14.562  62.683  1.00  0.00     0.000 HD 
HETATM    8  C   UNL     1     -10.709  16.458  65.626  1.00  0.00    -0.280 A  
HETATM    9  C   UNL     1     -10.545  15.740  66.817  1.00  0.00    -0.309 A  
HETATM   10  C   UNL     1     -11.070  14.438  66.902  1.00  0.00    -0.325 A  
BRANCH   9  11
HETATM   11  C   UNL     1      -9.786  16.351  67.972  1.00  0.00    -0.238 C  
BRANCH  11  12
HETATM   12  C   UNL     1      -8.383  15.821  68.087  1.00  0.00    -0.160 C  
HETATM   13  C   UNL     1      -8.015  14.815  68.892  1.00  0.00    -0.160 C  
ENDBRANCH  11  12
ENDBRANCH   9  11
ENDBRANCH   2   3
TORSDOF 3
ENDMDL
MODEL       58
REMARK 921   NORMALIZED FREE ENERGY PREDICTED BY IDOCK:   -3.73 KCAL/MOL
REMARK 922        TOTAL FREE ENERGY PREDICTED BY IDOCK:   -4.58 KCAL/MOL
REMARK 923 INTER-LIGAND FREE ENERGY PREDICTED BY IDOCK:   -4.38 KCAL/MOL
REMARK 924 INTRA-LIGAND FREE ENERGY PREDICTED BY IDOCK:   -0.20 KCAL/MOL
REMARK 927      BINDING AFFINITY PREDICTED BY RF-SCORE:    0.00 PKD
ROOT
HETATM    1  C   UNL     1     -12.277  12.231  70.742  1.00  0.00    -0.260 C  
HETATM    2  O   UNL     1     -12.625  13.610  70.813  1.00  0.00    -0.338 OA 
ENDROOT
BRANCH   2   3
HETATM    3  C   UNL     1     -12.015  14.455  69.926  1.00  0.00    -0.335 A  
HETATM    4  C   UNL     1     -11.586  15.761  70.173  1.00  0.00    -0.357 A  
HETATM    5  O   UNL     1     -11.786  16.407  71.360  1.00  0.00    -0.639 OA 
HETATM    6  C   UNL     1     -10.989  16.520  69.168  1.00  0.00    -0.303 A  
HETATM    7  H   UNL     1     -11.495  17.295  71.528  1.00  0.00     0.000 HD 
HETATM    8  C   UNL     1     -10.858  15.999  67.882  1.00  0.00    -0.333 A  
HETATM    9  C   UNL     1     -11.306  14.703  67.597  1.00  0.00    -0.350 A  
HETATM   10  C   UNL     1     -11.882  13.941  68.630  1.00  0.00    -0.407 A  
BRANCH   9  11
HETATM   11  C   UNL     1     -11.196  14.154  66.193  1.00  0.00    -0.326 C  
BRANCH  11  12
HETATM   12  C   UNL     1     -11.465  12.675  66.130  1.00  0.00    -0.413 C  
HETATM   13  C   UNL     1     -10.659  11.781  65.542  1.00  0.00    -0.323 C  
ENDBRANCH  11  12
ENDBRANCH   9  11
ENDBRANCH   2   3
TORSDOF 3
ENDMDL
MODEL       59
REMARK 921   NORMALIZED FREE ENERGY PREDICTED BY IDOCK:   -3.73 KCAL/MOL
REMARK 922        TOTAL FREE ENERGY PREDICTED BY IDOCK:   -4.58 KCAL/MOL
REMARK 923 INTER-LIGAND FREE ENERGY PREDICTED BY IDOCK:   -4.37 KCAL/MOL
REMARK 924 INTRA-LIGAND FREE ENERGY PREDICTED BY IDOCK:   -0.21 KCAL/MOL
REMARK 927      BINDING AFFINITY PREDICTED BY RF-SCORE:    0.00 PKD
ROOT
HETATM    1  C   UNL     1     -10.450  10.409  67.868  1.00  0.00    -0.209 C  
HETATM    2  O   UNL     1     -10.217  10.781  69.223  1.00  0.00    -0.218 OA 
ENDROOT
BRANCH   2   3
HETATM    3  C   UNL     1     -11.216  10.521  70.123  1.00  0.00    -0.315 A  
HETATM    4  C   UNL     1     -12.065  11.452  70.725  1.00  0.00    -0.332 A  
HETATM    5  O   UNL     1     -11.959  12.801  70.531  1.00  0.00    -0.493 OA 
HETATM    6  C   UNL     1     -13.035  11.049  71.640  1.00  0.00    -0.561 A  
HETATM    7  H   UNL     1     -12.536  13.434  70.941  1.00  0.00     0.000 HD 
HETATM    8  C   UNL     1     -13.137   9.709  72.007  1.00  0.00    -0.537 A  
HETATM    9  C   UNL     1     -12.280   8.756  71.442  1.00  0.00    -0.359 A  
HETATM   10  C   UNL     1     -11.324   9.176  70.500  1.00  0.00    -0.300 A  
BRANCH   9  11
HETATM   11  C   UNL     1     -12.369   7.308  71.868  1.00  0.00    -0.346 C  
BRANCH  11  12
HETATM   12  C   UNL     1     -11.493   6.409  71.040  1.00  0.00    -0.394 C  
HETATM   13  C   UNL     1     -10.539   5.611  71.537  1.00  0.00    -0.306 C  
ENDBRANCH  11  12
ENDBRANCH   9  11
ENDBRANCH   2   3
TORSDOF 3
ENDMDL
MODEL       60
REMARK 921   NORMALIZED FREE ENERGY PREDICTED BY IDOCK:   -3.70 KCAL/MOL
REMARK 922        TOTAL FREE ENERGY PREDICTED BY IDOCK:   -4.54 KCAL/MOL
REMARK 923 INTER-LIGAND FREE ENERGY PREDICTED BY IDOCK:   -4.42 KCAL/MOL
REMARK 924 INTRA-LIGAND FREE ENERGY PREDICTED BY IDOCK:   -0.12 KCAL/MOL
REMARK 927      BINDING AFFINITY PREDICTED BY RF-SCORE:    0.00 PKD
ROOT
HETATM    1  C   UNL     1      -9.435  15.620  65.957  1.00  0.00    -0.355 C  
HETATM    2  O   UNL     1     -10.330  16.727  65.948  1.00  0.00    -0.347 OA 
ENDROOT
BRANCH   2   3
HETATM    3  C   UNL     1      -9.876  17.904  66.482  1.00  0.00    -0.343 A  
HETATM    4  C   UNL     1     -10.318  19.191  66.170  1.00  0.00    -0.484 A  
HETATM    5  O   UNL     1     -11.253  19.453  65.209  1.00  0.00    -0.297 OA 
HETATM    6  C   UNL     1      -9.754  20.309  66.782  1.00  0.00    -0.571 A  
HETATM    7  H   UNL     1     -11.554  20.328  64.996  1.00  0.00     0.000 HD 
HETATM    8  C   UNL     1      -8.700  20.157  67.681  1.00  0.00    -0.380 A  
HETATM    9  C   UNL     1      -8.216  18.881  67.991  1.00  0.00    -0.323 A  
HETATM   10  C   UNL     1      -8.814  17.761  67.384  1.00  0.00    -0.240 A  
BRANCH   9  11
HETATM   11  C   UNL     1      -7.049  18.721  68.938  1.00  0.00    -0.333 C  
BRANCH  11  12
HETATM   12  C   UNL     1      -6.573  20.035  69.494  1.00  0.00    -0.343 C  
HETATM   13  C   UNL     1      -5.587  20.771  68.964  1.00  0.00    -0.405 C  
ENDBRANCH  11  12
ENDBRANCH   9  11
ENDBRANCH   2   3
TORSDOF 3
ENDMDL
MODEL       61
REMARK 921   NORMALIZED FREE ENERGY PREDICTED BY IDOCK:   -3.67 KCAL/MOL
REMARK 922        TOTAL FREE ENERGY PREDICTED BY IDOCK:   -4.51 KCAL/MOL
REMARK 923 INTER-LIGAND FREE ENERGY PREDICTED BY IDOCK:   -4.28 KCAL/MOL
REMARK 924 INTRA-LIGAND FREE ENERGY PREDICTED BY IDOCK:   -0.23 KCAL/MOL
REMARK 927      BINDING AFFINITY PREDICTED BY RF-SCORE:    0.00 PKD
ROOT
HETATM    1  C   UNL     1     -10.775  17.148  65.596  1.00  0.00    -0.136 C  
HETATM    2  O   UNL     1     -11.076  16.204  64.573  1.00  0.00    -0.634 OA 
ENDROOT
BRANCH   2   3
HETATM    3  C   UNL     1     -10.812  14.887  64.839  1.00  0.00    -0.413 A  
HETATM    4  C   UNL     1     -11.410  13.776  64.242  1.00  0.00    -0.326 A  
HETATM    5  O   UNL     1     -12.419  13.866  63.326  1.00  0.00    -1.113 OA 
HETATM    6  C   UNL     1     -11.056  12.483  64.621  1.00  0.00    -0.343 A  
HETATM    7  H   UNL     1     -12.827  13.110  62.920  1.00  0.00     0.000 HD 
HETATM    8  C   UNL     1     -10.130  12.282  65.644  1.00  0.00    -0.275 A  
HETATM    9  C   UNL     1      -9.535  13.378  66.281  1.00  0.00    -0.196 A  
HETATM   10  C   UNL     1      -9.885  14.676  65.868  1.00  0.00    -0.358 A  
BRANCH   9  11
HETATM   11  C   UNL     1      -8.559  13.159  67.414  1.00  0.00    -0.204 C  
BRANCH  11  12
HETATM   12  C   UNL     1      -7.981  11.770  67.417  1.00  0.00    -0.155 C  
HETATM   13  C   UNL     1      -8.133  10.887  68.412  1.00  0.00    -0.131 C  
ENDBRANCH  11  12
ENDBRANCH   9  11
ENDBRANCH   2   3
TORSDOF 3
ENDMDL
MODEL       62
REMARK 921   NORMALIZED FREE ENERGY PREDICTED BY IDOCK:   -3.67 KCAL/MOL
REMARK 922        TOTAL FREE ENERGY PREDICTED BY IDOCK:   -4.50 KCAL/MOL
REMARK 923 INTER-LIGAND FREE ENERGY PREDICTED BY IDOCK:   -4.32 KCAL/MOL
REMARK 924 INTRA-LIGAND FREE ENERGY PREDICTED BY IDOCK:   -0.18 KCAL/MOL
REMARK 927      BINDING AFFINITY PREDICTED BY RF-SCORE:    0.00 PKD
ROOT
HETATM    1  C   UNL     1      -5.684  18.074  65.614  1.00  0.00    -0.179 C  
HETATM    2  O   UNL     1      -6.339  18.715  66.703  1.00  0.00    -0.175 OA 
ENDROOT
BRANCH   2   3
HETATM    3  C   UNL     1      -7.694  18.890  66.603  1.00  0.00    -0.248 A  
HETATM    4  C   UNL     1      -8.400  20.081  66.779  1.00  0.00    -0.323 A  
HETATM    5  O   UNL     1      -7.811  21.257  67.151  1.00  0.00    -0.713 OA 
HETATM    6  C   UNL     1      -9.788  20.114  66.661  1.00  0.00    -0.588 A  
HETATM    7  H   UNL     1      -8.292  22.067  67.270  1.00  0.00     0.000 HD 
HETATM    8  C   UNL     1     -10.497  18.939  66.415  1.00  0.00    -0.505 A  
HETATM    9  C   UNL     1      -9.818  17.724  66.263  1.00  0.00    -0.301 A  
HETATM   10  C   UNL     1      -8.415  17.714  66.359  1.00  0.00    -0.279 A  
BRANCH   9  11
HETATM   11  C   UNL     1     -10.592  16.447  66.032  1.00  0.00    -0.275 C  
BRANCH  11  12
HETATM   12  C   UNL     1      -9.698  15.241  65.934  1.00  0.00    -0.390 C  
HETATM   13  C   UNL     1     -10.119  14.008  65.621  1.00  0.00    -0.342 C  
ENDBRANCH  11  12
ENDBRANCH   9  11
ENDBRANCH   2   3
TORSDOF 3
ENDMDL
MODEL       63
REMARK 921   NORMALIZED FREE ENERGY PREDICTED BY IDOCK:   -3.66 KCAL/MOL
REMARK 922        TOTAL FREE ENERGY PREDICTED BY IDOCK:   -4.50 KCAL/MOL
REMARK 923 INTER-LIGAND FREE ENERGY PREDICTED BY IDOCK:   -4.31 KCAL/MOL
REMARK 924 INTRA-LIGAND FREE ENERGY PREDICTED BY IDOCK:   -0.19 KCAL/MOL
REMARK 927      BINDING AFFINITY PREDICTED BY RF-SCORE:    0.00 PKD
ROOT
HETATM    1  C   UNL     1     -12.360  14.058  66.279  1.00  0.00    -0.448 C  
HETATM    2  O   UNL     1     -11.065  13.939  65.699  1.00  0.00    -0.294 OA 
ENDROOT
BRANCH   2   3
HETATM    3  C   UNL     1     -10.146  14.901  66.020  1.00  0.00    -0.311 A  
HETATM    4  C   UNL     1      -8.837  14.695  66.464  1.00  0.00    -0.155 A  
HETATM    5  O   UNL     1      -8.311  13.457  66.703  1.00  0.00    -0.415 OA 
HETATM    6  C   UNL     1      -8.008  15.771  66.771  1.00  0.00    -0.273 A  
HETATM    7  H   UNL     1      -7.422  13.316  67.005  1.00  0.00     0.000 HD 
HETATM    8  C   UNL     1      -8.493  17.075  66.687  1.00  0.00    -0.283 A  
HETATM    9  C   UNL     1      -9.810  17.312  66.273  1.00  0.00    -0.299 A  
HETATM   10  C   UNL     1     -10.626  16.215  65.942  1.00  0.00    -0.322 A  
BRANCH   9  11
HETATM   11  C   UNL     1     -10.345  18.724  66.217  1.00  0.00    -0.497 C  
BRANCH  11  12
HETATM   12  C   UNL     1      -9.692  19.629  67.226  1.00  0.00    -0.474 C  
HETATM   13  C   UNL     1      -9.974  19.635  68.536  1.00  0.00    -0.542 C  
ENDBRANCH  11  12
ENDBRANCH   9  11
ENDBRANCH   2   3
TORSDOF 3
ENDMDL
MODEL       64
REMARK 921   NORMALIZED FREE ENERGY PREDICTED BY IDOCK:   -3.64 KCAL/MOL
REMARK 922        TOTAL FREE ENERGY PREDICTED BY IDOCK:   -4.47 KCAL/MOL
REMARK 923 INTER-LIGAND FREE ENERGY PREDICTED BY IDOCK:   -4.25 KCAL/MOL
REMARK 924 INTRA-LIGAND FREE ENERGY PREDICTED BY IDOCK:   -0.22 KCAL/MOL
REMARK 927      BINDING AFFINITY PREDICTED BY RF-SCORE:    0.00 PKD
ROOT
HETATM    1  C   UNL     1      -8.633   9.042  65.389  1.00  0.00    -0.177 C  
HETATM    2  O   UNL     1      -9.417   9.761  64.442  1.00  0.00    -0.274 OA 
ENDROOT
BRANCH   2   3
HETATM    3  C   UNL     1     -10.275  10.709  64.933  1.00  0.00    -0.324 A  
HETATM    4  C   UNL     1     -11.177  11.482  64.199  1.00  0.00    -0.314 A  
HETATM    5  O   UNL     1     -11.275  11.432  62.837  1.00  0.00    -0.807 OA 
HETATM    6  C   UNL     1     -11.986  12.426  64.827  1.00  0.00    -0.462 A  
HETATM    7  H   UNL     1     -11.889  11.958  62.337  1.00  0.00     0.000 HD 
HETATM    8  C   UNL     1     -11.867  12.649  66.198  1.00  0.00    -0.477 A  
HETATM    9  C   UNL     1     -10.951  11.909  66.955  1.00  0.00    -0.326 A  
HETATM   10  C   UNL     1     -10.160  10.941  66.309  1.00  0.00    -0.284 A  
BRANCH   9  11
HETATM   11  C   UNL     1     -10.798  12.176  68.435  1.00  0.00    -0.255 C  
BRANCH  11  12
HETATM   12  C   UNL     1     -10.403  10.947  69.205  1.00  0.00    -0.211 C  
HETATM   13  C   UNL     1     -11.259  10.161  69.872  1.00  0.00    -0.343 C  
ENDBRANCH  11  12
ENDBRANCH   9  11
ENDBRANCH   2   3
TORSDOF 3
ENDMDL
MODEL       65
REMARK 921   NORMALIZED FREE ENERGY PREDICTED BY IDOCK:   -3.63 KCAL/MOL
REMARK 922        TOTAL FREE ENERGY PREDICTED BY IDOCK:   -4.46 KCAL/MOL
REMARK 923 INTER-LIGAND FREE ENERGY PREDICTED BY IDOCK:   -4.23 KCAL/MOL
REMARK 924 INTRA-LIGAND FREE ENERGY PREDICTED BY IDOCK:   -0.23 KCAL/MOL
REMARK 927      BINDING AFFINITY PREDICTED BY RF-SCORE:    0.00 PKD
ROOT
HETATM    1  C   UNL     1     -12.680  12.874  64.903  1.00  0.00    -0.403 C  
HETATM    2  O   UNL     1     -11.338  12.712  65.349  1.00  0.00    -0.293 OA 
ENDROOT
BRANCH   2   3
HETATM    3  C   UNL     1     -11.121  11.826  66.370  1.00  0.00    -0.307 A  
HETATM    4  C   UNL     1     -10.495  10.581  66.281  1.00  0.00    -0.183 A  
HETATM    5  O   UNL     1     -10.060  10.041  65.104  1.00  0.00    -0.325 OA 
HETATM    6  C   UNL     1     -10.353   9.770  67.404  1.00  0.00    -0.297 A  
HETATM    7  H   UNL     1      -9.634   9.194  65.042  1.00  0.00     0.000 HD 
HETATM    8  C   UNL     1     -10.882  10.171  68.629  1.00  0.00    -0.272 A  
HETATM    9  C   UNL     1     -11.541  11.402  68.743  1.00  0.00    -0.378 A  
HETATM   10  C   UNL     1     -11.653  12.220  67.605  1.00  0.00    -0.421 A  
BRANCH   9  11
HETATM   11  C   UNL     1     -12.145  11.820  70.064  1.00  0.00    -0.387 C  
BRANCH  11  12
HETATM   12  C   UNL     1     -12.155  10.704  71.073  1.00  0.00    -0.473 C  
HETATM   13  C   UNL     1     -13.229   9.960  71.371  1.00  0.00    -0.487 C  
ENDBRANCH  11  12
ENDBRANCH   9  11
ENDBRANCH   2   3
TORSDOF 3
ENDMDL
MODEL       66
REMARK 921   NORMALIZED FREE ENERGY PREDICTED BY IDOCK:   -3.60 KCAL/MOL
REMARK 922        TOTAL FREE ENERGY PREDICTED BY IDOCK:   -4.42 KCAL/MOL
REMARK 923 INTER-LIGAND FREE ENERGY PREDICTED BY IDOCK:   -4.23 KCAL/MOL
REMARK 924 INTRA-LIGAND FREE ENERGY PREDICTED BY IDOCK:   -0.19 KCAL/MOL
REMARK 927      BINDING AFFINITY PREDICTED BY RF-SCORE:    0.00 PKD
ROOT
HETATM    1  C   UNL     1     -11.754  11.425  68.980  1.00  0.00    -0.343 C  
HETATM    2  O   UNL     1     -11.891  12.832  68.808  1.00  0.00    -0.304 OA 
ENDROOT
BRANCH   2   3
HETATM    3  C   UNL     1     -11.536  13.351  67.592  1.00  0.00    -0.340 A  
HETATM    4  C   UNL     1     -11.349  14.699  67.278  1.00  0.00    -0.353 A  
HETATM    5  O   UNL     1     -11.567  15.715  68.166  1.00  0.00    -0.353 OA 
HETATM    6  C   UNL     1     -11.001  15.092  65.988  1.00  0.00    -0.334 A  
HETATM    7  H   UNL     1     -11.440  16.632  67.953  1.00  0.00     0.000 HD 
HETATM    8  C   UNL     1     -10.884  14.142  64.975  1.00  0.00    -0.408 A  
HETATM    9  C   UNL     1     -11.094  12.785  65.252  1.00  0.00    -0.320 A  
HETATM   10  C   UNL     1     -11.419  12.404  66.567  1.00  0.00    -0.427 A  
BRANCH   9  11
HETATM   11  C   UNL     1     -11.002  11.761  64.145  1.00  0.00    -0.437 C  
BRANCH  11  12
HETATM   12  C   UNL     1      -9.580  11.403  63.807  1.00  0.00    -0.258 C  
HETATM   13  C   UNL     1      -9.181  10.915  62.625  1.00  0.00    -0.357 C  
ENDBRANCH  11  12
ENDBRANCH   9  11
ENDBRANCH   2   3
TORSDOF 3
ENDMDL
MODEL       67
REMARK 921   NORMALIZED FREE ENERGY PREDICTED BY IDOCK:   -3.59 KCAL/MOL
REMARK 922        TOTAL FREE ENERGY PREDICTED BY IDOCK:   -4.41 KCAL/MOL
REMARK 923 INTER-LIGAND FREE ENERGY PREDICTED BY IDOCK:   -4.15 KCAL/MOL
REMARK 924 INTRA-LIGAND FREE ENERGY PREDICTED BY IDOCK:   -0.26 KCAL/MOL
REMARK 927      BINDING AFFINITY PREDICTED BY RF-SCORE:    0.00 PKD
ROOT
HETATM    1  C   UNL     1     -12.660  13.472  64.602  1.00  0.00    -0.251 C  
HETATM    2  O   UNL     1     -12.434  12.445  65.561  1.00  0.00    -0.643 OA 
ENDROOT
BRANCH   2   3
HETATM    3  C   UNL     1     -11.436  12.651  66.476  1.00  0.00    -0.353 A  
HETATM    4  C   UNL     1     -11.221  11.937  67.657  1.00  0.00    -0.276 A  
HETATM    5  O   UNL     1     -12.050  10.944  68.097  1.00  0.00    -0.785 OA 
HETATM    6  C   UNL     1     -10.169  12.264  68.508  1.00  0.00    -0.213 A  
HETATM    7  H   UNL     1     -11.904  10.458  68.900  1.00  0.00     0.000 HD 
HETATM    8  C   UNL     1      -9.343  13.348  68.216  1.00  0.00    -0.205 A  
HETATM    9  C   UNL     1      -9.552  14.101  67.055  1.00  0.00    -0.264 A  
HETATM   10  C   UNL     1     -10.603  13.740  66.192  1.00  0.00    -0.291 A  
BRANCH   9  11
HETATM   11  C   UNL     1      -8.678  15.297  66.758  1.00  0.00    -0.304 C  
BRANCH  11  12
HETATM   12  C   UNL     1      -9.443  16.592  66.787  1.00  0.00    -0.260 C  
HETATM   13  C   UNL     1     -10.112  17.055  67.851  1.00  0.00    -0.306 C  
ENDBRANCH  11  12
ENDBRANCH   9  11
ENDBRANCH   2   3
TORSDOF 3
ENDMDL
MODEL       68
REMARK 921   NORMALIZED FREE ENERGY PREDICTED BY IDOCK:   -3.58 KCAL/MOL
REMARK 922        TOTAL FREE ENERGY PREDICTED BY IDOCK:   -4.40 KCAL/MOL
REMARK 923 INTER-LIGAND FREE ENERGY PREDICTED BY IDOCK:   -4.17 KCAL/MOL
REMARK 924 INTRA-LIGAND FREE ENERGY PREDICTED BY IDOCK:   -0.23 KCAL/MOL
REMARK 927      BINDING AFFINITY PREDICTED BY RF-SCORE:    0.00 PKD
ROOT
HETATM    1  C   UNL     1      -9.721  12.252  66.787  1.00  0.00    -0.213 C  
HETATM    2  O   UNL     1     -10.974  12.920  66.680  1.00  0.00    -0.267 OA 
ENDROOT
BRANCH   2   3
HETATM    3  C   UNL     1     -10.956  14.214  66.231  1.00  0.00    -0.303 A  
HETATM    4  C   UNL     1     -11.214  14.653  64.930  1.00  0.00    -0.396 A  
HETATM    5  O   UNL     1     -11.463  13.807  63.887  1.00  0.00    -0.602 OA 
HETATM    6  C   UNL     1     -11.147  16.006  64.606  1.00  0.00    -0.346 A  
HETATM    7  H   UNL     1     -11.639  14.105  63.002  1.00  0.00     0.000 HD 
HETATM    8  C   UNL     1     -10.770  16.939  65.570  1.00  0.00    -0.171 A  
HETATM    9  C   UNL     1     -10.477  16.525  66.875  1.00  0.00    -0.282 A  
HETATM   10  C   UNL     1     -10.575  15.158  67.192  1.00  0.00    -0.295 A  
BRANCH   9  11
HETATM   11  C   UNL     1     -10.034  17.534  67.910  1.00  0.00    -0.312 C  
BRANCH  11  12
HETATM   12  C   UNL     1     -10.180  18.953  67.432  1.00  0.00    -0.456 C  
HETATM   13  C   UNL     1     -10.262  20.020  68.237  1.00  0.00    -0.527 C  
ENDBRANCH  11  12
ENDBRANCH   9  11
ENDBRANCH   2   3
TORSDOF 3
ENDMDL
MODEL       69
REMARK 921   NORMALIZED FREE ENERGY PREDICTED BY IDOCK:   -3.57 KCAL/MOL
REMARK 922        TOTAL FREE ENERGY PREDICTED BY IDOCK:   -4.39 KCAL/MOL
REMARK 923 INTER-LIGAND FREE ENERGY PREDICTED BY IDOCK:   -4.15 KCAL/MOL
REMARK 924 INTRA-LIGAND FREE ENERGY PREDICTED BY IDOCK:   -0.25 KCAL/MOL
REMARK 927      BINDING AFFINITY PREDICTED BY RF-SCORE:    0.00 PKD
ROOT
HETATM    1  C   UNL     1     -10.647  16.190  67.612  1.00  0.00    -0.315 C  
HETATM    2  O   UNL     1      -9.896  15.078  68.088  1.00  0.00    -0.211 OA 
ENDROOT
BRANCH   2   3
HETATM    3  C   UNL     1     -10.488  13.846  68.014  1.00  0.00    -0.243 A  
HETATM    4  C   UNL     1     -11.225  13.208  69.015  1.00  0.00    -0.258 A  
HETATM    5  O   UNL     1     -11.400  13.728  70.266  1.00  0.00    -0.495 OA 
HETATM    6  C   UNL     1     -11.763  11.940  68.809  1.00  0.00    -0.379 A  
HETATM    7  H   UNL     1     -11.901  13.295  70.947  1.00  0.00     0.000 HD 
HETATM    8  C   UNL     1     -11.529  11.266  67.612  1.00  0.00    -0.341 A  
HETATM    9  C   UNL     1     -10.769  11.868  66.601  1.00  0.00    -0.291 A  
HETATM   10  C   UNL     1     -10.255  13.159  66.815  1.00  0.00    -0.252 A  
BRANCH   9  11
HETATM   11  C   UNL     1     -10.487  11.121  65.318  1.00  0.00    -0.326 C  
BRANCH  11  12
HETATM   12  C   UNL     1     -10.720  11.965  64.095  1.00  0.00    -0.402 C  
HETATM   13  C   UNL     1     -11.928  12.280  63.609  1.00  0.00    -0.633 C  
ENDBRANCH  11  12
ENDBRANCH   9  11
ENDBRANCH   2   3
TORSDOF 3
ENDMDL
MODEL       70
REMARK 921   NORMALIZED FREE ENERGY PREDICTED BY IDOCK:   -3.57 KCAL/MOL
REMARK 922        TOTAL FREE ENERGY PREDICTED BY IDOCK:   -4.39 KCAL/MOL
REMARK 923 INTER-LIGAND FREE ENERGY PREDICTED BY IDOCK:   -4.17 KCAL/MOL
REMARK 924 INTRA-LIGAND FREE ENERGY PREDICTED BY IDOCK:   -0.22 KCAL/MOL
REMARK 927      BINDING AFFINITY PREDICTED BY RF-SCORE:    0.00 PKD
ROOT
HETATM    1  C   UNL     1     -10.266   7.585  67.967  1.00  0.00    -0.195 C  
HETATM    2  O   UNL     1     -10.439   8.241  69.219  1.00  0.00    -0.217 OA 
ENDROOT
BRANCH   2   3
HETATM    3  C   UNL     1     -10.890   9.533  69.191  1.00  0.00    -0.173 A  
HETATM    4  C   UNL     1     -11.384  10.271  70.268  1.00  0.00    -0.323 A  
HETATM    5  O   UNL     1     -11.545   9.755  71.523  1.00  0.00    -0.380 OA 
HETATM    6  C   UNL     1     -11.826  11.581  70.095  1.00  0.00    -0.440 A  
HETATM    7  H   UNL     1     -11.881  10.257  72.256  1.00  0.00     0.000 HD 
HETATM    8  C   UNL     1     -11.829  12.157  68.826  1.00  0.00    -0.356 A  
HETATM    9  C   UNL     1     -11.366  11.431  67.721  1.00  0.00    -0.354 A  
HETATM   10  C   UNL     1     -10.899  10.119  67.919  1.00  0.00    -0.336 A  
BRANCH   9  11
HETATM   11  C   UNL     1     -11.403  12.044  66.341  1.00  0.00    -0.411 C  
BRANCH  11  12
HETATM   12  C   UNL     1     -12.125  13.363  66.314  1.00  0.00    -0.475 C  
HETATM   13  C   UNL     1     -12.659  13.914  65.216  1.00  0.00    -0.508 C  
ENDBRANCH  11  12
ENDBRANCH   9  11
ENDBRANCH   2   3
TORSDOF 3
ENDMDL
MODEL       71
REMARK 921   NORMALIZED FREE ENERGY PREDICTED BY IDOCK:   -3.57 KCAL/MOL
REMARK 922        TOTAL FREE ENERGY PREDICTED BY IDOCK:   -4.38 KCAL/MOL
REMARK 923 INTER-LIGAND FREE ENERGY PREDICTED BY IDOCK:   -4.18 KCAL/MOL
REMARK 924 INTRA-LIGAND FREE ENERGY PREDICTED BY IDOCK:   -0.21 KCAL/MOL
REMARK 927      BINDING AFFINITY PREDICTED BY RF-SCORE:    0.00 PKD
ROOT
HETATM    1  C   UNL     1     -12.630  14.171  65.553  1.00  0.00    -0.479 C  
HETATM    2  O   UNL     1     -12.717  12.754  65.445  1.00  0.00    -0.621 OA 
ENDROOT
BRANCH   2   3
HETATM    3  C   UNL     1     -11.551  12.071  65.226  1.00  0.00    -0.279 A  
HETATM    4  C   UNL     1     -11.155  11.449  64.039  1.00  0.00    -0.322 A  
HETATM    5  O   UNL     1     -11.942  11.386  62.924  1.00  0.00    -0.898 OA 
HETATM    6  C   UNL     1      -9.940  10.772  63.958  1.00  0.00    -0.403 A  
HETATM    7  H   UNL     1     -11.673  10.963  62.118  1.00  0.00     0.000 HD 
HETATM    8  C   UNL     1      -9.123  10.663  65.081  1.00  0.00    -0.227 A  
HETATM    9  C   UNL     1      -9.506  11.252  66.292  1.00  0.00    -0.227 A  
HETATM   10  C   UNL     1     -10.724  11.954  66.350  1.00  0.00    -0.303 A  
BRANCH   9  11
HETATM   11  C   UNL     1      -8.636  11.103  67.518  1.00  0.00    -0.129 C  
BRANCH  11  12
HETATM   12  C   UNL     1      -7.626  12.210  67.647  1.00  0.00    -0.140 C  
HETATM   13  C   UNL     1      -7.910  13.453  68.058  1.00  0.00    -0.148 C  
ENDBRANCH  11  12
ENDBRANCH   9  11
ENDBRANCH   2   3
TORSDOF 3
ENDMDL
MODEL       72
REMARK 921   NORMALIZED FREE ENERGY PREDICTED BY IDOCK:   -3.56 KCAL/MOL
REMARK 922        TOTAL FREE ENERGY PREDICTED BY IDOCK:   -4.37 KCAL/MOL
REMARK 923 INTER-LIGAND FREE ENERGY PREDICTED BY IDOCK:   -4.16 KCAL/MOL
REMARK 924 INTRA-LIGAND FREE ENERGY PREDICTED BY IDOCK:   -0.21 KCAL/MOL
REMARK 927      BINDING AFFINITY PREDICTED BY RF-SCORE:    0.00 PKD
ROOT
HETATM    1  C   UNL     1      -8.312  13.876  68.132  1.00  0.00    -0.163 C  
HETATM    2  O   UNL     1      -9.718  13.725  68.294  1.00  0.00    -0.221 OA 
ENDROOT
BRANCH   2   3
HETATM    3  C   UNL     1     -10.476  13.662  67.155  1.00  0.00    -0.264 A  
HETATM    4  C   UNL     1     -11.783  14.125  66.992  1.00  0.00    -0.405 A  
HETATM    5  O   UNL     1     -12.523  14.663  68.008  1.00  0.00    -0.595 OA 
HETATM    6  C   UNL     1     -12.446  13.984  65.775  1.00  0.00    -0.523 A  
HETATM    7  H   UNL     1     -13.412  14.978  67.897  1.00  0.00     0.000 HD 
HETATM    8  C   UNL     1     -11.825  13.328  64.712  1.00  0.00    -0.411 A  
HETATM    9  C   UNL     1     -10.526  12.828  64.855  1.00  0.00    -0.342 A  
HETATM   10  C   UNL     1      -9.862  13.002  66.083  1.00  0.00    -0.275 A  
BRANCH   9  11
HETATM   11  C   UNL     1      -9.869  12.086  63.714  1.00  0.00    -0.294 C  
BRANCH  11  12
HETATM   12  C   UNL     1     -10.006  10.594  63.841  1.00  0.00    -0.390 C  
HETATM   13  C   UNL     1      -9.015   9.768  64.204  1.00  0.00    -0.276 C  
ENDBRANCH  11  12
ENDBRANCH   9  11
ENDBRANCH   2   3
TORSDOF 3
ENDMDL
MODEL       73
REMARK 921   NORMALIZED FREE ENERGY PREDICTED BY IDOCK:   -3.56 KCAL/MOL
REMARK 922        TOTAL FREE ENERGY PREDICTED BY IDOCK:   -4.37 KCAL/MOL
REMARK 923 INTER-LIGAND FREE ENERGY PREDICTED BY IDOCK:   -4.14 KCAL/MOL
REMARK 924 INTRA-LIGAND FREE ENERGY PREDICTED BY IDOCK:   -0.23 KCAL/MOL
REMARK 927      BINDING AFFINITY PREDICTED BY RF-SCORE:    0.00 PKD
ROOT
HETATM    1  C   UNL     1     -10.823   6.841  66.956  1.00  0.00    -0.383 C  
HETATM    2  O   UNL     1     -10.064   7.844  67.625  1.00  0.00    -0.175 OA 
ENDROOT
BRANCH   2   3
HETATM    3  C   UNL     1     -10.479   9.140  67.482  1.00  0.00    -0.270 A  
HETATM    4  C   UNL     1     -11.140   9.918  68.436  1.00  0.00    -0.139 A  
HETATM    5  O   UNL     1     -11.527   9.442  69.657  1.00  0.00    -0.436 OA 
HETATM    6  C   UNL     1     -11.521  11.228  68.152  1.00  0.00    -0.376 A  
HETATM    7  H   UNL     1     -11.977   9.970  70.305  1.00  0.00     0.000 HD 
HETATM    8  C   UNL     1     -11.290  11.765  66.886  1.00  0.00    -0.386 A  
HETATM    9  C   UNL     1     -10.656  10.999  65.901  1.00  0.00    -0.270 A  
HETATM   10  C   UNL     1     -10.254   9.688  66.213  1.00  0.00    -0.286 A  
BRANCH   9  11
HETATM   11  C   UNL     1     -10.439  11.571  64.519  1.00  0.00    -0.369 C  
BRANCH  11  12
HETATM   12  C   UNL     1     -11.731  11.855  63.803  1.00  0.00    -0.554 C  
HETATM   13  C   UNL     1     -12.056  13.039  63.266  1.00  0.00    -0.499 C  
ENDBRANCH  11  12
ENDBRANCH   9  11
ENDBRANCH   2   3
TORSDOF 3
ENDMDL
MODEL       74
REMARK 921   NORMALIZED FREE ENERGY PREDICTED BY IDOCK:   -3.56 KCAL/MOL
REMARK 922        TOTAL FREE ENERGY PREDICTED BY IDOCK:   -4.37 KCAL/MOL
REMARK 923 INTER-LIGAND FREE ENERGY PREDICTED BY IDOCK:   -4.17 KCAL/MOL
REMARK 924 INTRA-LIGAND FREE ENERGY PREDICTED BY IDOCK:   -0.20 KCAL/MOL
REMARK 927      BINDING AFFINITY PREDICTED BY RF-SCORE:    0.00 PKD
ROOT
HETATM    1  C   UNL     1     -10.040  15.734  65.427  1.00  0.00    -0.302 C  
HETATM    2  O   UNL     1     -10.639  17.025  65.397  1.00  0.00    -0.601 OA 
ENDROOT
BRANCH   2   3
HETATM    3  C   UNL     1     -10.068  17.998  66.172  1.00  0.00    -0.334 A  
HETATM    4  C   UNL     1     -10.335  19.368  66.128  1.00  0.00    -0.504 A  
HETATM    5  O   UNL     1     -11.187  19.940  65.226  1.00  0.00    -0.301 OA 
HETATM    6  C   UNL     1      -9.666  20.254  66.970  1.00  0.00    -0.598 A  
HETATM    7  H   UNL     1     -11.369  20.872  65.196  1.00  0.00     0.000 HD 
HETATM    8  C   UNL     1      -8.679  19.787  67.836  1.00  0.00    -0.370 A  
HETATM    9  C   UNL     1      -8.369  18.423  67.881  1.00  0.00    -0.274 A  
HETATM   10  C   UNL     1      -9.072  17.538  67.044  1.00  0.00    -0.255 A  
BRANCH   9  11
HETATM   11  C   UNL     1      -7.274  17.923  68.795  1.00  0.00    -0.275 C  
BRANCH  11  12
HETATM   12  C   UNL     1      -6.990  16.458  68.608  1.00  0.00    -0.159 C  
HETATM   13  C   UNL     1      -7.146  15.527  69.559  1.00  0.00    -0.195 C  
ENDBRANCH  11  12
ENDBRANCH   9  11
ENDBRANCH   2   3
TORSDOF 3
ENDMDL
MODEL       75
REMARK 921   NORMALIZED FREE ENERGY PREDICTED BY IDOCK:   -3.55 KCAL/MOL
REMARK 922        TOTAL FREE ENERGY PREDICTED BY IDOCK:   -4.36 KCAL/MOL
REMARK 923 INTER-LIGAND FREE ENERGY PREDICTED BY IDOCK:   -4.53 KCAL/MOL
REMARK 924 INTRA-LIGAND FREE ENERGY PREDICTED BY IDOCK:    0.17 KCAL/MOL
REMARK 927      BINDING AFFINITY PREDICTED BY RF-SCORE:    0.00 PKD
ROOT
HETATM    1  C   UNL     1     -10.451  15.444  65.042  1.00  0.00    -0.381 C  
HETATM    2  O   UNL     1     -10.692  16.843  65.151  1.00  0.00    -0.663 OA 
ENDROOT
BRANCH   2   3
HETATM    3  C   UNL     1     -10.394  17.437  66.348  1.00  0.00    -0.317 A  
HETATM    4  C   UNL     1     -10.685  16.946  67.622  1.00  0.00    -0.290 A  
HETATM    5  O   UNL     1     -11.388  15.796  67.843  1.00  0.00    -0.338 OA 
HETATM    6  C   UNL     1     -10.335  17.666  68.763  1.00  0.00    -0.348 A  
HETATM    7  H   UNL     1     -11.586  15.462  68.709  1.00  0.00     0.000 HD 
HETATM    8  C   UNL     1      -9.732  18.917  68.643  1.00  0.00    -0.454 A  
HETATM    9  C   UNL     1      -9.455  19.448  67.378  1.00  0.00    -0.397 A  
HETATM   10  C   UNL     1      -9.791  18.696  66.237  1.00  0.00    -0.364 A  
BRANCH   9  11
HETATM   11  C   UNL     1      -8.833  20.820  67.250  1.00  0.00    -0.259 C  
BRANCH  11  12
HETATM   12  C   UNL     1      -7.330  20.776  67.270  1.00  0.00    -0.397 C  
HETATM   13  C   UNL     1      -6.595  20.376  68.316  1.00  0.00    -0.327 C  
ENDBRANCH  11  12
ENDBRANCH   9  11
ENDBRANCH   2   3
TORSDOF 3
ENDMDL
MODEL       76
REMARK 921   NORMALIZED FREE ENERGY PREDICTED BY IDOCK:   -3.55 KCAL/MOL
REMARK 922        TOTAL FREE ENERGY PREDICTED BY IDOCK:   -4.36 KCAL/MOL
REMARK 923 INTER-LIGAND FREE ENERGY PREDICTED BY IDOCK:   -4.11 KCAL/MOL
REMARK 924 INTRA-LIGAND FREE ENERGY PREDICTED BY IDOCK:   -0.24 KCAL/MOL
REMARK 927      BINDING AFFINITY PREDICTED BY RF-SCORE:    0.00 PKD
ROOT
HETATM    1  C   UNL     1      -8.961   8.942  66.594  1.00  0.00    -0.136 C  
HETATM    2  O   UNL     1     -10.277   9.426  66.345  1.00  0.00    -0.268 OA 
ENDROOT
BRANCH   2   3
HETATM    3  C   UNL     1     -10.796  10.319  67.244  1.00  0.00    -0.250 A  
HETATM    4  C   UNL     1     -11.209  11.627  66.982  1.00  0.00    -0.314 A  
HETATM    5  O   UNL     1     -11.084  12.224  65.759  1.00  0.00    -0.298 OA 
HETATM    6  C   UNL     1     -11.708  12.437  68.000  1.00  0.00    -0.414 A  
HETATM    7  H   UNL     1     -11.365  13.114  65.581  1.00  0.00     0.000 HD 
HETATM    8  C   UNL     1     -11.752  11.966  69.311  1.00  0.00    -0.389 A  
HETATM    9  C   UNL     1     -11.317  10.669  69.609  1.00  0.00    -0.360 A  
HETATM   10  C   UNL     1     -10.841   9.855  68.565  1.00  0.00    -0.257 A  
BRANCH   9  11
HETATM   11  C   UNL     1     -11.333  10.172  71.036  1.00  0.00    -0.385 C  
BRANCH  11  12
HETATM   12  C   UNL     1     -12.667  10.372  71.702  1.00  0.00    -0.560 C  
HETATM   13  C   UNL     1     -13.547   9.392  71.947  1.00  0.00    -0.482 C  
ENDBRANCH  11  12
ENDBRANCH   9  11
ENDBRANCH   2   3
TORSDOF 3
ENDMDL
MODEL       77
REMARK 921   NORMALIZED FREE ENERGY PREDICTED BY IDOCK:   -3.53 KCAL/MOL
REMARK 922        TOTAL FREE ENERGY PREDICTED BY IDOCK:   -4.34 KCAL/MOL
REMARK 923 INTER-LIGAND FREE ENERGY PREDICTED BY IDOCK:   -4.06 KCAL/MOL
REMARK 924 INTRA-LIGAND FREE ENERGY PREDICTED BY IDOCK:   -0.28 KCAL/MOL
REMARK 927      BINDING AFFINITY PREDICTED BY RF-SCORE:    0.00 PKD
ROOT
HETATM    1  C   UNL     1     -10.241  19.970  66.836  1.00  0.00    -0.462 C  
HETATM    2  O   UNL     1      -9.312  19.721  67.886  1.00  0.00    -0.327 OA 
ENDROOT
BRANCH   2   3
HETATM    3  C   UNL     1      -9.178  18.426  68.309  1.00  0.00    -0.316 A  
HETATM    4  C   UNL     1      -7.997  17.683  68.373  1.00  0.00    -0.270 A  
HETATM    5  O   UNL     1      -6.789  18.154  67.945  1.00  0.00    -0.204 OA 
HETATM    6  C   UNL     1      -8.007  16.361  68.813  1.00  0.00    -0.233 A  
HETATM    7  H   UNL     1      -5.985  17.649  67.988  1.00  0.00     0.000 HD 
HETATM    8  C   UNL     1      -9.211  15.744  69.147  1.00  0.00    -0.256 A  
HETATM    9  C   UNL     1     -10.415  16.454  69.065  1.00  0.00    -0.288 A  
HETATM   10  C   UNL     1     -10.384  17.796  68.645  1.00  0.00    -0.351 A  
BRANCH   9  11
HETATM   11  C   UNL     1     -11.722  15.772  69.394  1.00  0.00    -0.379 C  
BRANCH  11  12
HETATM   12  C   UNL     1     -11.815  15.368  70.840  1.00  0.00    -0.400 C  
HETATM   13  C   UNL     1     -11.670  16.208  71.874  1.00  0.00    -0.575 C  
ENDBRANCH  11  12
ENDBRANCH   9  11
ENDBRANCH   2   3
TORSDOF 3
ENDMDL
MODEL       78
REMARK 921   NORMALIZED FREE ENERGY PREDICTED BY IDOCK:   -3.52 KCAL/MOL
REMARK 922        TOTAL FREE ENERGY PREDICTED BY IDOCK:   -4.33 KCAL/MOL
REMARK 923 INTER-LIGAND FREE ENERGY PREDICTED BY IDOCK:   -4.12 KCAL/MOL
REMARK 924 INTRA-LIGAND FREE ENERGY PREDICTED BY IDOCK:   -0.21 KCAL/MOL
REMARK 927      BINDING AFFINITY PREDICTED BY RF-SCORE:    0.00 PKD
ROOT
HETATM    1  C   UNL     1     -10.524  19.697  66.015  1.00  0.00    -0.523 C  
HETATM    2  O   UNL     1     -10.808  19.266  67.343  1.00  0.00    -0.486 OA 
ENDROOT
BRANCH   2   3
HETATM    3  C   UNL     1     -10.195  18.120  67.772  1.00  0.00    -0.383 A  
HETATM    4  C   UNL     1      -8.946  18.017  68.388  1.00  0.00    -0.279 A  
HETATM    5  O   UNL     1      -8.118  19.085  68.590  1.00  0.00    -0.344 OA 
HETATM    6  C   UNL     1      -8.433  16.778  68.764  1.00  0.00    -0.253 A  
HETATM    7  H   UNL     1      -7.268  19.016  69.009  1.00  0.00     0.000 HD 
HETATM    8  C   UNL     1      -9.143  15.612  68.481  1.00  0.00    -0.196 A  
HETATM    9  C   UNL     1     -10.385  15.681  67.838  1.00  0.00    -0.259 A  
HETATM   10  C   UNL     1     -10.900  16.943  67.489  1.00  0.00    -0.207 A  
BRANCH   9  11
HETATM   11  C   UNL     1     -11.136  14.414  67.500  1.00  0.00    -0.312 C  
BRANCH  11  12
HETATM   12  C   UNL     1     -11.515  14.338  66.047  1.00  0.00    -0.347 C  
HETATM   13  C   UNL     1     -12.682  13.863  65.590  1.00  0.00    -0.534 C  
ENDBRANCH  11  12
ENDBRANCH   9  11
ENDBRANCH   2   3
TORSDOF 3
ENDMDL
MODEL       79
REMARK 921   NORMALIZED FREE ENERGY PREDICTED BY IDOCK:   -3.52 KCAL/MOL
REMARK 922        TOTAL FREE ENERGY PREDICTED BY IDOCK:   -4.33 KCAL/MOL
REMARK 923 INTER-LIGAND FREE ENERGY PREDICTED BY IDOCK:   -4.11 KCAL/MOL
REMARK 924 INTRA-LIGAND FREE ENERGY PREDICTED BY IDOCK:   -0.22 KCAL/MOL
REMARK 927      BINDING AFFINITY PREDICTED BY RF-SCORE:    0.00 PKD
ROOT
HETATM    1  C   UNL     1     -11.643  15.657  64.254  1.00  0.00    -0.189 C  
HETATM    2  O   UNL     1     -11.244  17.009  64.454  1.00  0.00    -1.167 OA 
ENDROOT
BRANCH   2   3
HETATM    3  C   UNL     1     -10.650  17.315  65.649  1.00  0.00    -0.166 A  
HETATM    4  C   UNL     1     -10.414  18.592  66.165  1.00  0.00    -0.413 A  
HETATM    5  O   UNL     1     -10.700  19.742  65.485  1.00  0.00    -0.479 OA 
HETATM    6  C   UNL     1      -9.783  18.761  67.395  1.00  0.00    -0.340 A  
HETATM    7  H   UNL     1     -10.540  20.610  65.836  1.00  0.00     0.000 HD 
HETATM    8  C   UNL     1      -9.331  17.651  68.108  1.00  0.00    -0.279 A  
HETATM    9  C   UNL     1      -9.527  16.361  67.603  1.00  0.00    -0.225 A  
HETATM   10  C   UNL     1     -10.189  16.207  66.371  1.00  0.00    -0.315 A  
BRANCH   9  11
HETATM   11  C   UNL     1      -9.004  15.162  68.360  1.00  0.00    -0.183 C  
BRANCH  11  12
HETATM   12  C   UNL     1      -8.221  14.223  67.484  1.00  0.00    -0.201 C  
HETATM   13  C   UNL     1      -6.886  14.109  67.496  1.00  0.00    -0.151 C  
ENDBRANCH  11  12
ENDBRANCH   9  11
ENDBRANCH   2   3
TORSDOF 3
ENDMDL
MODEL       80
REMARK 921   NORMALIZED FREE ENERGY PREDICTED BY IDOCK:   -3.49 KCAL/MOL
REMARK 922        TOTAL FREE ENERGY PREDICTED BY IDOCK:   -4.30 KCAL/MOL
REMARK 923 INTER-LIGAND FREE ENERGY PREDICTED BY IDOCK:   -4.10 KCAL/MOL
REMARK 924 INTRA-LIGAND FREE ENERGY PREDICTED BY IDOCK:   -0.20 KCAL/MOL
REMARK 927      BINDING AFFINITY PREDICTED BY RF-SCORE:    0.00 PKD
ROOT
HETATM    1  C   UNL     1      -7.768  11.182  66.400  1.00  0.00    -0.124 C  
HETATM    2  O   UNL     1      -9.090  11.072  65.882  1.00  0.00    -0.186 OA 
ENDROOT
BRANCH   2   3
HETATM    3  C   UNL     1      -9.975  12.063  66.213  1.00  0.00    -0.227 A  
HETATM    4  C   UNL     1     -10.340  13.158  65.425  1.00  0.00    -0.301 A  
HETATM    5  O   UNL     1      -9.789  13.421  64.203  1.00  0.00    -0.735 OA 
HETATM    6  C   UNL     1     -11.247  14.105  65.894  1.00  0.00    -0.313 A  
HETATM    7  H   UNL     1     -10.037  14.165  63.667  1.00  0.00     0.000 HD 
HETATM    8  C   UNL     1     -11.767  13.999  67.183  1.00  0.00    -0.421 A  
HETATM    9  C   UNL     1     -11.397  12.929  68.006  1.00  0.00    -0.333 A  
HETATM   10  C   UNL     1     -10.500  11.967  67.508  1.00  0.00    -0.233 A  
BRANCH   9  11
HETATM   11  C   UNL     1     -11.934  12.835  69.416  1.00  0.00    -0.321 C  
BRANCH  11  12
HETATM   12  C   UNL     1     -12.083  11.413  69.883  1.00  0.00    -0.404 C  
HETATM   13  C   UNL     1     -12.419  11.056  71.130  1.00  0.00    -0.502 C  
ENDBRANCH  11  12
ENDBRANCH   9  11
ENDBRANCH   2   3
TORSDOF 3
ENDMDL
MODEL       81
REMARK 921   NORMALIZED FREE ENERGY PREDICTED BY IDOCK:   -3.48 KCAL/MOL
REMARK 922        TOTAL FREE ENERGY PREDICTED BY IDOCK:   -4.28 KCAL/MOL
REMARK 923 INTER-LIGAND FREE ENERGY PREDICTED BY IDOCK:   -4.09 KCAL/MOL
REMARK 924 INTRA-LIGAND FREE ENERGY PREDICTED BY IDOCK:   -0.19 KCAL/MOL
REMARK 927      BINDING AFFINITY PREDICTED BY RF-SCORE:    0.00 PKD
ROOT
HETATM    1  C   UNL     1     -11.308   5.117  72.833  1.00  0.00    -0.282 C  
HETATM    2  O   UNL     1     -12.353   6.008  72.454  1.00  0.00    -0.221 OA 
ENDROOT
BRANCH   2   3
HETATM    3  C   UNL     1     -11.988   7.163  71.815  1.00  0.00    -0.313 A  
HETATM    4  C   UNL     1     -12.398   8.460  72.131  1.00  0.00    -0.370 A  
HETATM    5  O   UNL     1     -13.301   8.744  73.116  1.00  0.00    -0.918 OA 
HETATM    6  C   UNL     1     -11.959   9.551  71.384  1.00  0.00    -0.464 A  
HETATM    7  H   UNL     1     -13.581   9.626  73.331  1.00  0.00     0.000 HD 
HETATM    8  C   UNL     1     -11.139   9.355  70.274  1.00  0.00    -0.299 A  
HETATM    9  C   UNL     1     -10.735   8.063  69.916  1.00  0.00    -0.242 A  
HETATM   10  C   UNL     1     -11.167   6.975  70.696  1.00  0.00    -0.327 A  
BRANCH   9  11
HETATM   11  C   UNL     1      -9.876   7.849  68.691  1.00  0.00    -0.177 C  
BRANCH  11  12
HETATM   12  C   UNL     1     -10.496   6.891  67.711  1.00  0.00    -0.279 C  
HETATM   13  C   UNL     1      -9.809   6.176  66.810  1.00  0.00    -0.203 C  
ENDBRANCH  11  12
ENDBRANCH   9  11
ENDBRANCH   2   3
TORSDOF 3
ENDMDL
MODEL       82
REMARK 921   NORMALIZED FREE ENERGY PREDICTED BY IDOCK:   -3.47 KCAL/MOL
REMARK 922        TOTAL FREE ENERGY PREDICTED BY IDOCK:   -4.27 KCAL/MOL
REMARK 923 INTER-LIGAND FREE ENERGY PREDICTED BY IDOCK:   -4.05 KCAL/MOL
REMARK 924 INTRA-LIGAND FREE ENERGY PREDICTED BY IDOCK:   -0.23 KCAL/MOL
REMARK 927      BINDING AFFINITY PREDICTED BY RF-SCORE:    0.00 PKD
ROOT
HETATM    1  C   UNL     1     -10.364  20.062  66.252  1.00  0.00    -0.455 C  
HETATM    2  O   UNL     1     -10.222  19.877  67.656  1.00  0.00    -0.394 OA 
ENDROOT
BRANCH   2   3
HETATM    3  C   UNL     1      -9.297  18.957  68.075  1.00  0.00    -0.308 A  
HETATM    4  C   UNL     1      -9.497  17.585  68.242  1.00  0.00    -0.296 A  
HETATM    5  O   UNL     1     -10.705  16.974  68.062  1.00  0.00    -0.357 OA 
HETATM    6  C   UNL     1      -8.466  16.762  68.691  1.00  0.00    -0.259 A  
HETATM    7  H   UNL     1     -10.841  16.040  68.175  1.00  0.00     0.000 HD 
HETATM    8  C   UNL     1      -7.230  17.310  69.031  1.00  0.00    -0.227 A  
HETATM    9  C   UNL     1      -7.010  18.687  68.902  1.00  0.00    -0.314 A  
HETATM   10  C   UNL     1      -8.053  19.500  68.422  1.00  0.00    -0.377 A  
BRANCH   9  11
HETATM   11  C   UNL     1      -5.681  19.284  69.305  1.00  0.00    -0.247 C  
BRANCH  11  12
HETATM   12  C   UNL     1      -5.818  20.320  70.386  1.00  0.00    -0.383 C  
HETATM   13  C   UNL     1      -5.324  20.194  71.625  1.00  0.00    -0.429 C  
ENDBRANCH  11  12
ENDBRANCH   9  11
ENDBRANCH   2   3
TORSDOF 3
ENDMDL
MODEL       83
REMARK 921   NORMALIZED FREE ENERGY PREDICTED BY IDOCK:   -3.47 KCAL/MOL
REMARK 922        TOTAL FREE ENERGY PREDICTED BY IDOCK:   -4.26 KCAL/MOL
REMARK 923 INTER-LIGAND FREE ENERGY PREDICTED BY IDOCK:   -4.03 KCAL/MOL
REMARK 924 INTRA-LIGAND FREE ENERGY PREDICTED BY IDOCK:   -0.24 KCAL/MOL
REMARK 927      BINDING AFFINITY PREDICTED BY RF-SCORE:    0.00 PKD
ROOT
HETATM    1  C   UNL     1      -8.278  11.334  67.183  1.00  0.00    -0.149 C  
HETATM    2  O   UNL     1      -8.836  11.851  65.979  1.00  0.00    -0.135 OA 
ENDROOT
BRANCH   2   3
HETATM    3  C   UNL     1      -9.966  12.617  66.092  1.00  0.00    -0.261 A  
HETATM    4  C   UNL     1     -10.677  13.220  65.053  1.00  0.00    -0.333 A  
HETATM    5  O   UNL     1     -10.283  13.172  63.745  1.00  0.00    -0.678 OA 
HETATM    6  C   UNL     1     -11.808  13.990  65.312  1.00  0.00    -0.363 A  
HETATM    7  H   UNL     1     -10.766  13.582  63.038  1.00  0.00     0.000 HD 
HETATM    8  C   UNL     1     -12.218  14.212  66.626  1.00  0.00    -0.450 A  
HETATM    9  C   UNL     1     -11.508  13.644  67.691  1.00  0.00    -0.357 A  
HETATM   10  C   UNL     1     -10.383  12.848  67.409  1.00  0.00    -0.233 A  
BRANCH   9  11
HETATM   11  C   UNL     1     -11.932  13.915  69.116  1.00  0.00    -0.404 C  
BRANCH  11  12
HETATM   12  C   UNL     1     -11.808  15.366  69.489  1.00  0.00    -0.370 C  
HETATM   13  C   UNL     1     -10.732  16.125  69.239  1.00  0.00    -0.295 C  
ENDBRANCH  11  12
ENDBRANCH   9  11
ENDBRANCH   2   3
TORSDOF 3
ENDMDL
MODEL       84
REMARK 921   NORMALIZED FREE ENERGY PREDICTED BY IDOCK:   -3.46 KCAL/MOL
REMARK 922        TOTAL FREE ENERGY PREDICTED BY IDOCK:   -4.26 KCAL/MOL
REMARK 923 INTER-LIGAND FREE ENERGY PREDICTED BY IDOCK:   -4.17 KCAL/MOL
REMARK 924 INTRA-LIGAND FREE ENERGY PREDICTED BY IDOCK:   -0.10 KCAL/MOL
REMARK 927      BINDING AFFINITY PREDICTED BY RF-SCORE:    0.00 PKD
ROOT
HETATM    1  C   UNL     1     -12.291  14.809  64.325  1.00  0.00    -0.320 C  
HETATM    2  O   UNL     1     -12.317  13.702  65.221  1.00  0.00    -0.410 OA 
ENDROOT
BRANCH   2   3
HETATM    3  C   UNL     1     -11.414  13.709  66.250  1.00  0.00    -0.333 A  
HETATM    4  C   UNL     1     -10.066  13.350  66.184  1.00  0.00    -0.302 A  
HETATM    5  O   UNL     1      -9.471  12.867  65.052  1.00  0.00    -0.453 OA 
HETATM    6  C   UNL     1      -9.259  13.390  67.318  1.00  0.00    -0.222 A  
HETATM    7  H   UNL     1      -8.554  12.622  65.007  1.00  0.00     0.000 HD 
HETATM    8  C   UNL     1      -9.803  13.743  68.552  1.00  0.00    -0.204 A  
HETATM    9  C   UNL     1     -11.158  14.080  68.655  1.00  0.00    -0.286 A  
HETATM   10  C   UNL     1     -11.952  14.059  67.494  1.00  0.00    -0.430 A  
BRANCH   9  11
HETATM   11  C   UNL     1     -11.754  14.427  69.999  1.00  0.00    -0.360 C  
BRANCH  11  12
HETATM   12  C   UNL     1     -12.316  13.226  70.709  1.00  0.00    -0.425 C  
HETATM   13  C   UNL     1     -12.110  11.957  70.333  1.00  0.00    -0.421 C  
ENDBRANCH  11  12
ENDBRANCH   9  11
ENDBRANCH   2   3
TORSDOF 3
ENDMDL
MODEL       85
REMARK 921   NORMALIZED FREE ENERGY PREDICTED BY IDOCK:   -3.45 KCAL/MOL
REMARK 922        TOTAL FREE ENERGY PREDICTED BY IDOCK:   -4.24 KCAL/MOL
REMARK 923 INTER-LIGAND FREE ENERGY PREDICTED BY IDOCK:   -4.04 KCAL/MOL
REMARK 924 INTRA-LIGAND FREE ENERGY PREDICTED BY IDOCK:   -0.20 KCAL/MOL
REMARK 927      BINDING AFFINITY PREDICTED BY RF-SCORE:    0.00 PKD
ROOT
HETATM    1  C   UNL     1     -10.271  14.741  66.996  1.00  0.00    -0.253 C  
HETATM    2  O   UNL     1     -11.639  14.500  67.309  1.00  0.00    -0.355 OA 
ENDROOT
BRANCH   2   3
HETATM    3  C   UNL     1     -11.917  13.998  68.552  1.00  0.00    -0.348 A  
HETATM    4  C   UNL     1     -12.370  14.714  69.662  1.00  0.00    -0.230 A  
HETATM    5  O   UNL     1     -12.538  16.070  69.665  1.00  0.00    -0.479 OA 
HETATM    6  C   UNL     1     -12.601  14.076  70.879  1.00  0.00    -0.431 A  
HETATM    7  H   UNL     1     -12.846  16.557  70.420  1.00  0.00     0.000 HD 
HETATM    8  C   UNL     1     -12.332  12.715  71.018  1.00  0.00    -0.307 A  
HETATM    9  C   UNL     1     -11.849  11.977  69.930  1.00  0.00    -0.405 A  
HETATM   10  C   UNL     1     -11.647  12.632  68.702  1.00  0.00    -0.356 A  
BRANCH   9  11
HETATM   11  C   UNL     1     -11.525  10.510  70.093  1.00  0.00    -0.405 C  
BRANCH  11  12
HETATM   12  C   UNL     1     -10.502  10.032  69.100  1.00  0.00    -0.238 C  
HETATM   13  C   UNL     1     -10.321   8.751  68.753  1.00  0.00    -0.234 C  
ENDBRANCH  11  12
ENDBRANCH   9  11
ENDBRANCH   2   3
TORSDOF 3
ENDMDL
MODEL       86
REMARK 921   NORMALIZED FREE ENERGY PREDICTED BY IDOCK:   -3.44 KCAL/MOL
REMARK 922        TOTAL FREE ENERGY PREDICTED BY IDOCK:   -4.23 KCAL/MOL
REMARK 923 INTER-LIGAND FREE ENERGY PREDICTED BY IDOCK:   -4.05 KCAL/MOL
REMARK 924 INTRA-LIGAND FREE ENERGY PREDICTED BY IDOCK:   -0.18 KCAL/MOL
REMARK 927      BINDING AFFINITY PREDICTED BY RF-SCORE:    0.00 PKD
ROOT
HETATM    1  C   UNL     1      -8.483   9.312  65.411  1.00  0.00    -0.145 C  
HETATM    2  O   UNL     1      -9.766   9.239  66.023  1.00  0.00    -0.254 OA 
ENDROOT
BRANCH   2   3
HETATM    3  C   UNL     1     -10.372  10.423  66.348  1.00  0.00    -0.213 A  
HETATM    4  C   UNL     1     -11.124  10.693  67.493  1.00  0.00    -0.300 A  
HETATM    5  O   UNL     1     -11.416   9.752  68.440  1.00  0.00    -0.515 OA 
HETATM    6  C   UNL     1     -11.700  11.946  67.692  1.00  0.00    -0.346 A  
HETATM    7  H   UNL     1     -11.928   9.935  69.219  1.00  0.00     0.000 HD 
HETATM    8  C   UNL     1     -11.573  12.936  66.720  1.00  0.00    -0.416 A  
HETATM    9  C   UNL     1     -10.849  12.686  65.549  1.00  0.00    -0.310 A  
HETATM   10  C   UNL     1     -10.252  11.424  65.376  1.00  0.00    -0.320 A  
BRANCH   9  11
HETATM   11  C   UNL     1     -10.743  13.750  64.480  1.00  0.00    -0.405 C  
BRANCH  11  12
HETATM   12  C   UNL     1     -11.003  15.131  65.014  1.00  0.00    -0.443 C  
HETATM   13  C   UNL     1     -10.081  15.903  65.606  1.00  0.00    -0.388 C  
ENDBRANCH  11  12
ENDBRANCH   9  11
ENDBRANCH   2   3
TORSDOF 3
ENDMDL
MODEL       87
REMARK 921   NORMALIZED FREE ENERGY PREDICTED BY IDOCK:   -3.44 KCAL/MOL
REMARK 922        TOTAL FREE ENERGY PREDICTED BY IDOCK:   -4.23 KCAL/MOL
REMARK 923 INTER-LIGAND FREE ENERGY PREDICTED BY IDOCK:   -4.04 KCAL/MOL
REMARK 924 INTRA-LIGAND FREE ENERGY PREDICTED BY IDOCK:   -0.19 KCAL/MOL
REMARK 927      BINDING AFFINITY PREDICTED BY RF-SCORE:    0.00 PKD
ROOT
HETATM    1  C   UNL     1     -11.506  15.593  70.732  1.00  0.00    -0.379 C  
HETATM    2  O   UNL     1     -12.210  15.706  69.499  1.00  0.00    -0.337 OA 
ENDROOT
BRANCH   2   3
HETATM    3  C   UNL     1     -11.465  15.699  68.351  1.00  0.00    -0.369 A  
HETATM    4  C   UNL     1     -11.645  14.871  67.241  1.00  0.00    -0.324 A  
HETATM    5  O   UNL     1     -12.586  13.881  67.186  1.00  0.00    -0.450 OA 
HETATM    6  C   UNL     1     -10.800  14.960  66.137  1.00  0.00    -0.327 A  
HETATM    7  H   UNL     1     -12.709  13.318  66.431  1.00  0.00     0.000 HD 
HETATM    8  C   UNL     1      -9.725  15.847  66.148  1.00  0.00    -0.351 A  
HETATM    9  C   UNL     1      -9.502  16.670  67.259  1.00  0.00    -0.234 A  
HETATM   10  C   UNL     1     -10.381  16.586  68.354  1.00  0.00    -0.294 A  
BRANCH   9  11
HETATM   11  C   UNL     1      -8.316  17.606  67.284  1.00  0.00    -0.225 C  
BRANCH  11  12
HETATM   12  C   UNL     1      -8.403  18.619  68.393  1.00  0.00    -0.362 C  
HETATM   13  C   UNL     1      -7.399  19.423  68.766  1.00  0.00    -0.390 C  
ENDBRANCH  11  12
ENDBRANCH   9  11
ENDBRANCH   2   3
TORSDOF 3
ENDMDL
MODEL       88
REMARK 921   NORMALIZED FREE ENERGY PREDICTED BY IDOCK:   -3.43 KCAL/MOL
REMARK 922        TOTAL FREE ENERGY PREDICTED BY IDOCK:   -4.23 KCAL/MOL
REMARK 923 INTER-LIGAND FREE ENERGY PREDICTED BY IDOCK:   -4.00 KCAL/MOL
REMARK 924 INTRA-LIGAND FREE ENERGY PREDICTED BY IDOCK:   -0.22 KCAL/MOL
REMARK 927      BINDING AFFINITY PREDICTED BY RF-SCORE:    0.00 PKD
ROOT
HETATM    1  C   UNL     1     -11.400  15.613  64.457  1.00  0.00    -0.320 C  
HETATM    2  O   UNL     1     -10.396  16.338  65.161  1.00  0.00    -0.587 OA 
ENDROOT
BRANCH   2   3
HETATM    3  C   UNL     1     -10.510  16.400  66.524  1.00  0.00    -0.282 A  
HETATM    4  C   UNL     1      -9.987  17.386  67.364  1.00  0.00    -0.305 A  
HETATM    5  O   UNL     1      -9.212  18.419  66.919  1.00  0.00    -0.271 OA 
HETATM    6  C   UNL     1     -10.167  17.318  68.744  1.00  0.00    -0.353 A  
HETATM    7  H   UNL     1      -8.857  19.090  67.490  1.00  0.00     0.000 HD 
HETATM    8  C   UNL     1     -10.830  16.231  69.311  1.00  0.00    -0.318 A  
HETATM    9  C   UNL     1     -11.339  15.213  68.496  1.00  0.00    -0.321 A  
HETATM   10  C   UNL     1     -11.172  15.310  67.103  1.00  0.00    -0.291 A  
BRANCH   9  11
HETATM   11  C   UNL     1     -12.027  14.018  69.116  1.00  0.00    -0.400 C  
BRANCH  11  12
HETATM   12  C   UNL     1     -11.613  12.720  68.479  1.00  0.00    -0.358 C  
HETATM   13  C   UNL     1     -10.679  11.895  68.972  1.00  0.00    -0.197 C  
ENDBRANCH  11  12
ENDBRANCH   9  11
ENDBRANCH   2   3
TORSDOF 3
ENDMDL
MODEL       89
REMARK 921   NORMALIZED FREE ENERGY PREDICTED BY IDOCK:   -3.42 KCAL/MOL
REMARK 922        TOTAL FREE ENERGY PREDICTED BY IDOCK:   -4.21 KCAL/MOL
REMARK 923 INTER-LIGAND FREE ENERGY PREDICTED BY IDOCK:   -3.98 KCAL/MOL
REMARK 924 INTRA-LIGAND FREE ENERGY PREDICTED BY IDOCK:   -0.23 KCAL/MOL
REMARK 927      BINDING AFFINITY PREDICTED BY RF-SCORE:    0.00 PKD
ROOT
HETATM    1  C   UNL     1     -10.985  14.848  67.066  1.00  0.00    -0.327 C  
HETATM    2  O   UNL     1     -11.902  14.592  68.125  1.00  0.00    -0.327 OA 
ENDROOT
BRANCH   2   3
HETATM    3  C   UNL     1     -11.868  13.347  68.693  1.00  0.00    -0.362 A  
HETATM    4  C   UNL     1     -12.123  13.028  70.029  1.00  0.00    -0.297 A  
HETATM    5  O   UNL     1     -12.385  13.965  70.989  1.00  0.00    -0.346 OA 
HETATM    6  C   UNL     1     -12.039  11.712  70.479  1.00  0.00    -0.458 A  
HETATM    7  H   UNL     1     -12.557  13.749  71.897  1.00  0.00     0.000 HD 
HETATM    8  C   UNL     1     -11.648  10.698  69.607  1.00  0.00    -0.368 A  
HETATM    9  C   UNL     1     -11.359  10.991  68.269  1.00  0.00    -0.366 A  
HETATM   10  C   UNL     1     -11.474  12.321  67.825  1.00  0.00    -0.392 A  
BRANCH   9  11
HETATM   11  C   UNL     1     -10.901   9.896  67.333  1.00  0.00    -0.293 C  
BRANCH  11  12
HETATM   12  C   UNL     1      -9.940   8.942  67.989  1.00  0.00    -0.215 C  
HETATM   13  C   UNL     1     -10.121   7.617  68.069  1.00  0.00    -0.226 C  
ENDBRANCH  11  12
ENDBRANCH   9  11
ENDBRANCH   2   3
TORSDOF 3
ENDMDL
MODEL       90
REMARK 921   NORMALIZED FREE ENERGY PREDICTED BY IDOCK:   -3.41 KCAL/MOL
REMARK 922        TOTAL FREE ENERGY PREDICTED BY IDOCK:   -4.20 KCAL/MOL
REMARK 923 INTER-LIGAND FREE ENERGY PREDICTED BY IDOCK:   -4.21 KCAL/MOL
REMARK 924 INTRA-LIGAND FREE ENERGY PREDICTED BY IDOCK:    0.01 KCAL/MOL
REMARK 927      BINDING AFFINITY PREDICTED BY RF-SCORE:    0.00 PKD
ROOT
HETATM    1  C   UNL     1      -9.872  11.147  63.171  1.00  0.00    -0.372 C  
HETATM    2  O   UNL     1     -10.641  10.858  64.335  1.00  0.00    -0.360 OA 
ENDROOT
BRANCH   2   3
HETATM    3  C   UNL     1     -11.226  11.917  64.975  1.00  0.00    -0.293 A  
HETATM    4  C   UNL     1     -12.408  12.567  64.612  1.00  0.00    -0.474 A  
HETATM    5  O   UNL     1     -13.123  12.256  63.490  1.00  0.00    -0.766 OA 
HETATM    6  C   UNL     1     -12.886  13.647  65.350  1.00  0.00    -0.440 A  
HETATM    7  H   UNL     1     -13.927  12.697  63.243  1.00  0.00     0.000 HD 
HETATM    8  C   UNL     1     -12.159  14.128  66.438  1.00  0.00    -0.475 A  
HETATM    9  C   UNL     1     -10.956  13.516  66.808  1.00  0.00    -0.297 A  
HETATM   10  C   UNL     1     -10.501  12.409  66.068  1.00  0.00    -0.281 A  
BRANCH   9  11
HETATM   11  C   UNL     1     -10.151  14.061  67.965  1.00  0.00    -0.239 C  
BRANCH  11  12
HETATM   12  C   UNL     1      -9.190  13.050  68.527  1.00  0.00    -0.062 C  
HETATM   13  C   UNL     1      -7.925  12.895  68.114  1.00  0.00    -0.153 C  
ENDBRANCH  11  12
ENDBRANCH   9  11
ENDBRANCH   2   3
TORSDOF 3
ENDMDL
MODEL       91
REMARK 921   NORMALIZED FREE ENERGY PREDICTED BY IDOCK:   -3.39 KCAL/MOL
REMARK 922        TOTAL FREE ENERGY PREDICTED BY IDOCK:   -4.17 KCAL/MOL
REMARK 923 INTER-LIGAND FREE ENERGY PREDICTED BY IDOCK:   -4.14 KCAL/MOL
REMARK 924 INTRA-LIGAND FREE ENERGY PREDICTED BY IDOCK:   -0.03 KCAL/MOL
REMARK 927      BINDING AFFINITY PREDICTED BY RF-SCORE:    0.00 PKD
ROOT
HETATM    1  C   UNL     1     -11.649  11.283  69.733  1.00  0.00    -0.333 C  
HETATM    2  O   UNL     1     -12.274  11.158  68.460  1.00  0.00    -0.600 OA 
ENDROOT
BRANCH   2   3
HETATM    3  C   UNL     1     -11.455  11.094  67.365  1.00  0.00    -0.180 A  
HETATM    4  C   UNL     1     -10.468  10.138  67.112  1.00  0.00    -0.246 A  
HETATM    5  O   UNL     1     -10.140   9.145  67.991  1.00  0.00    -0.176 OA 
HETATM    6  C   UNL     1      -9.692  10.200  65.957  1.00  0.00    -0.285 A  
HETATM    7  H   UNL     1      -9.469   8.495  67.820  1.00  0.00     0.000 HD 
HETATM    8  C   UNL     1      -9.857  11.252  65.058  1.00  0.00    -0.307 A  
HETATM    9  C   UNL     1     -10.819  12.241  65.299  1.00  0.00    -0.332 A  
HETATM   10  C   UNL     1     -11.612  12.149  66.457  1.00  0.00    -0.425 A  
BRANCH   9  11
HETATM   11  C   UNL     1     -10.972  13.400  64.342  1.00  0.00    -0.413 C  
BRANCH  11  12
HETATM   12  C   UNL     1     -11.518  14.632  65.010  1.00  0.00    -0.386 C  
HETATM   13  C   UNL     1     -10.893  15.817  65.044  1.00  0.00    -0.461 C  
ENDBRANCH  11  12
ENDBRANCH   9  11
ENDBRANCH   2   3
TORSDOF 3
ENDMDL
MODEL       92
REMARK 921   NORMALIZED FREE ENERGY PREDICTED BY IDOCK:   -3.34 KCAL/MOL
REMARK 922        TOTAL FREE ENERGY PREDICTED BY IDOCK:   -4.11 KCAL/MOL
REMARK 923 INTER-LIGAND FREE ENERGY PREDICTED BY IDOCK:   -3.93 KCAL/MOL
REMARK 924 INTRA-LIGAND FREE ENERGY PREDICTED BY IDOCK:   -0.19 KCAL/MOL
REMARK 927      BINDING AFFINITY PREDICTED BY RF-SCORE:    0.00 PKD
ROOT
HETATM    1  C   UNL     1     -12.265  11.466  69.217  1.00  0.00    -0.204 C  
HETATM    2  O   UNL     1     -11.834  12.475  68.309  1.00  0.00    -0.324 OA 
ENDROOT
BRANCH   2   3
HETATM    3  C   UNL     1     -11.476  12.072  67.050  1.00  0.00    -0.338 A  
HETATM    4  C   UNL     1     -11.871  12.650  65.841  1.00  0.00    -0.444 A  
HETATM    5  O   UNL     1     -12.750  13.693  65.758  1.00  0.00    -0.471 OA 
HETATM    6  C   UNL     1     -11.441  12.126  64.624  1.00  0.00    -0.388 A  
HETATM    7  H   UNL     1     -13.019  14.086  64.936  1.00  0.00     0.000 HD 
HETATM    8  C   UNL     1     -10.648  10.981  64.596  1.00  0.00    -0.369 A  
HETATM    9  C   UNL     1     -10.260  10.362  65.791  1.00  0.00    -0.305 A  
HETATM   10  C   UNL     1     -10.681  10.920  67.012  1.00  0.00    -0.323 A  
BRANCH   9  11
HETATM   11  C   UNL     1      -9.429   9.100  65.758  1.00  0.00    -0.322 C  
BRANCH  11  12
HETATM   12  C   UNL     1     -10.043   7.984  66.557  1.00  0.00    -0.270 C  
HETATM   13  C   UNL     1      -9.382   6.896  66.974  1.00  0.00    -0.170 C  
ENDBRANCH  11  12
ENDBRANCH   9  11
ENDBRANCH   2   3
TORSDOF 3
ENDMDL
MODEL       93
REMARK 921   NORMALIZED FREE ENERGY PREDICTED BY IDOCK:   -3.33 KCAL/MOL
REMARK 922        TOTAL FREE ENERGY PREDICTED BY IDOCK:   -4.10 KCAL/MOL
REMARK 923 INTER-LIGAND FREE ENERGY PREDICTED BY IDOCK:   -3.89 KCAL/MOL
REMARK 924 INTRA-LIGAND FREE ENERGY PREDICTED BY IDOCK:   -0.21 KCAL/MOL
REMARK 927      BINDING AFFINITY PREDICTED BY RF-SCORE:    0.00 PKD
ROOT
HETATM    1  C   UNL     1     -12.915  11.599  71.094  1.00  0.00    -0.212 C  
HETATM    2  O   UNL     1     -11.824  10.718  70.842  1.00  0.00    -0.326 OA 
ENDROOT
BRANCH   2   3
HETATM    3  C   UNL     1     -11.433  10.564  69.539  1.00  0.00    -0.272 A  
HETATM    4  C   UNL     1     -10.776   9.463  68.986  1.00  0.00    -0.187 A  
HETATM    5  O   UNL     1     -10.368   8.385  69.720  1.00  0.00    -0.207 OA 
HETATM    6  C   UNL     1     -10.422   9.443  67.639  1.00  0.00    -0.328 A  
HETATM    7  H   UNL     1      -9.920   7.636  69.344  1.00  0.00     0.000 HD 
HETATM    8  C   UNL     1     -10.675  10.552  66.832  1.00  0.00    -0.281 A  
HETATM    9  C   UNL     1     -11.307  11.682  67.366  1.00  0.00    -0.367 A  
HETATM   10  C   UNL     1     -11.681  11.674  68.722  1.00  0.00    -0.392 A  
BRANCH   9  11
HETATM   11  C   UNL     1     -11.548  12.896  66.499  1.00  0.00    -0.425 C  
BRANCH  11  12
HETATM   12  C   UNL     1     -11.415  12.593  65.032  1.00  0.00    -0.366 C  
HETATM   13  C   UNL     1     -11.980  13.313  64.053  1.00  0.00    -0.525 C  
ENDBRANCH  11  12
ENDBRANCH   9  11
ENDBRANCH   2   3
TORSDOF 3
ENDMDL
MODEL       94
REMARK 921   NORMALIZED FREE ENERGY PREDICTED BY IDOCK:   -3.33 KCAL/MOL
REMARK 922        TOTAL FREE ENERGY PREDICTED BY IDOCK:   -4.10 KCAL/MOL
REMARK 923 INTER-LIGAND FREE ENERGY PREDICTED BY IDOCK:   -3.98 KCAL/MOL
REMARK 924 INTRA-LIGAND FREE ENERGY PREDICTED BY IDOCK:   -0.13 KCAL/MOL
REMARK 927      BINDING AFFINITY PREDICTED BY RF-SCORE:    0.00 PKD
ROOT
HETATM    1  C   UNL     1     -10.548   6.483  68.348  1.00  0.00    -0.246 C  
HETATM    2  O   UNL     1     -11.613   6.298  69.275  1.00  0.00    -0.363 OA 
ENDROOT
BRANCH   2   3
HETATM    3  C   UNL     1     -11.458   6.844  70.521  1.00  0.00    -0.342 A  
HETATM    4  C   UNL     1     -11.463   8.202  70.848  1.00  0.00    -0.271 A  
HETATM    5  O   UNL     1     -11.562   9.198  69.918  1.00  0.00    -0.452 OA 
HETATM    6  C   UNL     1     -11.279   8.623  72.163  1.00  0.00    -0.438 A  
HETATM    7  H   UNL     1     -11.565  10.122  70.139  1.00  0.00     0.000 HD 
HETATM    8  C   UNL     1     -11.036   7.689  73.169  1.00  0.00    -0.411 A  
HETATM    9  C   UNL     1     -10.996   6.322  72.867  1.00  0.00    -0.283 A  
HETATM   10  C   UNL     1     -11.210   5.913  71.538  1.00  0.00    -0.290 A  
BRANCH   9  11
HETATM   11  C   UNL     1     -10.697   5.314  73.952  1.00  0.00    -0.320 C  
BRANCH  11  12
HETATM   12  C   UNL     1     -10.473   3.930  73.408  1.00  0.00    -0.254 C  
HETATM   13  C   UNL     1     -11.231   2.865  73.705  1.00  0.00    -0.305 C  
ENDBRANCH  11  12
ENDBRANCH   9  11
ENDBRANCH   2   3
TORSDOF 3
ENDMDL
MODEL       95
REMARK 921   NORMALIZED FREE ENERGY PREDICTED BY IDOCK:   -3.32 KCAL/MOL
REMARK 922        TOTAL FREE ENERGY PREDICTED BY IDOCK:   -4.09 KCAL/MOL
REMARK 923 INTER-LIGAND FREE ENERGY PREDICTED BY IDOCK:   -3.86 KCAL/MOL
REMARK 924 INTRA-LIGAND FREE ENERGY PREDICTED BY IDOCK:   -0.23 KCAL/MOL
REMARK 927      BINDING AFFINITY PREDICTED BY RF-SCORE:    0.00 PKD
ROOT
HETATM    1  C   UNL     1     -11.966  13.961  66.561  1.00  0.00    -0.439 C  
HETATM    2  O   UNL     1     -10.591  14.137  66.233  1.00  0.00    -0.278 OA 
ENDROOT
BRANCH   2   3
HETATM    3  C   UNL     1      -9.865  14.990  67.020  1.00  0.00    -0.238 A  
HETATM    4  C   UNL     1      -9.392  14.742  68.310  1.00  0.00    -0.199 A  
HETATM    5  O   UNL     1      -9.659  13.594  69.002  1.00  0.00    -0.407 OA 
HETATM    6  C   UNL     1      -8.673  15.711  69.007  1.00  0.00    -0.240 A  
HETATM    7  H   UNL     1      -9.338  13.426  69.879  1.00  0.00     0.000 HD 
HETATM    8  C   UNL     1      -8.460  16.967  68.441  1.00  0.00    -0.239 A  
HETATM    9  C   UNL     1      -8.948  17.255  67.160  1.00  0.00    -0.236 A  
HETATM   10  C   UNL     1      -9.649  16.256  66.460  1.00  0.00    -0.286 A  
BRANCH   9  11
HETATM   11  C   UNL     1      -8.747  18.628  66.563  1.00  0.00    -0.312 C  
BRANCH  11  12
HETATM   12  C   UNL     1     -10.047  19.333  66.287  1.00  0.00    -0.519 C  
HETATM   13  C   UNL     1     -10.870  19.805  67.232  1.00  0.00    -0.469 C  
ENDBRANCH  11  12
ENDBRANCH   9  11
ENDBRANCH   2   3
TORSDOF 3
ENDMDL
MODEL       96
REMARK 921   NORMALIZED FREE ENERGY PREDICTED BY IDOCK:   -3.32 KCAL/MOL
REMARK 922        TOTAL FREE ENERGY PREDICTED BY IDOCK:   -4.09 KCAL/MOL
REMARK 923 INTER-LIGAND FREE ENERGY PREDICTED BY IDOCK:   -3.91 KCAL/MOL
REMARK 924 INTRA-LIGAND FREE ENERGY PREDICTED BY IDOCK:   -0.18 KCAL/MOL
REMARK 927      BINDING AFFINITY PREDICTED BY RF-SCORE:    0.00 PKD
ROOT
HETATM    1  C   UNL     1     -14.103   8.446  71.576  1.00  0.00    -0.373 C  
HETATM    2  O   UNL     1     -13.452   9.712  71.597  1.00  0.00    -0.382 OA 
ENDROOT
BRANCH   2   3
HETATM    3  C   UNL     1     -12.298   9.834  70.871  1.00  0.00    -0.290 A  
HETATM    4  C   UNL     1     -11.025   9.397  71.242  1.00  0.00    -0.370 A  
HETATM    5  O   UNL     1     -10.749   8.826  72.452  1.00  0.00    -0.315 OA 
HETATM    6  C   UNL     1      -9.928   9.599  70.407  1.00  0.00    -0.330 A  
HETATM    7  H   UNL     1      -9.883   8.529  72.705  1.00  0.00     0.000 HD 
HETATM    8  C   UNL     1     -10.080  10.291  69.206  1.00  0.00    -0.244 A  
HETATM    9  C   UNL     1     -11.339  10.767  68.822  1.00  0.00    -0.352 A  
HETATM   10  C   UNL     1     -12.441  10.530  69.664  1.00  0.00    -0.062 A  
BRANCH   9  11
HETATM   11  C   UNL     1     -11.495  11.547  67.537  1.00  0.00    -0.355 C  
BRANCH  11  12
HETATM   12  C   UNL     1     -11.565  13.032  67.769  1.00  0.00    -0.385 C  
HETATM   13  C   UNL     1     -11.802  13.939  66.812  1.00  0.00    -0.452 C  
ENDBRANCH  11  12
ENDBRANCH   9  11
ENDBRANCH   2   3
TORSDOF 3
ENDMDL
MODEL       97
REMARK 921   NORMALIZED FREE ENERGY PREDICTED BY IDOCK:   -3.26 KCAL/MOL
REMARK 922        TOTAL FREE ENERGY PREDICTED BY IDOCK:   -4.02 KCAL/MOL
REMARK 923 INTER-LIGAND FREE ENERGY PREDICTED BY IDOCK:   -3.77 KCAL/MOL
REMARK 924 INTRA-LIGAND FREE ENERGY PREDICTED BY IDOCK:   -0.25 KCAL/MOL
REMARK 927      BINDING AFFINITY PREDICTED BY RF-SCORE:    0.00 PKD
ROOT
HETATM    1  C   UNL     1      -7.517   8.922  64.911  1.00  0.00    -0.098 C  
HETATM    2  O   UNL     1      -8.941   8.930  64.913  1.00  0.00    -0.176 OA 
ENDROOT
BRANCH   2   3
HETATM    3  C   UNL     1      -9.560  10.143  64.770  1.00  0.00    -0.314 A  
HETATM    4  C   UNL     1     -10.021  10.713  63.581  1.00  0.00    -0.301 A  
HETATM    5  O   UNL     1      -9.848  10.136  62.354  1.00  0.00    -0.677 OA 
HETATM    6  C   UNL     1     -10.623  11.969  63.576  1.00  0.00    -0.514 A  
HETATM    7  H   UNL     1     -10.161  10.524  61.545  1.00  0.00     0.000 HD 
HETATM    8  C   UNL     1     -10.728  12.699  64.758  1.00  0.00    -0.335 A  
HETATM    9  C   UNL     1     -10.248  12.166  65.961  1.00  0.00    -0.265 A  
HETATM   10  C   UNL     1      -9.667  10.885  65.952  1.00  0.00    -0.269 A  
BRANCH   9  11
HETATM   11  C   UNL     1     -10.331  12.974  67.236  1.00  0.00    -0.238 C  
BRANCH  11  12
HETATM   12  C   UNL     1     -11.032  14.291  67.040  1.00  0.00    -0.305 C  
HETATM   13  C   UNL     1     -10.478  15.488  67.275  1.00  0.00    -0.279 C  
ENDBRANCH  11  12
ENDBRANCH   9  11
ENDBRANCH   2   3
TORSDOF 3
ENDMDL
MODEL       98
REMARK 921   NORMALIZED FREE ENERGY PREDICTED BY IDOCK:   -3.26 KCAL/MOL
REMARK 922        TOTAL FREE ENERGY PREDICTED BY IDOCK:   -4.02 KCAL/MOL
REMARK 923 INTER-LIGAND FREE ENERGY PREDICTED BY IDOCK:   -3.85 KCAL/MOL
REMARK 924 INTRA-LIGAND FREE ENERGY PREDICTED BY IDOCK:   -0.17 KCAL/MOL
REMARK 927      BINDING AFFINITY PREDICTED BY RF-SCORE:    0.00 PKD
ROOT
HETATM    1  C   UNL     1      -7.081  12.427  67.397  1.00  0.00    -0.152 C  
HETATM    2  O   UNL     1      -7.618  13.744  67.450  1.00  0.00    -0.173 OA 
ENDROOT
BRANCH   2   3
HETATM    3  C   UNL     1      -8.975  13.861  67.590  1.00  0.00    -0.192 A  
HETATM    4  C   UNL     1      -9.659  14.497  68.629  1.00  0.00    -0.219 A  
HETATM    5  O   UNL     1      -9.035  15.050  69.712  1.00  0.00    -0.452 OA 
HETATM    6  C   UNL     1     -11.051  14.529  68.655  1.00  0.00    -0.272 A  
HETATM    7  H   UNL     1      -9.500  15.482  70.418  1.00  0.00     0.000 HD 
HETATM    8  C   UNL     1     -11.785  13.878  67.665  1.00  0.00    -0.403 A  
HETATM    9  C   UNL     1     -11.128  13.207  66.626  1.00  0.00    -0.316 A  
HETATM   10  C   UNL     1      -9.721  13.207  66.601  1.00  0.00    -0.261 A  
BRANCH   9  11
HETATM   11  C   UNL     1     -11.924  12.472  65.574  1.00  0.00    -0.500 C  
BRANCH  11  12
HETATM   12  C   UNL     1     -12.124  13.288  64.326  1.00  0.00    -0.475 C  
HETATM   13  C   UNL     1     -12.193  14.626  64.298  1.00  0.00    -0.432 C  
ENDBRANCH  11  12
ENDBRANCH   9  11
ENDBRANCH   2   3
TORSDOF 3
ENDMDL
MODEL       99
REMARK 921   NORMALIZED FREE ENERGY PREDICTED BY IDOCK:   -3.25 KCAL/MOL
REMARK 922        TOTAL FREE ENERGY PREDICTED BY IDOCK:   -4.01 KCAL/MOL
REMARK 923 INTER-LIGAND FREE ENERGY PREDICTED BY IDOCK:   -3.86 KCAL/MOL
REMARK 924 INTRA-LIGAND FREE ENERGY PREDICTED BY IDOCK:   -0.15 KCAL/MOL
REMARK 927      BINDING AFFINITY PREDICTED BY RF-SCORE:    0.00 PKD
ROOT
HETATM    1  C   UNL     1      -8.454  15.486  66.777  1.00  0.00    -0.279 C  
HETATM    2  O   UNL     1      -7.949  15.743  68.083  1.00  0.00    -0.132 OA 
ENDROOT
BRANCH   2   3
HETATM    3  C   UNL     1      -7.557  17.025  68.360  1.00  0.00    -0.220 A  
HETATM    4  C   UNL     1      -6.535  17.420  69.226  1.00  0.00    -0.245 A  
HETATM    5  O   UNL     1      -5.811  16.544  69.984  1.00  0.00    -0.203 OA 
HETATM    6  C   UNL     1      -6.249  18.769  69.428  1.00  0.00    -0.289 A  
HETATM    7  H   UNL     1      -5.116  16.812  70.574  1.00  0.00     0.000 HD 
HETATM    8  C   UNL     1      -7.019  19.748  68.802  1.00  0.00    -0.366 A  
HETATM    9  C   UNL     1      -8.069  19.383  67.951  1.00  0.00    -0.333 A  
HETATM   10  C   UNL     1      -8.327  18.017  67.738  1.00  0.00    -0.249 A  
BRANCH   9  11
HETATM   11  C   UNL     1      -8.924  20.446  67.302  1.00  0.00    -0.460 C  
BRANCH  11  12
HETATM   12  C   UNL     1     -10.316  19.962  67.000  1.00  0.00    -0.592 C  
HETATM   13  C   UNL     1     -10.783  19.714  65.769  1.00  0.00    -0.493 C  
ENDBRANCH  11  12
ENDBRANCH   9  11
ENDBRANCH   2   3
TORSDOF 3
ENDMDL
MODEL      100
REMARK 921   NORMALIZED FREE ENERGY PREDICTED BY IDOCK:   -3.23 KCAL/MOL
REMARK 922        TOTAL FREE ENERGY PREDICTED BY IDOCK:   -3.98 KCAL/MOL
REMARK 923 INTER-LIGAND FREE ENERGY PREDICTED BY IDOCK:   -3.87 KCAL/MOL
REMARK 924 INTRA-LIGAND FREE ENERGY PREDICTED BY IDOCK:   -0.11 KCAL/MOL
REMARK 927      BINDING AFFINITY PREDICTED BY RF-SCORE:    0.00 PKD
ROOT
HETATM    1  C   UNL     1     -12.978  13.866  65.432  1.00  0.00    -0.326 C  
HETATM    2  O   UNL     1     -12.411  12.569  65.592  1.00  0.00    -0.648 OA 
ENDROOT
BRANCH   2   3
HETATM    3  C   UNL     1     -11.304  12.464  66.390  1.00  0.00    -0.342 A  
HETATM    4  C   UNL     1     -10.044  13.018  66.152  1.00  0.00    -0.285 A  
HETATM    5  O   UNL     1      -9.728  13.708  65.015  1.00  0.00    -0.578 OA 
HETATM    6  C   UNL     1      -8.995  12.820  67.047  1.00  0.00    -0.221 A  
HETATM    7  H   UNL     1      -8.872  14.084  64.853  1.00  0.00     0.000 HD 
HETATM    8  C   UNL     1      -9.177  12.019  68.173  1.00  0.00    -0.195 A  
HETATM    9  C   UNL     1     -10.421  11.427  68.423  1.00  0.00    -0.221 A  
HETATM   10  C   UNL     1     -11.477  11.659  67.523  1.00  0.00    -0.360 A  
BRANCH   9  11
HETATM   11  C   UNL     1     -10.607  10.530  69.625  1.00  0.00    -0.281 C  
BRANCH  11  12
HETATM   12  C   UNL     1     -10.579   9.070  69.265  1.00  0.00    -0.226 C  
HETATM   13  C   UNL     1      -9.793   8.535  68.321  1.00  0.00    -0.190 C  
ENDBRANCH  11  12
ENDBRANCH   9  11
ENDBRANCH   2   3
TORSDOF 3
ENDMDL
MODEL      101
REMARK 921   NORMALIZED FREE ENERGY PREDICTED BY IDOCK:   -3.22 KCAL/MOL
REMARK 922        TOTAL FREE ENERGY PREDICTED BY IDOCK:   -3.98 KCAL/MOL
REMARK 923 INTER-LIGAND FREE ENERGY PREDICTED BY IDOCK:   -3.77 KCAL/MOL
REMARK 924 INTRA-LIGAND FREE ENERGY PREDICTED BY IDOCK:   -0.21 KCAL/MOL
REMARK 927      BINDING AFFINITY PREDICTED BY RF-SCORE:    0.00 PKD
ROOT
HETATM    1  C   UNL     1      -9.810   9.594  69.868  1.00  0.00    -0.239 C  
HETATM    2  O   UNL     1     -10.980   9.602  69.057  1.00  0.00    -0.208 OA 
ENDROOT
BRANCH   2   3
HETATM    3  C   UNL     1     -11.041  10.534  68.056  1.00  0.00    -0.300 A  
HETATM    4  C   UNL     1     -10.656  10.360  66.725  1.00  0.00    -0.205 A  
HETATM    5  O   UNL     1     -10.088   9.212  66.250  1.00  0.00    -0.286 OA 
HETATM    6  C   UNL     1     -10.759  11.405  65.809  1.00  0.00    -0.309 A  
HETATM    7  H   UNL     1      -9.826   9.094  65.345  1.00  0.00     0.000 HD 
HETATM    8  C   UNL     1     -11.203  12.659  66.224  1.00  0.00    -0.354 A  
HETATM    9  C   UNL     1     -11.569  12.871  67.559  1.00  0.00    -0.409 A  
HETATM   10  C   UNL     1     -11.483  11.799  68.465  1.00  0.00    -0.353 A  
BRANCH   9  11
HETATM   11  C   UNL     1     -12.015  14.241  68.015  1.00  0.00    -0.353 C  
BRANCH  11  12
HETATM   12  C   UNL     1     -12.044  14.370  69.513  1.00  0.00    -0.366 C  
HETATM   13  C   UNL     1     -11.938  15.528  70.177  1.00  0.00    -0.389 C  
ENDBRANCH  11  12
ENDBRANCH   9  11
ENDBRANCH   2   3
TORSDOF 3
ENDMDL
MODEL      102
REMARK 921   NORMALIZED FREE ENERGY PREDICTED BY IDOCK:   -3.19 KCAL/MOL
REMARK 922        TOTAL FREE ENERGY PREDICTED BY IDOCK:   -3.94 KCAL/MOL
REMARK 923 INTER-LIGAND FREE ENERGY PREDICTED BY IDOCK:   -3.77 KCAL/MOL
REMARK 924 INTRA-LIGAND FREE ENERGY PREDICTED BY IDOCK:   -0.17 KCAL/MOL
REMARK 927      BINDING AFFINITY PREDICTED BY RF-SCORE:    0.00 PKD
ROOT
HETATM    1  C   UNL     1     -12.021  12.714  63.460  1.00  0.00    -0.548 C  
HETATM    2  O   UNL     1     -12.372  12.451  64.815  1.00  0.00    -0.453 OA 
ENDROOT
BRANCH   2   3
HETATM    3  C   UNL     1     -11.362  12.481  65.739  1.00  0.00    -0.336 A  
HETATM    4  C   UNL     1     -10.401  11.492  65.963  1.00  0.00    -0.246 A  
HETATM    5  O   UNL     1     -10.387  10.295  65.305  1.00  0.00    -0.278 OA 
HETATM    6  C   UNL     1      -9.433  11.647  66.952  1.00  0.00    -0.195 A  
HETATM    7  H   UNL     1      -9.734   9.622  65.457  1.00  0.00     0.000 HD 
HETATM    8  C   UNL     1      -9.441  12.775  67.770  1.00  0.00    -0.205 A  
HETATM    9  C   UNL     1     -10.410  13.770  67.589  1.00  0.00    -0.239 A  
HETATM   10  C   UNL     1     -11.365  13.610  66.568  1.00  0.00    -0.335 A  
BRANCH   9  11
HETATM   11  C   UNL     1     -10.440  14.976  68.500  1.00  0.00    -0.232 C  
BRANCH  11  12
HETATM   12  C   UNL     1     -11.315  14.767  69.704  1.00  0.00    -0.316 C  
HETATM   13  C   UNL     1     -11.272  15.517  70.814  1.00  0.00    -0.384 C  
ENDBRANCH  11  12
ENDBRANCH   9  11
ENDBRANCH   2   3
TORSDOF 3
ENDMDL
MODEL      103
REMARK 921   NORMALIZED FREE ENERGY PREDICTED BY IDOCK:   -3.19 KCAL/MOL
REMARK 922        TOTAL FREE ENERGY PREDICTED BY IDOCK:   -3.94 KCAL/MOL
REMARK 923 INTER-LIGAND FREE ENERGY PREDICTED BY IDOCK:   -3.81 KCAL/MOL
REMARK 924 INTRA-LIGAND FREE ENERGY PREDICTED BY IDOCK:   -0.13 KCAL/MOL
REMARK 927      BINDING AFFINITY PREDICTED BY RF-SCORE:    0.00 PKD
ROOT
HETATM    1  C   UNL     1      -7.699   9.216  65.626  1.00  0.00    -0.094 C  
HETATM    2  O   UNL     1      -9.104   9.034  65.486  1.00  0.00    -0.207 OA 
ENDROOT
BRANCH   2   3
HETATM    3  C   UNL     1      -9.917   9.843  66.234  1.00  0.00    -0.256 A  
HETATM    4  C   UNL     1     -10.383   9.597  67.527  1.00  0.00    -0.241 A  
HETATM    5  O   UNL     1     -10.128   8.442  68.211  1.00  0.00    -0.186 OA 
HETATM    6  C   UNL     1     -11.222  10.505  68.170  1.00  0.00    -0.357 A  
HETATM    7  H   UNL     1     -10.445   8.275  69.091  1.00  0.00     0.000 HD 
HETATM    8  C   UNL     1     -11.650  11.654  67.506  1.00  0.00    -0.345 A  
HETATM    9  C   UNL     1     -11.222  11.913  66.198  1.00  0.00    -0.387 A  
HETATM   10  C   UNL     1     -10.355  10.998  65.574  1.00  0.00    -0.321 A  
BRANCH   9  11
HETATM   11  C   UNL     1     -11.716  13.140  65.468  1.00  0.00    -0.393 C  
BRANCH  11  12
HETATM   12  C   UNL     1     -11.791  12.935  63.980  1.00  0.00    -0.512 C  
HETATM   13  C   UNL     1     -12.724  12.199  63.361  1.00  0.00    -0.508 C  
ENDBRANCH  11  12
ENDBRANCH   9  11
ENDBRANCH   2   3
TORSDOF 3
ENDMDL
MODEL      104
REMARK 921   NORMALIZED FREE ENERGY PREDICTED BY IDOCK:   -3.18 KCAL/MOL
REMARK 922        TOTAL FREE ENERGY PREDICTED BY IDOCK:   -3.93 KCAL/MOL
REMARK 923 INTER-LIGAND FREE ENERGY PREDICTED BY IDOCK:   -3.73 KCAL/MOL
REMARK 924 INTRA-LIGAND FREE ENERGY PREDICTED BY IDOCK:   -0.20 KCAL/MOL
REMARK 927      BINDING AFFINITY PREDICTED BY RF-SCORE:    0.00 PKD
ROOT
HETATM    1  C   UNL     1     -11.434  15.545  70.681  1.00  0.00    -0.358 C  
HETATM    2  O   UNL     1     -12.403  14.831  69.920  1.00  0.00    -0.315 OA 
ENDROOT
BRANCH   2   3
HETATM    3  C   UNL     1     -12.218  13.482  69.782  1.00  0.00    -0.269 A  
HETATM    4  C   UNL     1     -12.481  12.498  70.737  1.00  0.00    -0.268 A  
HETATM    5  O   UNL     1     -12.912  12.776  72.004  1.00  0.00    -0.337 OA 
HETATM    6  C   UNL     1     -12.231  11.154  70.468  1.00  0.00    -0.475 A  
HETATM    7  H   UNL     1     -13.090  12.107  72.654  1.00  0.00     0.000 HD 
HETATM    8  C   UNL     1     -11.665  10.778  69.251  1.00  0.00    -0.374 A  
HETATM    9  C   UNL     1     -11.364  11.745  68.284  1.00  0.00    -0.343 A  
HETATM   10  C   UNL     1     -11.647  13.095  68.563  1.00  0.00    -0.361 A  
BRANCH   9  11
HETATM   11  C   UNL     1     -10.718  11.339  66.980  1.00  0.00    -0.305 C  
BRANCH  11  12
HETATM   12  C   UNL     1      -9.580  10.374  67.175  1.00  0.00    -0.192 C  
HETATM   13  C   UNL     1      -8.369  10.507  66.619  1.00  0.00    -0.131 C  
ENDBRANCH  11  12
ENDBRANCH   9  11
ENDBRANCH   2   3
TORSDOF 3
ENDMDL
MODEL      105
REMARK 921   NORMALIZED FREE ENERGY PREDICTED BY IDOCK:   -3.16 KCAL/MOL
REMARK 922        TOTAL FREE ENERGY PREDICTED BY IDOCK:   -3.91 KCAL/MOL
REMARK 923 INTER-LIGAND FREE ENERGY PREDICTED BY IDOCK:   -3.69 KCAL/MOL
REMARK 924 INTRA-LIGAND FREE ENERGY PREDICTED BY IDOCK:   -0.21 KCAL/MOL
REMARK 927      BINDING AFFINITY PREDICTED BY RF-SCORE:    0.00 PKD
ROOT
HETATM    1  C   UNL     1      -9.664  11.832  65.957  1.00  0.00    -0.232 C  
HETATM    2  O   UNL     1     -10.919  11.296  66.364  1.00  0.00    -0.279 OA 
ENDROOT
BRANCH   2   3
HETATM    3  C   UNL     1     -11.105  11.087  67.704  1.00  0.00    -0.300 A  
HETATM    4  C   UNL     1     -11.675  11.974  68.619  1.00  0.00    -0.326 A  
HETATM    5  O   UNL     1     -12.077  13.238  68.291  1.00  0.00    -0.333 OA 
HETATM    6  C   UNL     1     -11.791  11.636  69.966  1.00  0.00    -0.435 A  
HETATM    7  H   UNL     1     -12.464  13.842  68.914  1.00  0.00     0.000 HD 
HETATM    8  C   UNL     1     -11.289  10.421  70.428  1.00  0.00    -0.417 A  
HETATM    9  C   UNL     1     -10.686   9.523  69.539  1.00  0.00    -0.246 A  
HETATM   10  C   UNL     1     -10.601   9.869  68.178  1.00  0.00    -0.270 A  
BRANCH   9  11
HETATM   11  C   UNL     1     -10.111   8.221  70.048  1.00  0.00    -0.196 C  
BRANCH  11  12
HETATM   12  C   UNL     1     -11.124   7.109  70.062  1.00  0.00    -0.288 C  
HETATM   13  C   UNL     1     -11.279   6.237  71.066  1.00  0.00    -0.372 C  
ENDBRANCH  11  12
ENDBRANCH   9  11
ENDBRANCH   2   3
TORSDOF 3
ENDMDL
MODEL      106
REMARK 921   NORMALIZED FREE ENERGY PREDICTED BY IDOCK:   -3.15 KCAL/MOL
REMARK 922        TOTAL FREE ENERGY PREDICTED BY IDOCK:   -3.90 KCAL/MOL
REMARK 923 INTER-LIGAND FREE ENERGY PREDICTED BY IDOCK:   -3.71 KCAL/MOL
REMARK 924 INTRA-LIGAND FREE ENERGY PREDICTED BY IDOCK:   -0.19 KCAL/MOL
REMARK 927      BINDING AFFINITY PREDICTED BY RF-SCORE:    0.00 PKD
ROOT
HETATM    1  C   UNL     1     -12.654  12.299  71.001  1.00  0.00    -0.257 C  
HETATM    2  O   UNL     1     -12.776  10.916  70.683  1.00  0.00    -0.333 OA 
ENDROOT
BRANCH   2   3
HETATM    3  C   UNL     1     -11.662  10.137  70.844  1.00  0.00    -0.378 A  
HETATM    4  C   UNL     1     -10.536  10.104  70.019  1.00  0.00    -0.274 A  
HETATM    5  O   UNL     1     -10.428  10.828  68.866  1.00  0.00    -0.184 OA 
HETATM    6  C   UNL     1      -9.472   9.247  70.294  1.00  0.00    -0.277 A  
HETATM    7  H   UNL     1      -9.662  10.806  68.304  1.00  0.00     0.000 HD 
HETATM    8  C   UNL     1      -9.542   8.370  71.375  1.00  0.00    -0.254 A  
HETATM    9  C   UNL     1     -10.671   8.359  72.203  1.00  0.00    -0.407 A  
HETATM   10  C   UNL     1     -11.724   9.249  71.926  1.00  0.00    -0.420 A  
BRANCH   9  11
HETATM   11  C   UNL     1     -10.760   7.382  73.352  1.00  0.00    -0.407 C  
BRANCH  11  12
HETATM   12  C   UNL     1     -10.180   6.036  73.012  1.00  0.00    -0.210 C  
HETATM   13  C   UNL     1     -10.577   4.879  73.559  1.00  0.00    -0.311 C  
ENDBRANCH  11  12
ENDBRANCH   9  11
ENDBRANCH   2   3
TORSDOF 3
ENDMDL
MODEL      107
REMARK 921   NORMALIZED FREE ENERGY PREDICTED BY IDOCK:   -3.15 KCAL/MOL
REMARK 922        TOTAL FREE ENERGY PREDICTED BY IDOCK:   -3.89 KCAL/MOL
REMARK 923 INTER-LIGAND FREE ENERGY PREDICTED BY IDOCK:   -3.63 KCAL/MOL
REMARK 924 INTRA-LIGAND FREE ENERGY PREDICTED BY IDOCK:   -0.27 KCAL/MOL
REMARK 927      BINDING AFFINITY PREDICTED BY RF-SCORE:    0.00 PKD
ROOT
HETATM    1  C   UNL     1     -14.068   7.634  71.489  1.00  0.00    -0.421 C  
HETATM    2  O   UNL     1     -13.236   6.555  71.903  1.00  0.00    -0.203 OA 
ENDROOT
BRANCH   2   3
HETATM    3  C   UNL     1     -11.921   6.598  71.524  1.00  0.00    -0.352 A  
HETATM    4  C   UNL     1     -10.826   6.914  72.331  1.00  0.00    -0.235 A  
HETATM    5  O   UNL     1     -10.941   7.297  73.638  1.00  0.00    -0.540 OA 
HETATM    6  C   UNL     1      -9.535   6.935  71.809  1.00  0.00    -0.155 A  
HETATM    7  H   UNL     1     -10.197   7.512  74.187  1.00  0.00     0.000 HD 
HETATM    8  C   UNL     1      -9.324   6.689  70.453  1.00  0.00    -0.160 A  
HETATM    9  C   UNL     1     -10.406   6.398  69.613  1.00  0.00    -0.249 A  
HETATM   10  C   UNL     1     -11.700   6.355  70.162  1.00  0.00    -0.372 A  
BRANCH   9  11
HETATM   11  C   UNL     1     -10.179   6.167  68.137  1.00  0.00    -0.208 C  
BRANCH  11  12
HETATM   12  C   UNL     1     -10.660   7.315  67.292  1.00  0.00    -0.395 C  
HETATM   13  C   UNL     1     -10.295   8.592  67.468  1.00  0.00    -0.334 C  
ENDBRANCH  11  12
ENDBRANCH   9  11
ENDBRANCH   2   3
TORSDOF 3
ENDMDL
MODEL      108
REMARK 921   NORMALIZED FREE ENERGY PREDICTED BY IDOCK:   -3.12 KCAL/MOL
REMARK 922        TOTAL FREE ENERGY PREDICTED BY IDOCK:   -3.86 KCAL/MOL
REMARK 923 INTER-LIGAND FREE ENERGY PREDICTED BY IDOCK:   -3.63 KCAL/MOL
REMARK 924 INTRA-LIGAND FREE ENERGY PREDICTED BY IDOCK:   -0.23 KCAL/MOL
REMARK 927      BINDING AFFINITY PREDICTED BY RF-SCORE:    0.00 PKD
ROOT
HETATM    1  C   UNL     1      -8.182   7.599  67.822  1.00  0.00    -0.119 C  
HETATM    2  O   UNL     1      -9.479   7.656  67.237  1.00  0.00    -0.138 OA 
ENDROOT
BRANCH   2   3
HETATM    3  C   UNL     1      -9.945   8.889  66.869  1.00  0.00    -0.247 A  
HETATM    4  C   UNL     1      -9.846   9.480  65.607  1.00  0.00    -0.272 A  
HETATM    5  O   UNL     1      -9.190   8.903  64.556  1.00  0.00    -0.419 OA 
HETATM    6  C   UNL     1     -10.355  10.755  65.372  1.00  0.00    -0.315 A  
HETATM    7  H   UNL     1      -9.122   9.305  63.698  1.00  0.00     0.000 HD 
HETATM    8  C   UNL     1     -10.926  11.483  66.414  1.00  0.00    -0.336 A  
HETATM    9  C   UNL     1     -11.013  10.929  67.697  1.00  0.00    -0.350 A  
HETATM   10  C   UNL     1     -10.518   9.629  67.910  1.00  0.00    -0.296 A  
BRANCH   9  11
HETATM   11  C   UNL     1     -11.601  11.733  68.833  1.00  0.00    -0.370 C  
BRANCH  11  12
HETATM   12  C   UNL     1     -11.903  13.153  68.439  1.00  0.00    -0.386 C  
HETATM   13  C   UNL     1     -12.002  14.175  69.300  1.00  0.00    -0.382 C  
ENDBRANCH  11  12
ENDBRANCH   9  11
ENDBRANCH   2   3
TORSDOF 3
ENDMDL
MODEL      109
REMARK 921   NORMALIZED FREE ENERGY PREDICTED BY IDOCK:   -3.12 KCAL/MOL
REMARK 922        TOTAL FREE ENERGY PREDICTED BY IDOCK:   -3.85 KCAL/MOL
REMARK 923 INTER-LIGAND FREE ENERGY PREDICTED BY IDOCK:   -3.61 KCAL/MOL
REMARK 924 INTRA-LIGAND FREE ENERGY PREDICTED BY IDOCK:   -0.25 KCAL/MOL
REMARK 927      BINDING AFFINITY PREDICTED BY RF-SCORE:    0.00 PKD
ROOT
HETATM    1  C   UNL     1      -9.614  12.169  67.396  1.00  0.00    -0.177 C  
HETATM    2  O   UNL     1     -10.786  11.361  67.398  1.00  0.00    -0.224 OA 
ENDROOT
BRANCH   2   3
HETATM    3  C   UNL     1     -10.695  10.129  67.988  1.00  0.00    -0.260 A  
HETATM    4  C   UNL     1     -10.409   8.917  67.356  1.00  0.00    -0.269 A  
HETATM    5  O   UNL     1     -10.241   8.794  66.006  1.00  0.00    -0.412 OA 
HETATM    6  C   UNL     1     -10.361   7.727  68.080  1.00  0.00    -0.263 A  
HETATM    7  H   UNL     1     -10.047   7.970  65.576  1.00  0.00     0.000 HD 
HETATM    8  C   UNL     1     -10.649   7.725  69.443  1.00  0.00    -0.211 A  
HETATM    9  C   UNL     1     -10.967   8.920  70.099  1.00  0.00    -0.245 A  
HETATM   10  C   UNL     1     -10.986  10.117  69.358  1.00  0.00    -0.285 A  
BRANCH   9  11
HETATM   11  C   UNL     1     -11.314   8.911  71.569  1.00  0.00    -0.395 C  
BRANCH  11  12
HETATM   12  C   UNL     1     -12.728   8.466  71.826  1.00  0.00    -0.373 C  
HETATM   13  C   UNL     1     -13.756   9.295  72.050  1.00  0.00    -0.493 C  
ENDBRANCH  11  12
ENDBRANCH   9  11
ENDBRANCH   2   3
TORSDOF 3
ENDMDL
MODEL      110
REMARK 921   NORMALIZED FREE ENERGY PREDICTED BY IDOCK:   -3.11 KCAL/MOL
REMARK 922        TOTAL FREE ENERGY PREDICTED BY IDOCK:   -3.85 KCAL/MOL
REMARK 923 INTER-LIGAND FREE ENERGY PREDICTED BY IDOCK:   -3.64 KCAL/MOL
REMARK 924 INTRA-LIGAND FREE ENERGY PREDICTED BY IDOCK:   -0.21 KCAL/MOL
REMARK 927      BINDING AFFINITY PREDICTED BY RF-SCORE:    0.00 PKD
ROOT
HETATM    1  C   UNL     1     -10.974  11.120  66.708  1.00  0.00    -0.249 C  
HETATM    2  O   UNL     1     -10.384  11.660  67.887  1.00  0.00    -0.181 OA 
ENDROOT
BRANCH   2   3
HETATM    3  C   UNL     1     -10.674  12.963  68.190  1.00  0.00    -0.241 A  
HETATM    4  C   UNL     1     -11.335  13.432  69.328  1.00  0.00    -0.257 A  
HETATM    5  O   UNL     1     -11.852  12.609  70.289  1.00  0.00    -0.489 OA 
HETATM    6  C   UNL     1     -11.578  14.792  69.504  1.00  0.00    -0.339 A  
HETATM    7  H   UNL     1     -12.302  12.928  71.062  1.00  0.00     0.000 HD 
HETATM    8  C   UNL     1     -11.208  15.703  68.517  1.00  0.00    -0.342 A  
HETATM    9  C   UNL     1     -10.570  15.260  67.352  1.00  0.00    -0.282 A  
HETATM   10  C   UNL     1     -10.308  13.886  67.202  1.00  0.00    -0.265 A  
BRANCH   9  11
HETATM   11  C   UNL     1     -10.201  16.245  66.267  1.00  0.00    -0.339 C  
BRANCH  11  12
HETATM   12  C   UNL     1      -8.724  16.521  66.215  1.00  0.00    -0.369 C  
HETATM   13  C   UNL     1      -8.172  17.732  66.368  1.00  0.00    -0.290 C  
ENDBRANCH  11  12
ENDBRANCH   9  11
ENDBRANCH   2   3
TORSDOF 3
ENDMDL
MODEL      111
REMARK 921   NORMALIZED FREE ENERGY PREDICTED BY IDOCK:   -3.08 KCAL/MOL
REMARK 922        TOTAL FREE ENERGY PREDICTED BY IDOCK:   -3.81 KCAL/MOL
REMARK 923 INTER-LIGAND FREE ENERGY PREDICTED BY IDOCK:   -3.59 KCAL/MOL
REMARK 924 INTRA-LIGAND FREE ENERGY PREDICTED BY IDOCK:   -0.22 KCAL/MOL
REMARK 927      BINDING AFFINITY PREDICTED BY RF-SCORE:    0.00 PKD
ROOT
HETATM    1  C   UNL     1      -6.627  15.215  67.603  1.00  0.00    -0.171 C  
HETATM    2  O   UNL     1      -7.604  16.021  66.951  1.00  0.00    -0.212 OA 
ENDROOT
BRANCH   2   3
HETATM    3  C   UNL     1      -8.827  16.133  67.557  1.00  0.00    -0.189 A  
HETATM    4  C   UNL     1      -9.259  17.169  68.387  1.00  0.00    -0.266 A  
HETATM    5  O   UNL     1      -8.461  18.211  68.766  1.00  0.00    -0.289 OA 
HETATM    6  C   UNL     1     -10.532  17.149  68.952  1.00  0.00    -0.346 A  
HETATM    7  H   UNL     1      -8.754  18.916  69.331  1.00  0.00     0.000 HD 
HETATM    8  C   UNL     1     -11.378  16.063  68.734  1.00  0.00    -0.380 A  
HETATM    9  C   UNL     1     -10.961  14.995  67.930  1.00  0.00    -0.291 A  
HETATM   10  C   UNL     1      -9.682  15.044  67.346  1.00  0.00    -0.216 A  
BRANCH   9  11
HETATM   11  C   UNL     1     -11.866  13.802  67.724  1.00  0.00    -0.404 C  
BRANCH  11  12
HETATM   12  C   UNL     1     -11.299  12.811  66.745  1.00  0.00    -0.362 C  
HETATM   13  C   UNL     1     -11.908  12.428  65.614  1.00  0.00    -0.468 C  
ENDBRANCH  11  12
ENDBRANCH   9  11
ENDBRANCH   2   3
TORSDOF 3
ENDMDL
MODEL      112
REMARK 921   NORMALIZED FREE ENERGY PREDICTED BY IDOCK:   -3.07 KCAL/MOL
REMARK 922        TOTAL FREE ENERGY PREDICTED BY IDOCK:   -3.80 KCAL/MOL
REMARK 923 INTER-LIGAND FREE ENERGY PREDICTED BY IDOCK:   -3.59 KCAL/MOL
REMARK 924 INTRA-LIGAND FREE ENERGY PREDICTED BY IDOCK:   -0.21 KCAL/MOL
REMARK 927      BINDING AFFINITY PREDICTED BY RF-SCORE:    0.00 PKD
ROOT
HETATM    1  C   UNL     1     -12.285  15.696  63.963  1.00  0.00     0.174 C  
HETATM    2  O   UNL     1     -11.068  16.316  64.368  1.00  0.00    -0.735 OA 
ENDROOT
BRANCH   2   3
HETATM    3  C   UNL     1     -10.311  15.657  65.299  1.00  0.00    -0.375 A  
HETATM    4  C   UNL     1      -9.281  16.195  66.074  1.00  0.00    -0.328 A  
HETATM    5  O   UNL     1      -8.841  17.482  65.951  1.00  0.00    -0.525 OA 
HETATM    6  C   UNL     1      -8.578  15.402  66.978  1.00  0.00    -0.262 A  
HETATM    7  H   UNL     1      -8.141  17.848  66.478  1.00  0.00     0.000 HD 
HETATM    8  C   UNL     1      -8.861  14.041  67.084  1.00  0.00    -0.239 A  
HETATM    9  C   UNL     1      -9.868  13.468  66.299  1.00  0.00    -0.306 A  
HETATM   10  C   UNL     1     -10.586  14.288  65.410  1.00  0.00    -0.367 A  
BRANCH   9  11
HETATM   11  C   UNL     1     -10.149  11.986  66.389  1.00  0.00    -0.242 C  
BRANCH  11  12
HETATM   12  C   UNL     1     -10.341  11.520  67.806  1.00  0.00    -0.204 C  
HETATM   13  C   UNL     1      -9.484  10.731  68.469  1.00  0.00    -0.181 C  
ENDBRANCH  11  12
ENDBRANCH   9  11
ENDBRANCH   2   3
TORSDOF 3
ENDMDL
MODEL      113
REMARK 921   NORMALIZED FREE ENERGY PREDICTED BY IDOCK:   -3.06 KCAL/MOL
REMARK 922        TOTAL FREE ENERGY PREDICTED BY IDOCK:   -3.79 KCAL/MOL
REMARK 923 INTER-LIGAND FREE ENERGY PREDICTED BY IDOCK:   -3.60 KCAL/MOL
REMARK 924 INTRA-LIGAND FREE ENERGY PREDICTED BY IDOCK:   -0.18 KCAL/MOL
REMARK 927      BINDING AFFINITY PREDICTED BY RF-SCORE:    0.00 PKD
ROOT
HETATM    1  C   UNL     1      -6.084  15.198  68.138  1.00  0.00    -0.135 C  
HETATM    2  O   UNL     1      -6.482  16.107  69.159  1.00  0.00    -0.144 OA 
ENDROOT
BRANCH   2   3
HETATM    3  C   UNL     1      -7.606  16.854  68.927  1.00  0.00    -0.234 A  
HETATM    4  C   UNL     1      -7.660  18.219  68.636  1.00  0.00    -0.296 A  
HETATM    5  O   UNL     1      -6.558  19.025  68.607  1.00  0.00    -0.246 OA 
HETATM    6  C   UNL     1      -8.881  18.859  68.435  1.00  0.00    -0.379 A  
HETATM    7  H   UNL     1      -6.594  19.953  68.408  1.00  0.00     0.000 HD 
HETATM    8  C   UNL     1     -10.074  18.152  68.574  1.00  0.00    -0.413 A  
HETATM    9  C   UNL     1     -10.052  16.789  68.894  1.00  0.00    -0.285 A  
HETATM   10  C   UNL     1      -8.810  16.152  69.068  1.00  0.00    -0.251 A  
BRANCH   9  11
HETATM   11  C   UNL     1     -11.347  16.033  69.080  1.00  0.00    -0.363 C  
BRANCH  11  12
HETATM   12  C   UNL     1     -11.694  15.828  70.529  1.00  0.00    -0.400 C  
HETATM   13  C   UNL     1     -12.730  15.100  70.966  1.00  0.00    -0.458 C  
ENDBRANCH  11  12
ENDBRANCH   9  11
ENDBRANCH   2   3
TORSDOF 3
ENDMDL
MODEL      114
REMARK 921   NORMALIZED FREE ENERGY PREDICTED BY IDOCK:   -3.06 KCAL/MOL
REMARK 922        TOTAL FREE ENERGY PREDICTED BY IDOCK:   -3.79 KCAL/MOL
REMARK 923 INTER-LIGAND FREE ENERGY PREDICTED BY IDOCK:   -3.57 KCAL/MOL
REMARK 924 INTRA-LIGAND FREE ENERGY PREDICTED BY IDOCK:   -0.22 KCAL/MOL
REMARK 927      BINDING AFFINITY PREDICTED BY RF-SCORE:    0.00 PKD
ROOT
HETATM    1  C   UNL     1      -7.077  13.447  67.632  1.00  0.00    -0.162 C  
HETATM    2  O   UNL     1      -8.430  13.214  68.010  1.00  0.00    -0.161 OA 
ENDROOT
BRANCH   2   3
HETATM    3  C   UNL     1      -9.004  12.044  67.590  1.00  0.00    -0.172 A  
HETATM    4  C   UNL     1      -9.135  10.864  68.327  1.00  0.00    -0.158 A  
HETATM    5  O   UNL     1      -8.629  10.704  69.586  1.00  0.00    -0.381 OA 
HETATM    6  C   UNL     1      -9.731   9.735  67.769  1.00  0.00    -0.167 A  
HETATM    7  H   UNL     1      -8.718   9.902  70.087  1.00  0.00     0.000 HD 
HETATM    8  C   UNL     1     -10.160   9.753  66.443  1.00  0.00    -0.313 A  
HETATM    9  C   UNL     1     -10.016  10.912  65.671  1.00  0.00    -0.305 A  
HETATM   10  C   UNL     1      -9.436  12.052  66.258  1.00  0.00    -0.237 A  
BRANCH   9  11
HETATM   11  C   UNL     1     -10.450  10.919  64.224  1.00  0.00    -0.405 C  
BRANCH  11  12
HETATM   12  C   UNL     1     -10.635  12.310  63.683  1.00  0.00    -0.501 C  
HETATM   13  C   UNL     1     -11.819  12.924  63.557  1.00  0.00    -0.605 C  
ENDBRANCH  11  12
ENDBRANCH   9  11
ENDBRANCH   2   3
TORSDOF 3
ENDMDL
MODEL      115
REMARK 921   NORMALIZED FREE ENERGY PREDICTED BY IDOCK:   -3.05 KCAL/MOL
REMARK 922        TOTAL FREE ENERGY PREDICTED BY IDOCK:   -3.77 KCAL/MOL
REMARK 923 INTER-LIGAND FREE ENERGY PREDICTED BY IDOCK:   -3.58 KCAL/MOL
REMARK 924 INTRA-LIGAND FREE ENERGY PREDICTED BY IDOCK:   -0.20 KCAL/MOL
REMARK 927      BINDING AFFINITY PREDICTED BY RF-SCORE:    0.00 PKD
ROOT
HETATM    1  C   UNL     1     -10.892   5.005  73.459  1.00  0.00    -0.308 C  
HETATM    2  O   UNL     1     -11.889   5.400  72.522  1.00  0.00    -0.207 OA 
ENDROOT
BRANCH   2   3
HETATM    3  C   UNL     1     -11.886   6.708  72.120  1.00  0.00    -0.298 A  
HETATM    4  C   UNL     1     -13.001   7.524  71.917  1.00  0.00    -0.264 A  
HETATM    5  O   UNL     1     -14.288   7.082  72.037  1.00  0.00    -0.592 OA 
HETATM    6  C   UNL     1     -12.855   8.842  71.491  1.00  0.00    -0.383 A  
HETATM    7  H   UNL     1     -15.047   7.637  71.899  1.00  0.00     0.000 HD 
HETATM    8  C   UNL     1     -11.587   9.351  71.211  1.00  0.00    -0.434 A  
HETATM    9  C   UNL     1     -10.453   8.547  71.377  1.00  0.00    -0.305 A  
HETATM   10  C   UNL     1     -10.617   7.227  71.834  1.00  0.00    -0.238 A  
BRANCH   9  11
HETATM   11  C   UNL     1      -9.083   9.089  71.039  1.00  0.00    -0.322 C  
BRANCH  11  12
HETATM   12  C   UNL     1      -7.976   8.160  71.455  1.00  0.00    -0.135 C  
HETATM   13  C   UNL     1      -6.874   8.539  72.115  1.00  0.00    -0.093 C  
ENDBRANCH  11  12
ENDBRANCH   9  11
ENDBRANCH   2   3
TORSDOF 3
ENDMDL
MODEL      116
REMARK 921   NORMALIZED FREE ENERGY PREDICTED BY IDOCK:   -3.05 KCAL/MOL
REMARK 922        TOTAL FREE ENERGY PREDICTED BY IDOCK:   -3.77 KCAL/MOL
REMARK 923 INTER-LIGAND FREE ENERGY PREDICTED BY IDOCK:   -3.66 KCAL/MOL
REMARK 924 INTRA-LIGAND FREE ENERGY PREDICTED BY IDOCK:   -0.12 KCAL/MOL
REMARK 927      BINDING AFFINITY PREDICTED BY RF-SCORE:    0.00 PKD
ROOT
HETATM    1  C   UNL     1     -13.209  10.925  71.645  1.00  0.00    -0.367 C  
HETATM    2  O   UNL     1     -11.864  10.908  71.177  1.00  0.00    -0.269 OA 
ENDROOT
BRANCH   2   3
HETATM    3  C   UNL     1     -11.642  11.352  69.901  1.00  0.00    -0.323 A  
HETATM    4  C   UNL     1     -11.745  12.667  69.441  1.00  0.00    -0.325 A  
HETATM    5  O   UNL     1     -12.159  13.707  70.224  1.00  0.00    -0.327 OA 
HETATM    6  C   UNL     1     -11.503  12.979  68.105  1.00  0.00    -0.356 A  
HETATM    7  H   UNL     1     -12.229  14.601  69.912  1.00  0.00     0.000 HD 
HETATM    8  C   UNL     1     -11.203  11.968  67.194  1.00  0.00    -0.374 A  
HETATM    9  C   UNL     1     -11.121  10.636  67.619  1.00  0.00    -0.385 A  
HETATM   10  C   UNL     1     -11.343  10.343  68.977  1.00  0.00    -0.279 A  
BRANCH   9  11
HETATM   11  C   UNL     1     -10.831   9.537  66.623  1.00  0.00     0.018 C  
BRANCH  11  12
HETATM   12  C   UNL     1     -10.354   8.272  67.282  1.00  0.00    -0.372 C  
HETATM   13  C   UNL     1     -10.475   7.048  66.751  1.00  0.00    -0.297 C  
ENDBRANCH  11  12
ENDBRANCH   9  11
ENDBRANCH   2   3
TORSDOF 3
ENDMDL
MODEL      117
REMARK 921   NORMALIZED FREE ENERGY PREDICTED BY IDOCK:   -3.04 KCAL/MOL
REMARK 922        TOTAL FREE ENERGY PREDICTED BY IDOCK:   -3.76 KCAL/MOL
REMARK 923 INTER-LIGAND FREE ENERGY PREDICTED BY IDOCK:   -3.49 KCAL/MOL
REMARK 924 INTRA-LIGAND FREE ENERGY PREDICTED BY IDOCK:   -0.27 KCAL/MOL
REMARK 927      BINDING AFFINITY PREDICTED BY RF-SCORE:    0.00 PKD
ROOT
HETATM    1  C   UNL     1      -9.674   9.863  65.290  1.00  0.00    -0.313 C  
HETATM    2  O   UNL     1     -10.130   8.862  66.194  1.00  0.00    -0.291 OA 
ENDROOT
BRANCH   2   3
HETATM    3  C   UNL     1     -10.010   9.126  67.532  1.00  0.00    -0.205 A  
HETATM    4  C   UNL     1      -9.010   8.665  68.391  1.00  0.00    -0.142 A  
HETATM    5  O   UNL     1      -8.022   7.805  68.001  1.00  0.00    -0.118 OA 
HETATM    6  C   UNL     1      -9.017   9.002  69.742  1.00  0.00    -0.157 A  
HETATM    7  H   UNL     1      -7.341   7.491  68.585  1.00  0.00     0.000 HD 
HETATM    8  C   UNL     1     -10.057   9.766  70.268  1.00  0.00    -0.323 A  
HETATM    9  C   UNL     1     -11.089  10.219  69.437  1.00  0.00    -0.299 A  
HETATM   10  C   UNL     1     -11.052   9.892  68.069  1.00  0.00    -0.220 A  
BRANCH   9  11
HETATM   11  C   UNL     1     -12.234  11.017  70.016  1.00  0.00    -0.418 C  
BRANCH  11  12
HETATM   12  C   UNL     1     -12.635  10.542  71.385  1.00  0.00    -0.539 C  
HETATM   13  C   UNL     1     -13.505   9.551  71.621  1.00  0.00    -0.463 C  
ENDBRANCH  11  12
ENDBRANCH   9  11
ENDBRANCH   2   3
TORSDOF 3
ENDMDL
MODEL      118
REMARK 921   NORMALIZED FREE ENERGY PREDICTED BY IDOCK:   -3.01 KCAL/MOL
REMARK 922        TOTAL FREE ENERGY PREDICTED BY IDOCK:   -3.73 KCAL/MOL
REMARK 923 INTER-LIGAND FREE ENERGY PREDICTED BY IDOCK:   -3.51 KCAL/MOL
REMARK 924 INTRA-LIGAND FREE ENERGY PREDICTED BY IDOCK:   -0.22 KCAL/MOL
REMARK 927      BINDING AFFINITY PREDICTED BY RF-SCORE:    0.00 PKD
ROOT
HETATM    1  C   UNL     1      -6.890  16.077  67.135  1.00  0.00    -0.188 C  
HETATM    2  O   UNL     1      -8.147  16.434  66.569  1.00  0.00    -0.254 OA 
ENDROOT
BRANCH   2   3
HETATM    3  C   UNL     1      -9.076  15.437  66.431  1.00  0.00    -0.314 A  
HETATM    4  C   UNL     1     -10.286  15.511  65.738  1.00  0.00    -0.363 A  
HETATM    5  O   UNL     1     -10.743  16.652  65.142  1.00  0.00    -0.621 OA 
HETATM    6  C   UNL     1     -11.150  14.419  65.689  1.00  0.00    -0.321 A  
HETATM    7  H   UNL     1     -11.567  16.703  64.671  1.00  0.00     0.000 HD 
HETATM    8  C   UNL     1     -10.837  13.248  66.378  1.00  0.00    -0.296 A  
HETATM    9  C   UNL     1      -9.644  13.155  67.105  1.00  0.00    -0.235 A  
HETATM   10  C   UNL     1      -8.772  14.258  67.122  1.00  0.00    -0.243 A  
BRANCH   9  11
HETATM   11  C   UNL     1      -9.324  11.898  67.880  1.00  0.00    -0.187 C  
BRANCH  11  12
HETATM   12  C   UNL     1      -9.971  10.675  67.289  1.00  0.00    -0.224 C  
HETATM   13  C   UNL     1     -10.400   9.624  68.000  1.00  0.00    -0.262 C  
ENDBRANCH  11  12
ENDBRANCH   9  11
ENDBRANCH   2   3
TORSDOF 3
ENDMDL
MODEL      119
REMARK 921   NORMALIZED FREE ENERGY PREDICTED BY IDOCK:   -3.01 KCAL/MOL
REMARK 922        TOTAL FREE ENERGY PREDICTED BY IDOCK:   -3.73 KCAL/MOL
REMARK 923 INTER-LIGAND FREE ENERGY PREDICTED BY IDOCK:   -3.53 KCAL/MOL
REMARK 924 INTRA-LIGAND FREE ENERGY PREDICTED BY IDOCK:   -0.19 KCAL/MOL
REMARK 927      BINDING AFFINITY PREDICTED BY RF-SCORE:    0.00 PKD
ROOT
HETATM    1  C   UNL     1      -8.938   2.480  67.391  1.00  0.00    -0.159 C  
HETATM    2  O   UNL     1      -8.522   3.818  67.644  1.00  0.00    -0.093 OA 
ENDROOT
BRANCH   2   3
HETATM    3  C   UNL     1      -9.479   4.700  68.069  1.00  0.00    -0.146 A  
HETATM    4  C   UNL     1     -10.218   5.581  67.276  1.00  0.00    -0.212 A  
HETATM    5  O   UNL     1     -10.025   5.724  65.931  1.00  0.00    -0.377 OA 
HETATM    6  C   UNL     1     -11.156   6.440  67.845  1.00  0.00    -0.370 A  
HETATM    7  H   UNL     1     -10.527   6.323  65.392  1.00  0.00     0.000 HD 
HETATM    8  C   UNL     1     -11.333   6.467  69.227  1.00  0.00    -0.405 A  
HETATM    9  C   UNL     1     -10.586   5.616  70.050  1.00  0.00    -0.388 A  
HETATM   10  C   UNL     1      -9.662   4.736  69.458  1.00  0.00    -0.271 A  
BRANCH   9  11
HETATM   11  C   UNL     1     -10.755   5.672  71.551  1.00  0.00    -0.306 C  
BRANCH  11  12
HETATM   12  C   UNL     1     -11.836   6.627  71.975  1.00  0.00    -0.365 C  
HETATM   13  C   UNL     1     -11.615   7.853  72.468  1.00  0.00    -0.443 C  
ENDBRANCH  11  12
ENDBRANCH   9  11
ENDBRANCH   2   3
TORSDOF 3
ENDMDL
MODEL      120
REMARK 921   NORMALIZED FREE ENERGY PREDICTED BY IDOCK:   -3.01 KCAL/MOL
REMARK 922        TOTAL FREE ENERGY PREDICTED BY IDOCK:   -3.73 KCAL/MOL
REMARK 923 INTER-LIGAND FREE ENERGY PREDICTED BY IDOCK:   -3.54 KCAL/MOL
REMARK 924 INTRA-LIGAND FREE ENERGY PREDICTED BY IDOCK:   -0.19 KCAL/MOL
REMARK 927      BINDING AFFINITY PREDICTED BY RF-SCORE:    0.00 PKD
ROOT
HETATM    1  C   UNL     1     -10.644  19.817  66.105  1.00  0.00    -0.464 C  
HETATM    2  O   UNL     1     -10.843  19.085  67.311  1.00  0.00    -0.472 OA 
ENDROOT
BRANCH   2   3
HETATM    3  C   UNL     1      -9.857  18.211  67.682  1.00  0.00    -0.312 A  
HETATM    4  C   UNL     1      -9.946  17.212  68.653  1.00  0.00    -0.313 A  
HETATM    5  O   UNL     1     -11.053  17.014  69.430  1.00  0.00    -0.308 OA 
HETATM    6  C   UNL     1      -8.854  16.397  68.943  1.00  0.00    -0.256 A  
HETATM    7  H   UNL     1     -11.113  16.335  70.091  1.00  0.00     0.000 HD 
HETATM    8  C   UNL     1      -7.636  16.604  68.299  1.00  0.00    -0.181 A  
HETATM    9  C   UNL     1      -7.508  17.618  67.341  1.00  0.00    -0.209 A  
HETATM   10  C   UNL     1      -8.628  18.414  67.042  1.00  0.00    -0.264 A  
BRANCH   9  11
HETATM   11  C   UNL     1      -6.177  17.864  66.670  1.00  0.00    -0.203 C  
BRANCH  11  12
HETATM   12  C   UNL     1      -6.320  18.551  65.339  1.00  0.00    -0.306 C  
HETATM   13  C   UNL     1      -5.838  19.769  65.058  1.00  0.00    -0.253 C  
ENDBRANCH  11  12
ENDBRANCH   9  11
ENDBRANCH   2   3
TORSDOF 3
ENDMDL
MODEL      121
REMARK 921   NORMALIZED FREE ENERGY PREDICTED BY IDOCK:   -3.00 KCAL/MOL
REMARK 922        TOTAL FREE ENERGY PREDICTED BY IDOCK:   -3.72 KCAL/MOL
REMARK 923 INTER-LIGAND FREE ENERGY PREDICTED BY IDOCK:   -3.50 KCAL/MOL
REMARK 924 INTRA-LIGAND FREE ENERGY PREDICTED BY IDOCK:   -0.22 KCAL/MOL
REMARK 927      BINDING AFFINITY PREDICTED BY RF-SCORE:    0.00 PKD
ROOT
HETATM    1  C   UNL     1     -10.341   5.964  68.324  1.00  0.00    -0.214 C  
HETATM    2  O   UNL     1     -11.501   6.175  69.122  1.00  0.00    -0.379 OA 
ENDROOT
BRANCH   2   3
HETATM    3  C   UNL     1     -11.331   6.839  70.308  1.00  0.00    -0.352 A  
HETATM    4  C   UNL     1     -12.336   7.309  71.156  1.00  0.00    -0.345 A  
HETATM    5  O   UNL     1     -13.668   7.219  70.866  1.00  0.00    -0.592 OA 
HETATM    6  C   UNL     1     -12.021   7.985  72.332  1.00  0.00    -0.405 A  
HETATM    7  H   UNL     1     -14.352   7.539  71.442  1.00  0.00     0.000 HD 
HETATM    8  C   UNL     1     -10.690   8.247  72.654  1.00  0.00    -0.384 A  
HETATM    9  C   UNL     1      -9.662   7.813  71.809  1.00  0.00    -0.206 A  
HETATM   10  C   UNL     1      -9.997   7.109  70.638  1.00  0.00    -0.195 A  
BRANCH   9  11
HETATM   11  C   UNL     1      -8.222   8.128  72.141  1.00  0.00    -0.197 C  
BRANCH  11  12
HETATM   12  C   UNL     1      -7.601   7.103  73.050  1.00  0.00    -0.087 C  
HETATM   13  C   UNL     1      -7.673   7.132  74.388  1.00  0.00    -0.145 C  
ENDBRANCH  11  12
ENDBRANCH   9  11
ENDBRANCH   2   3
TORSDOF 3
ENDMDL
MODEL      122
REMARK 921   NORMALIZED FREE ENERGY PREDICTED BY IDOCK:   -3.00 KCAL/MOL
REMARK 922        TOTAL FREE ENERGY PREDICTED BY IDOCK:   -3.72 KCAL/MOL
REMARK 923 INTER-LIGAND FREE ENERGY PREDICTED BY IDOCK:   -3.49 KCAL/MOL
REMARK 924 INTRA-LIGAND FREE ENERGY PREDICTED BY IDOCK:   -0.23 KCAL/MOL
REMARK 927      BINDING AFFINITY PREDICTED BY RF-SCORE:    0.00 PKD
ROOT
HETATM    1  C   UNL     1      -9.414   4.164  66.522  1.00  0.00    -0.189 C  
HETATM    2  O   UNL     1     -10.343   5.196  66.206  1.00  0.00    -0.236 OA 
ENDROOT
BRANCH   2   3
HETATM    3  C   UNL     1     -10.423   6.251  67.074  1.00  0.00    -0.278 A  
HETATM    4  C   UNL     1     -10.112   7.585  66.802  1.00  0.00    -0.243 A  
HETATM    5  O   UNL     1      -9.606   8.011  65.606  1.00  0.00    -0.412 OA 
HETATM    6  C   UNL     1     -10.227   8.562  67.789  1.00  0.00    -0.283 A  
HETATM    7  H   UNL     1      -9.394   8.918  65.421  1.00  0.00     0.000 HD 
HETATM    8  C   UNL     1     -10.607   8.209  69.082  1.00  0.00    -0.179 A  
HETATM    9  C   UNL     1     -10.898   6.875  69.392  1.00  0.00    -0.283 A  
HETATM   10  C   UNL     1     -10.803   5.906  68.377  1.00  0.00    -0.322 A  
BRANCH   9  11
HETATM   11  C   UNL     1     -11.276   6.489  70.804  1.00  0.00    -0.377 C  
BRANCH  11  12
HETATM   12  C   UNL     1     -10.459   7.213  71.838  1.00  0.00    -0.220 C  
HETATM   13  C   UNL     1     -10.965   7.794  72.934  1.00  0.00    -0.467 C  
ENDBRANCH  11  12
ENDBRANCH   9  11
ENDBRANCH   2   3
TORSDOF 3
ENDMDL
MODEL      123
REMARK 921   NORMALIZED FREE ENERGY PREDICTED BY IDOCK:   -2.98 KCAL/MOL
REMARK 922        TOTAL FREE ENERGY PREDICTED BY IDOCK:   -3.69 KCAL/MOL
REMARK 923 INTER-LIGAND FREE ENERGY PREDICTED BY IDOCK:   -3.70 KCAL/MOL
REMARK 924 INTRA-LIGAND FREE ENERGY PREDICTED BY IDOCK:    0.01 KCAL/MOL
REMARK 927      BINDING AFFINITY PREDICTED BY RF-SCORE:    0.00 PKD
ROOT
HETATM    1  C   UNL     1     -14.410   8.322  72.146  1.00  0.00    -0.404 C  
HETATM    2  O   UNL     1     -13.696   7.450  71.275  1.00  0.00    -0.359 OA 
ENDROOT
BRANCH   2   3
HETATM    3  C   UNL     1     -12.339   7.374  71.441  1.00  0.00    -0.361 A  
HETATM    4  C   UNL     1     -11.638   6.423  72.186  1.00  0.00    -0.313 A  
HETATM    5  O   UNL     1     -12.248   5.448  72.925  1.00  0.00    -0.508 OA 
HETATM    6  C   UNL     1     -10.250   6.472  72.283  1.00  0.00    -0.203 A  
HETATM    7  H   UNL     1     -11.772   4.802  73.432  1.00  0.00     0.000 HD 
HETATM    8  C   UNL     1      -9.542   7.507  71.674  1.00  0.00    -0.171 A  
HETATM    9  C   UNL     1     -10.219   8.491  70.944  1.00  0.00    -0.246 A  
HETATM   10  C   UNL     1     -11.620   8.412  70.835  1.00  0.00    -0.288 A  
BRANCH   9  11
HETATM   11  C   UNL     1      -9.453   9.632  70.315  1.00  0.00    -0.300 C  
BRANCH  11  12
HETATM   12  C   UNL     1     -10.183  10.245  69.152  1.00  0.00    -0.234 C  
HETATM   13  C   UNL     1     -11.056  11.257  69.251  1.00  0.00    -0.314 C  
ENDBRANCH  11  12
ENDBRANCH   9  11
ENDBRANCH   2   3
TORSDOF 3
ENDMDL
MODEL      124
REMARK 921   NORMALIZED FREE ENERGY PREDICTED BY IDOCK:   -2.97 KCAL/MOL
REMARK 922        TOTAL FREE ENERGY PREDICTED BY IDOCK:   -3.68 KCAL/MOL
REMARK 923 INTER-LIGAND FREE ENERGY PREDICTED BY IDOCK:   -3.55 KCAL/MOL
REMARK 924 INTRA-LIGAND FREE ENERGY PREDICTED BY IDOCK:   -0.13 KCAL/MOL
REMARK 927      BINDING AFFINITY PREDICTED BY RF-SCORE:    0.00 PKD
ROOT
HETATM    1  C   UNL     1      -9.192   8.463  67.837  1.00  0.00    -0.135 C  
HETATM    2  O   UNL     1     -10.379   9.235  67.984  1.00  0.00    -0.199 OA 
ENDROOT
BRANCH   2   3
HETATM    3  C   UNL     1     -10.601  10.222  67.060  1.00  0.00    -0.239 A  
HETATM    4  C   UNL     1     -11.319  11.404  67.254  1.00  0.00    -0.275 A  
HETATM    5  O   UNL     1     -11.970  11.707  68.416  1.00  0.00    -0.483 OA 
HETATM    6  C   UNL     1     -11.481  12.320  66.217  1.00  0.00    -0.435 A  
HETATM    7  H   UNL     1     -12.459  12.510  68.548  1.00  0.00     0.000 HD 
HETATM    8  C   UNL     1     -10.968  12.043  64.951  1.00  0.00    -0.356 A  
HETATM    9  C   UNL     1     -10.268  10.852  64.720  1.00  0.00    -0.398 A  
HETATM   10  C   UNL     1     -10.092   9.950  65.784  1.00  0.00    -0.317 A  
BRANCH   9  11
HETATM   11  C   UNL     1      -9.744  10.537  63.338  1.00  0.00    -0.368 C  
BRANCH  11  12
HETATM   12  C   UNL     1      -8.553   9.618  63.368  1.00  0.00    -0.213 C  
HETATM   13  C   UNL     1      -7.308   9.999  63.685  1.00  0.00    -0.134 C  
ENDBRANCH  11  12
ENDBRANCH   9  11
ENDBRANCH   2   3
TORSDOF 3
ENDMDL
MODEL      125
REMARK 921   NORMALIZED FREE ENERGY PREDICTED BY IDOCK:   -2.96 KCAL/MOL
REMARK 922        TOTAL FREE ENERGY PREDICTED BY IDOCK:   -3.68 KCAL/MOL
REMARK 923 INTER-LIGAND FREE ENERGY PREDICTED BY IDOCK:   -3.46 KCAL/MOL
REMARK 924 INTRA-LIGAND FREE ENERGY PREDICTED BY IDOCK:   -0.22 KCAL/MOL
REMARK 927      BINDING AFFINITY PREDICTED BY RF-SCORE:    0.00 PKD
ROOT
HETATM    1  C   UNL     1     -11.562  15.773  71.731  1.00  0.00    -0.456 C  
HETATM    2  O   UNL     1     -12.403  15.736  70.582  1.00  0.00    -0.408 OA 
ENDROOT
BRANCH   2   3
HETATM    3  C   UNL     1     -11.958  15.017  69.505  1.00  0.00    -0.313 A  
HETATM    4  C   UNL     1     -12.026  13.632  69.336  1.00  0.00    -0.342 A  
HETATM    5  O   UNL     1     -12.508  12.781  70.290  1.00  0.00    -0.219 OA 
HETATM    6  C   UNL     1     -11.519  13.026  68.189  1.00  0.00    -0.356 A  
HETATM    7  H   UNL     1     -12.555  11.839  70.176  1.00  0.00     0.000 HD 
HETATM    8  C   UNL     1     -10.886  13.793  67.213  1.00  0.00    -0.292 A  
HETATM    9  C   UNL     1     -10.776  15.180  67.369  1.00  0.00    -0.286 A  
HETATM   10  C   UNL     1     -11.318  15.780  68.520  1.00  0.00    -0.374 A  
BRANCH   9  11
HETATM   11  C   UNL     1     -10.058  16.006  66.326  1.00  0.00    -0.329 C  
BRANCH  11  12
HETATM   12  C   UNL     1     -10.176  15.422  64.945  1.00  0.00    -0.162 C  
HETATM   13  C   UNL     1     -11.228  15.597  64.134  1.00  0.00     0.078 C  
ENDBRANCH  11  12
ENDBRANCH   9  11
ENDBRANCH   2   3
TORSDOF 3
ENDMDL
MODEL      126
REMARK 921   NORMALIZED FREE ENERGY PREDICTED BY IDOCK:   -2.96 KCAL/MOL
REMARK 922        TOTAL FREE ENERGY PREDICTED BY IDOCK:   -3.67 KCAL/MOL
REMARK 923 INTER-LIGAND FREE ENERGY PREDICTED BY IDOCK:   -3.45 KCAL/MOL
REMARK 924 INTRA-LIGAND FREE ENERGY PREDICTED BY IDOCK:   -0.22 KCAL/MOL
REMARK 927      BINDING AFFINITY PREDICTED BY RF-SCORE:    0.00 PKD
ROOT
HETATM    1  C   UNL     1      -8.667   7.729  73.946  1.00  0.00    -0.267 C  
HETATM    2  O   UNL     1      -9.470   8.502  73.061  1.00  0.00    -0.211 OA 
ENDROOT
BRANCH   2   3
HETATM    3  C   UNL     1     -10.230   7.819  72.149  1.00  0.00    -0.213 A  
HETATM    4  C   UNL     1     -11.624   7.737  72.114  1.00  0.00    -0.317 A  
HETATM    5  O   UNL     1     -12.434   8.298  73.061  1.00  0.00    -0.673 OA 
HETATM    6  C   UNL     1     -12.272   6.991  71.133  1.00  0.00    -0.427 A  
HETATM    7  H   UNL     1     -13.382   8.243  73.038  1.00  0.00     0.000 HD 
HETATM    8  C   UNL     1     -11.531   6.271  70.197  1.00  0.00    -0.452 A  
HETATM    9  C   UNL     1     -10.132   6.310  70.225  1.00  0.00    -0.226 A  
HETATM   10  C   UNL     1      -9.494   7.090  71.207  1.00  0.00    -0.164 A  
BRANCH   9  11
HETATM   11  C   UNL     1      -9.330   5.501  69.232  1.00  0.00    -0.153 C  
BRANCH  11  12
HETATM   12  C   UNL     1     -10.041   5.330  67.918  1.00  0.00    -0.208 C  
HETATM   13  C   UNL     1      -9.428   5.151  66.741  1.00  0.00    -0.143 C  
ENDBRANCH  11  12
ENDBRANCH   9  11
ENDBRANCH   2   3
TORSDOF 3
ENDMDL
MODEL      127
REMARK 921   NORMALIZED FREE ENERGY PREDICTED BY IDOCK:   -2.96 KCAL/MOL
REMARK 922        TOTAL FREE ENERGY PREDICTED BY IDOCK:   -3.67 KCAL/MOL
REMARK 923 INTER-LIGAND FREE ENERGY PREDICTED BY IDOCK:   -3.46 KCAL/MOL
REMARK 924 INTRA-LIGAND FREE ENERGY PREDICTED BY IDOCK:   -0.21 KCAL/MOL
REMARK 927      BINDING AFFINITY PREDICTED BY RF-SCORE:    0.00 PKD
ROOT
HETATM    1  C   UNL     1     -12.647  13.355  65.205  1.00  0.00    -0.440 C  
HETATM    2  O   UNL     1     -11.410  13.289  65.906  1.00  0.00    -0.302 OA 
ENDROOT
BRANCH   2   3
HETATM    3  C   UNL     1     -10.885  12.045  66.132  1.00  0.00    -0.286 A  
HETATM    4  C   UNL     1     -11.216  11.172  67.170  1.00  0.00    -0.249 A  
HETATM    5  O   UNL     1     -12.095  11.488  68.167  1.00  0.00    -0.604 OA 
HETATM    6  C   UNL     1     -10.589   9.934  67.290  1.00  0.00    -0.316 A  
HETATM    7  H   UNL     1     -12.320  10.894  68.873  1.00  0.00     0.000 HD 
HETATM    8  C   UNL     1      -9.581   9.570  66.399  1.00  0.00    -0.273 A  
HETATM    9  C   UNL     1      -9.207  10.437  65.366  1.00  0.00    -0.233 A  
HETATM   10  C   UNL     1      -9.868  11.673  65.243  1.00  0.00    -0.279 A  
BRANCH   9  11
HETATM   11  C   UNL     1      -8.089  10.057  64.423  1.00  0.00    -0.156 C  
BRANCH  11  12
HETATM   12  C   UNL     1      -8.550   9.147  63.318  1.00  0.00    -0.182 C  
HETATM   13  C   UNL     1      -7.873   8.075  62.884  1.00  0.00    -0.144 C  
ENDBRANCH  11  12
ENDBRANCH   9  11
ENDBRANCH   2   3
TORSDOF 3
ENDMDL
MODEL      128
REMARK 921   NORMALIZED FREE ENERGY PREDICTED BY IDOCK:   -2.95 KCAL/MOL
REMARK 922        TOTAL FREE ENERGY PREDICTED BY IDOCK:   -3.65 KCAL/MOL
REMARK 923 INTER-LIGAND FREE ENERGY PREDICTED BY IDOCK:   -3.42 KCAL/MOL
REMARK 924 INTRA-LIGAND FREE ENERGY PREDICTED BY IDOCK:   -0.23 KCAL/MOL
REMARK 927      BINDING AFFINITY PREDICTED BY RF-SCORE:    0.00 PKD
ROOT
HETATM    1  C   UNL     1      -9.095   5.487  68.120  1.00  0.00    -0.108 C  
HETATM    2  O   UNL     1     -10.070   4.960  69.014  1.00  0.00    -0.189 OA 
ENDROOT
BRANCH   2   3
HETATM    3  C   UNL     1     -10.293   5.652  70.174  1.00  0.00    -0.271 A  
HETATM    4  C   UNL     1      -9.506   5.627  71.328  1.00  0.00    -0.148 A  
HETATM    5  O   UNL     1      -8.407   4.829  71.473  1.00  0.00    -0.104 OA 
HETATM    6  C   UNL     1      -9.859   6.375  72.450  1.00  0.00    -0.176 A  
HETATM    7  H   UNL     1      -7.873   4.812  72.257  1.00  0.00     0.000 HD 
HETATM    8  C   UNL     1     -11.036   7.121  72.452  1.00  0.00    -0.302 A  
HETATM    9  C   UNL     1     -11.860   7.142  71.320  1.00  0.00    -0.355 A  
HETATM   10  C   UNL     1     -11.475   6.403  70.186  1.00  0.00    -0.484 A  
BRANCH   9  11
HETATM   11  C   UNL     1     -13.154   7.923  71.337  1.00  0.00    -0.287 C  
BRANCH  11  12
HETATM   12  C   UNL     1     -13.037   9.216  72.096  1.00  0.00    -0.516 C  
HETATM   13  C   UNL     1     -13.215  10.430  71.559  1.00  0.00    -0.485 C  
ENDBRANCH  11  12
ENDBRANCH   9  11
ENDBRANCH   2   3
TORSDOF 3
ENDMDL
MODEL      129
REMARK 921   NORMALIZED FREE ENERGY PREDICTED BY IDOCK:   -2.94 KCAL/MOL
REMARK 922        TOTAL FREE ENERGY PREDICTED BY IDOCK:   -3.65 KCAL/MOL
REMARK 923 INTER-LIGAND FREE ENERGY PREDICTED BY IDOCK:   -3.41 KCAL/MOL
REMARK 924 INTRA-LIGAND FREE ENERGY PREDICTED BY IDOCK:   -0.24 KCAL/MOL
REMARK 927      BINDING AFFINITY PREDICTED BY RF-SCORE:    0.00 PKD
ROOT
HETATM    1  C   UNL     1      -8.438   6.851  73.874  1.00  0.00    -0.139 C  
HETATM    2  O   UNL     1      -9.613   7.655  73.885  1.00  0.00    -0.274 OA 
ENDROOT
BRANCH   2   3
HETATM    3  C   UNL     1     -10.467   7.528  72.822  1.00  0.00    -0.295 A  
HETATM    4  C   UNL     1     -11.397   6.508  72.612  1.00  0.00    -0.222 A  
HETATM    5  O   UNL     1     -11.533   5.432  73.443  1.00  0.00    -0.490 OA 
HETATM    6  C   UNL     1     -12.198   6.494  71.472  1.00  0.00    -0.328 A  
HETATM    7  H   UNL     1     -12.166   4.738  73.300  1.00  0.00     0.000 HD 
HETATM    8  C   UNL     1     -12.044   7.477  70.496  1.00  0.00    -0.030 A  
HETATM    9  C   UNL     1     -11.099   8.496  70.665  1.00  0.00    -0.280 A  
HETATM   10  C   UNL     1     -10.317   8.510  71.834  1.00  0.00    -0.378 A  
BRANCH   9  11
HETATM   11  C   UNL     1     -10.908   9.540  69.589  1.00  0.00    -0.255 C  
BRANCH  11  12
HETATM   12  C   UNL     1     -11.058  10.942  70.113  1.00  0.00    -0.238 C  
HETATM   13  C   UNL     1     -12.198  11.455  70.593  1.00  0.00    -0.484 C  
ENDBRANCH  11  12
ENDBRANCH   9  11
ENDBRANCH   2   3
TORSDOF 3
ENDMDL
MODEL      130
REMARK 921   NORMALIZED FREE ENERGY PREDICTED BY IDOCK:   -2.94 KCAL/MOL
REMARK 922        TOTAL FREE ENERGY PREDICTED BY IDOCK:   -3.64 KCAL/MOL
REMARK 923 INTER-LIGAND FREE ENERGY PREDICTED BY IDOCK:   -3.94 KCAL/MOL
REMARK 924 INTRA-LIGAND FREE ENERGY PREDICTED BY IDOCK:    0.30 KCAL/MOL
REMARK 927      BINDING AFFINITY PREDICTED BY RF-SCORE:    0.00 PKD
ROOT
HETATM    1  C   UNL     1     -12.369  15.168  73.282  1.00  0.00    -0.456 C  
HETATM    2  O   UNL     1     -12.324  16.085  72.193  1.00  0.00    -0.445 OA 
ENDROOT
BRANCH   2   3
HETATM    3  C   UNL     1     -12.037  15.572  70.956  1.00  0.00    -0.387 A  
HETATM    4  C   UNL     1     -12.353  14.297  70.484  1.00  0.00    -0.360 A  
HETATM    5  O   UNL     1     -12.957  13.340  71.250  1.00  0.00    -0.328 OA 
HETATM    6  C   UNL     1     -11.986  13.898  69.201  1.00  0.00    -0.404 A  
HETATM    7  H   UNL     1     -13.172  12.472  70.929  1.00  0.00     0.000 HD 
HETATM    8  C   UNL     1     -11.248  14.755  68.386  1.00  0.00    -0.298 A  
HETATM    9  C   UNL     1     -10.892  16.029  68.843  1.00  0.00    -0.286 A  
HETATM   10  C   UNL     1     -11.293  16.426  70.131  1.00  0.00    -0.202 A  
BRANCH   9  11
HETATM   11  C   UNL     1     -10.062  16.943  67.971  1.00  0.00    -0.293 C  
BRANCH  11  12
HETATM   12  C   UNL     1      -8.759  17.329  68.616  1.00  0.00    -0.268 C  
HETATM   13  C   UNL     1      -7.683  16.534  68.688  1.00  0.00    -0.216 C  
ENDBRANCH  11  12
ENDBRANCH   9  11
ENDBRANCH   2   3
TORSDOF 3
ENDMDL
MODEL      131
REMARK 921   NORMALIZED FREE ENERGY PREDICTED BY IDOCK:   -2.92 KCAL/MOL
REMARK 922        TOTAL FREE ENERGY PREDICTED BY IDOCK:   -3.63 KCAL/MOL
REMARK 923 INTER-LIGAND FREE ENERGY PREDICTED BY IDOCK:   -3.43 KCAL/MOL
REMARK 924 INTRA-LIGAND FREE ENERGY PREDICTED BY IDOCK:   -0.19 KCAL/MOL
REMARK 927      BINDING AFFINITY PREDICTED BY RF-SCORE:    0.00 PKD
ROOT
HETATM    1  C   UNL     1     -13.845   8.677  72.167  1.00  0.00    -0.429 C  
HETATM    2  O   UNL     1     -13.479   7.504  71.448  1.00  0.00    -0.359 OA 
ENDROOT
BRANCH   2   3
HETATM    3  C   UNL     1     -12.145   7.203  71.380  1.00  0.00    -0.344 A  
HETATM    4  C   UNL     1     -11.190   7.810  70.560  1.00  0.00    -0.257 A  
HETATM    5  O   UNL     1     -11.493   8.775  69.641  1.00  0.00    -0.437 OA 
HETATM    6  C   UNL     1      -9.861   7.394  70.581  1.00  0.00    -0.179 A  
HETATM    7  H   UNL     1     -10.844   9.187  69.083  1.00  0.00     0.000 HD 
HETATM    8  C   UNL     1      -9.475   6.325  71.389  1.00  0.00    -0.167 A  
HETATM    9  C   UNL     1     -10.416   5.678  72.200  1.00  0.00    -0.265 A  
HETATM   10  C   UNL     1     -11.748   6.129  72.186  1.00  0.00    -0.361 A  
BRANCH   9  11
HETATM   11  C   UNL     1     -10.003   4.498  73.048  1.00  0.00    -0.190 C  
BRANCH  11  12
HETATM   12  C   UNL     1     -10.050   3.199  72.290  1.00  0.00    -0.216 C  
HETATM   13  C   UNL     1     -10.590   2.066  72.760  1.00  0.00    -0.231 C  
ENDBRANCH  11  12
ENDBRANCH   9  11
ENDBRANCH   2   3
TORSDOF 3
ENDMDL
MODEL      132
REMARK 921   NORMALIZED FREE ENERGY PREDICTED BY IDOCK:   -2.92 KCAL/MOL
REMARK 922        TOTAL FREE ENERGY PREDICTED BY IDOCK:   -3.62 KCAL/MOL
REMARK 923 INTER-LIGAND FREE ENERGY PREDICTED BY IDOCK:   -3.57 KCAL/MOL
REMARK 924 INTRA-LIGAND FREE ENERGY PREDICTED BY IDOCK:   -0.05 KCAL/MOL
REMARK 927      BINDING AFFINITY PREDICTED BY RF-SCORE:    0.00 PKD
ROOT
HETATM    1  C   UNL     1      -9.923  10.712  69.494  1.00  0.00    -0.106 C  
HETATM    2  O   UNL     1     -10.828  10.531  70.578  1.00  0.00    -0.223 OA 
ENDROOT
BRANCH   2   3
HETATM    3  C   UNL     1     -11.300   9.264  70.793  1.00  0.00    -0.287 A  
HETATM    4  C   UNL     1     -12.419   8.903  71.549  1.00  0.00    -0.324 A  
HETATM    5  O   UNL     1     -13.175   9.801  72.248  1.00  0.00    -0.461 OA 
HETATM    6  C   UNL     1     -12.780   7.566  71.697  1.00  0.00    -0.385 A  
HETATM    7  H   UNL     1     -13.935   9.556  72.762  1.00  0.00     0.000 HD 
HETATM    8  C   UNL     1     -11.996   6.562  71.133  1.00  0.00    -0.365 A  
HETATM    9  C   UNL     1     -10.853   6.891  70.394  1.00  0.00    -0.297 A  
HETATM   10  C   UNL     1     -10.517   8.248  70.232  1.00  0.00    -0.221 A  
BRANCH   9  11
HETATM   11  C   UNL     1      -9.984   5.800  69.813  1.00  0.00    -0.250 C  
BRANCH  11  12
HETATM   12  C   UNL     1     -10.050   5.749  68.311  1.00  0.00    -0.208 C  
HETATM   13  C   UNL     1     -11.007   6.327  67.573  1.00  0.00    -0.444 C  
ENDBRANCH  11  12
ENDBRANCH   9  11
ENDBRANCH   2   3
TORSDOF 3
ENDMDL
MODEL      133
REMARK 921   NORMALIZED FREE ENERGY PREDICTED BY IDOCK:   -2.91 KCAL/MOL
REMARK 922        TOTAL FREE ENERGY PREDICTED BY IDOCK:   -3.62 KCAL/MOL
REMARK 923 INTER-LIGAND FREE ENERGY PREDICTED BY IDOCK:   -3.53 KCAL/MOL
REMARK 924 INTRA-LIGAND FREE ENERGY PREDICTED BY IDOCK:   -0.09 KCAL/MOL
REMARK 927      BINDING AFFINITY PREDICTED BY RF-SCORE:    0.00 PKD
ROOT
HETATM    1  C   UNL     1     -12.174  14.546  69.761  1.00  0.00    -0.312 C  
HETATM    2  O   UNL     1     -12.232  15.378  68.607  1.00  0.00    -0.175 OA 
ENDROOT
BRANCH   2   3
HETATM    3  C   UNL     1     -11.348  15.108  67.597  1.00  0.00    -0.321 A  
HETATM    4  C   UNL     1      -9.983  15.405  67.578  1.00  0.00    -0.226 A  
HETATM    5  O   UNL     1      -9.347  16.085  68.578  1.00  0.00    -0.200 OA 
HETATM    6  C   UNL     1      -9.198  15.086  66.472  1.00  0.00    -0.320 A  
HETATM    7  H   UNL     1      -8.419  16.286  68.564  1.00  0.00     0.000 HD 
HETATM    8  C   UNL     1      -9.779  14.509  65.344  1.00  0.00    -0.163 A  
HETATM    9  C   UNL     1     -11.150  14.227  65.323  1.00  0.00    -0.335 A  
HETATM   10  C   UNL     1     -11.923  14.532  66.458  1.00  0.00    -0.358 A  
BRANCH   9  11
HETATM   11  C   UNL     1     -11.785  13.635  64.086  1.00  0.00    -0.424 C  
BRANCH  11  12
HETATM   12  C   UNL     1     -11.767  12.131  64.092  1.00  0.00    -0.478 C  
HETATM   13  C   UNL     1     -11.070  11.383  64.958  1.00  0.00    -0.215 C  
ENDBRANCH  11  12
ENDBRANCH   9  11
ENDBRANCH   2   3
TORSDOF 3
ENDMDL
MODEL      134
REMARK 921   NORMALIZED FREE ENERGY PREDICTED BY IDOCK:   -2.91 KCAL/MOL
REMARK 922        TOTAL FREE ENERGY PREDICTED BY IDOCK:   -3.61 KCAL/MOL
REMARK 923 INTER-LIGAND FREE ENERGY PREDICTED BY IDOCK:   -3.39 KCAL/MOL
REMARK 924 INTRA-LIGAND FREE ENERGY PREDICTED BY IDOCK:   -0.23 KCAL/MOL
REMARK 927      BINDING AFFINITY PREDICTED BY RF-SCORE:    0.00 PKD
ROOT
HETATM    1  C   UNL     1     -12.638   9.583  71.673  1.00  0.00    -0.388 C  
HETATM    2  O   UNL     1     -11.571  10.357  71.135  1.00  0.00    -0.333 OA 
ENDROOT
BRANCH   2   3
HETATM    3  C   UNL     1     -11.097   9.997  69.902  1.00  0.00    -0.288 A  
HETATM    4  C   UNL     1     -11.351  10.637  68.687  1.00  0.00    -0.281 A  
HETATM    5  O   UNL     1     -12.191  11.707  68.562  1.00  0.00    -0.485 OA 
HETATM    6  C   UNL     1     -10.812  10.152  67.497  1.00  0.00    -0.349 A  
HETATM    7  H   UNL     1     -12.364  12.142  67.736  1.00  0.00     0.000 HD 
HETATM    8  C   UNL     1     -10.049   8.986  67.498  1.00  0.00    -0.285 A  
HETATM    9  C   UNL     1      -9.801   8.306  68.697  1.00  0.00    -0.186 A  
HETATM   10  C   UNL     1     -10.331   8.824  69.893  1.00  0.00    -0.212 A  
BRANCH   9  11
HETATM   11  C   UNL     1      -9.003   7.023  68.691  1.00  0.00    -0.130 C  
BRANCH  11  12
HETATM   12  C   UNL     1      -9.866   5.809  68.481  1.00  0.00    -0.177 C  
HETATM   13  C   UNL     1     -10.354   5.420  67.295  1.00  0.00    -0.273 C  
ENDBRANCH  11  12
ENDBRANCH   9  11
ENDBRANCH   2   3
TORSDOF 3
ENDMDL
MODEL      135
REMARK 921   NORMALIZED FREE ENERGY PREDICTED BY IDOCK:   -2.90 KCAL/MOL
REMARK 922        TOTAL FREE ENERGY PREDICTED BY IDOCK:   -3.60 KCAL/MOL
REMARK 923 INTER-LIGAND FREE ENERGY PREDICTED BY IDOCK:   -3.73 KCAL/MOL
REMARK 924 INTRA-LIGAND FREE ENERGY PREDICTED BY IDOCK:    0.13 KCAL/MOL
REMARK 927      BINDING AFFINITY PREDICTED BY RF-SCORE:    0.00 PKD
ROOT
HETATM    1  C   UNL     1     -10.627  16.690  67.376  1.00  0.00    -0.295 C  
HETATM    2  O   UNL     1     -10.193  15.689  68.290  1.00  0.00    -0.219 OA 
ENDROOT
BRANCH   2   3
HETATM    3  C   UNL     1     -10.554  14.396  68.020  1.00  0.00    -0.241 A  
HETATM    4  C   UNL     1     -10.440  13.733  66.796  1.00  0.00    -0.270 A  
HETATM    5  O   UNL     1      -9.996  14.336  65.653  1.00  0.00    -0.331 OA 
HETATM    6  C   UNL     1     -10.862  12.413  66.656  1.00  0.00    -0.281 A  
HETATM    7  H   UNL     1      -9.918  13.885  64.820  1.00  0.00     0.000 HD 
HETATM    8  C   UNL     1     -11.454  11.750  67.729  1.00  0.00    -0.381 A  
HETATM    9  C   UNL     1     -11.608  12.398  68.961  1.00  0.00    -0.362 A  
HETATM   10  C   UNL     1     -11.152  13.723  69.092  1.00  0.00    -0.282 A  
BRANCH   9  11
HETATM   11  C   UNL     1     -12.282  11.690  70.113  1.00  0.00    -0.367 C  
BRANCH  11  12
HETATM   12  C   UNL     1     -11.966  10.220  70.150  1.00  0.00    -0.313 C  
HETATM   13  C   UNL     1     -12.383   9.378  71.105  1.00  0.00    -0.386 C  
ENDBRANCH  11  12
ENDBRANCH   9  11
ENDBRANCH   2   3
TORSDOF 3
ENDMDL
MODEL      136
REMARK 921   NORMALIZED FREE ENERGY PREDICTED BY IDOCK:   -2.88 KCAL/MOL
REMARK 922        TOTAL FREE ENERGY PREDICTED BY IDOCK:   -3.58 KCAL/MOL
REMARK 923 INTER-LIGAND FREE ENERGY PREDICTED BY IDOCK:   -3.71 KCAL/MOL
REMARK 924 INTRA-LIGAND FREE ENERGY PREDICTED BY IDOCK:    0.13 KCAL/MOL
REMARK 927      BINDING AFFINITY PREDICTED BY RF-SCORE:    0.00 PKD
ROOT
HETATM    1  C   UNL     1      -9.991  18.842  67.988  1.00  0.00    -0.356 C  
HETATM    2  O   UNL     1      -9.888  17.547  68.572  1.00  0.00    -0.295 OA 
ENDROOT
BRANCH   2   3
HETATM    3  C   UNL     1      -9.905  16.474  67.721  1.00  0.00    -0.240 A  
HETATM    4  C   UNL     1      -9.176  16.332  66.539  1.00  0.00    -0.269 A  
HETATM    5  O   UNL     1      -8.370  17.311  66.029  1.00  0.00    -0.490 OA 
HETATM    6  C   UNL     1      -9.299  15.186  65.756  1.00  0.00    -0.207 A  
HETATM    7  H   UNL     1      -7.874  17.214  65.225  1.00  0.00     0.000 HD 
HETATM    8  C   UNL     1     -10.197  14.183  66.120  1.00  0.00    -0.313 A  
HETATM    9  C   UNL     1     -10.963  14.311  67.285  1.00  0.00    -0.302 A  
HETATM   10  C   UNL     1     -10.806  15.463  68.077  1.00  0.00    -0.292 A  
BRANCH   9  11
HETATM   11  C   UNL     1     -11.961  13.240  67.659  1.00  0.00    -0.366 C  
BRANCH  11  12
HETATM   12  C   UNL     1     -11.330  11.879  67.774  1.00  0.00    -0.361 C  
HETATM   13  C   UNL     1     -10.257  11.601  68.527  1.00  0.00    -0.216 C  
ENDBRANCH  11  12
ENDBRANCH   9  11
ENDBRANCH   2   3
TORSDOF 3
ENDMDL
MODEL      137
REMARK 921   NORMALIZED FREE ENERGY PREDICTED BY IDOCK:   -2.88 KCAL/MOL
REMARK 922        TOTAL FREE ENERGY PREDICTED BY IDOCK:   -3.58 KCAL/MOL
REMARK 923 INTER-LIGAND FREE ENERGY PREDICTED BY IDOCK:   -3.51 KCAL/MOL
REMARK 924 INTRA-LIGAND FREE ENERGY PREDICTED BY IDOCK:   -0.07 KCAL/MOL
REMARK 927      BINDING AFFINITY PREDICTED BY RF-SCORE:    0.00 PKD
ROOT
HETATM    1  C   UNL     1     -11.835  11.273  69.695  1.00  0.00    -0.360 C  
HETATM    2  O   UNL     1     -10.675  11.969  69.251  1.00  0.00    -0.146 OA 
ENDROOT
BRANCH   2   3
HETATM    3  C   UNL     1     -10.871  13.061  68.447  1.00  0.00    -0.258 A  
HETATM    4  C   UNL     1     -11.496  13.080  67.199  1.00  0.00    -0.331 A  
HETATM    5  O   UNL     1     -11.953  11.957  66.569  1.00  0.00    -0.588 OA 
HETATM    6  C   UNL     1     -11.616  14.266  66.477  1.00  0.00    -0.390 A  
HETATM    7  H   UNL     1     -12.379  11.970  65.720  1.00  0.00     0.000 HD 
HETATM    8  C   UNL     1     -11.063  15.446  66.973  1.00  0.00    -0.273 A  
HETATM    9  C   UNL     1     -10.404  15.451  68.208  1.00  0.00    -0.238 A  
HETATM   10  C   UNL     1     -10.316  14.250  68.936  1.00  0.00    -0.218 A  
BRANCH   9  11
HETATM   11  C   UNL     1      -9.775  16.723  68.727  1.00  0.00    -0.261 C  
BRANCH  11  12
HETATM   12  C   UNL     1      -8.290  16.593  68.925  1.00  0.00    -0.230 C  
HETATM   13  C   UNL     1      -7.373  17.356  68.314  1.00  0.00    -0.214 C  
ENDBRANCH  11  12
ENDBRANCH   9  11
ENDBRANCH   2   3
TORSDOF 3
ENDMDL
MODEL      138
REMARK 921   NORMALIZED FREE ENERGY PREDICTED BY IDOCK:   -2.88 KCAL/MOL
REMARK 922        TOTAL FREE ENERGY PREDICTED BY IDOCK:   -3.57 KCAL/MOL
REMARK 923 INTER-LIGAND FREE ENERGY PREDICTED BY IDOCK:   -3.49 KCAL/MOL
REMARK 924 INTRA-LIGAND FREE ENERGY PREDICTED BY IDOCK:   -0.08 KCAL/MOL
REMARK 927      BINDING AFFINITY PREDICTED BY RF-SCORE:    0.00 PKD
ROOT
HETATM    1  C   UNL     1      -8.508   8.871  68.278  1.00  0.00    -0.130 C  
HETATM    2  O   UNL     1      -9.096   9.762  69.219  1.00  0.00    -0.160 OA 
ENDROOT
BRANCH   2   3
HETATM    3  C   UNL     1      -9.530   9.226  70.402  1.00  0.00    -0.246 A  
HETATM    4  C   UNL     1      -8.753   8.934  71.524  1.00  0.00    -0.162 A  
HETATM    5  O   UNL     1      -7.396   9.095  71.562  1.00  0.00    -0.293 OA 
HETATM    6  C   UNL     1      -9.324   8.373  72.664  1.00  0.00    -0.334 A  
HETATM    7  H   UNL     1      -6.867   8.896  72.325  1.00  0.00     0.000 HD 
HETATM    8  C   UNL     1     -10.679   8.047  72.679  1.00  0.00    -0.426 A  
HETATM    9  C   UNL     1     -11.478   8.301  71.558  1.00  0.00    -0.325 A  
HETATM   10  C   UNL     1     -10.890   8.892  70.425  1.00  0.00    -0.269 A  
BRANCH   9  11
HETATM   11  C   UNL     1     -12.939   7.913  71.563  1.00  0.00    -0.338 C  
BRANCH  11  12
HETATM   12  C   UNL     1     -13.840   9.065  71.914  1.00  0.00    -0.477 C  
HETATM   13  C   UNL     1     -13.416  10.310  72.173  1.00  0.00    -0.332 C  
ENDBRANCH  11  12
ENDBRANCH   9  11
ENDBRANCH   2   3
TORSDOF 3
ENDMDL
MODEL      139
REMARK 921   NORMALIZED FREE ENERGY PREDICTED BY IDOCK:   -2.87 KCAL/MOL
REMARK 922        TOTAL FREE ENERGY PREDICTED BY IDOCK:   -3.57 KCAL/MOL
REMARK 923 INTER-LIGAND FREE ENERGY PREDICTED BY IDOCK:   -3.38 KCAL/MOL
REMARK 924 INTRA-LIGAND FREE ENERGY PREDICTED BY IDOCK:   -0.19 KCAL/MOL
REMARK 927      BINDING AFFINITY PREDICTED BY RF-SCORE:    0.00 PKD
ROOT
HETATM    1  C   UNL     1     -11.640  12.019  68.064  1.00  0.00    -0.342 C  
HETATM    2  O   UNL     1     -10.673  10.998  67.841  1.00  0.00    -0.191 OA 
ENDROOT
BRANCH   2   3
HETATM    3  C   UNL     1     -10.091  10.436  68.945  1.00  0.00    -0.201 A  
HETATM    4  C   UNL     1      -8.724  10.268  69.178  1.00  0.00    -0.172 A  
HETATM    5  O   UNL     1      -7.760  10.600  68.268  1.00  0.00    -0.099 OA 
HETATM    6  C   UNL     1      -8.266   9.664  70.347  1.00  0.00    -0.194 A  
HETATM    7  H   UNL     1      -6.830  10.486  68.426  1.00  0.00     0.000 HD 
HETATM    8  C   UNL     1      -9.175   9.170  71.281  1.00  0.00    -0.261 A  
HETATM    9  C   UNL     1     -10.552   9.297  71.061  1.00  0.00    -0.386 A  
HETATM   10  C   UNL     1     -10.996   9.934  69.888  1.00  0.00    -0.321 A  
BRANCH   9  11
HETATM   11  C   UNL     1     -11.535   8.729  72.058  1.00  0.00    -0.441 C  
BRANCH  11  12
HETATM   12  C   UNL     1     -11.733   7.247  71.893  1.00  0.00    -0.323 C  
HETATM   13  C   UNL     1     -11.781   6.614  70.713  1.00  0.00    -0.445 C  
ENDBRANCH  11  12
ENDBRANCH   9  11
ENDBRANCH   2   3
TORSDOF 3
ENDMDL
MODEL      140
REMARK 921   NORMALIZED FREE ENERGY PREDICTED BY IDOCK:   -2.86 KCAL/MOL
REMARK 922        TOTAL FREE ENERGY PREDICTED BY IDOCK:   -3.55 KCAL/MOL
REMARK 923 INTER-LIGAND FREE ENERGY PREDICTED BY IDOCK:   -3.42 KCAL/MOL
REMARK 924 INTRA-LIGAND FREE ENERGY PREDICTED BY IDOCK:   -0.13 KCAL/MOL
REMARK 927      BINDING AFFINITY PREDICTED BY RF-SCORE:    0.00 PKD
ROOT
HETATM    1  C   UNL     1     -10.613   6.886  66.981  1.00  0.00    -0.333 C  
HETATM    2  O   UNL     1      -9.811   7.362  68.057  1.00  0.00    -0.141 OA 
ENDROOT
BRANCH   2   3
HETATM    3  C   UNL     1     -10.391   8.247  68.926  1.00  0.00    -0.215 A  
HETATM    4  C   UNL     1     -10.791   9.555  68.647  1.00  0.00    -0.139 A  
HETATM    5  O   UNL     1     -10.586  10.163  67.440  1.00  0.00    -0.238 OA 
HETATM    6  C   UNL     1     -11.359  10.356  69.635  1.00  0.00    -0.333 A  
HETATM    7  H   UNL     1     -10.858  11.053  67.250  1.00  0.00     0.000 HD 
HETATM    8  C   UNL     1     -11.490   9.874  70.937  1.00  0.00    -0.456 A  
HETATM    9  C   UNL     1     -11.071   8.576  71.254  1.00  0.00    -0.320 A  
HETATM   10  C   UNL     1     -10.524   7.772  70.237  1.00  0.00    -0.225 A  
BRANCH   9  11
HETATM   11  C   UNL     1     -11.181   8.069  72.673  1.00  0.00    -0.462 C  
BRANCH  11  12
HETATM   12  C   UNL     1     -10.541   6.720  72.854  1.00  0.00    -0.278 C  
HETATM   13  C   UNL     1     -11.202   5.606  73.195  1.00  0.00    -0.285 C  
ENDBRANCH  11  12
ENDBRANCH   9  11
ENDBRANCH   2   3
TORSDOF 3
ENDMDL
MODEL      141
REMARK 921   NORMALIZED FREE ENERGY PREDICTED BY IDOCK:   -2.85 KCAL/MOL
REMARK 922        TOTAL FREE ENERGY PREDICTED BY IDOCK:   -3.54 KCAL/MOL
REMARK 923 INTER-LIGAND FREE ENERGY PREDICTED BY IDOCK:   -3.33 KCAL/MOL
REMARK 924 INTRA-LIGAND FREE ENERGY PREDICTED BY IDOCK:   -0.21 KCAL/MOL
REMARK 927      BINDING AFFINITY PREDICTED BY RF-SCORE:    0.00 PKD
ROOT
HETATM    1  C   UNL     1      -8.764   9.232  68.218  1.00  0.00    -0.129 C  
HETATM    2  O   UNL     1      -8.384  10.291  67.346  1.00  0.00    -0.117 OA 
ENDROOT
BRANCH   2   3
HETATM    3  C   UNL     1      -9.242  10.596  66.323  1.00  0.00    -0.170 A  
HETATM    4  C   UNL     1      -9.223  10.070  65.029  1.00  0.00    -0.225 A  
HETATM    5  O   UNL     1      -8.270   9.197  64.586  1.00  0.00    -0.134 OA 
HETATM    6  C   UNL     1     -10.152  10.482  64.077  1.00  0.00    -0.321 A  
HETATM    7  H   UNL     1      -8.258   8.839  63.706  1.00  0.00     0.000 HD 
HETATM    8  C   UNL     1     -11.086  11.469  64.390  1.00  0.00    -0.359 A  
HETATM    9  C   UNL     1     -11.110  12.036  65.670  1.00  0.00    -0.361 A  
HETATM   10  C   UNL     1     -10.181  11.589  66.628  1.00  0.00    -0.254 A  
BRANCH   9  11
HETATM   11  C   UNL     1     -12.099  13.131  65.996  1.00  0.00    -0.495 C  
BRANCH  11  12
HETATM   12  C   UNL     1     -11.956  13.636  67.406  1.00  0.00    -0.413 C  
HETATM   13  C   UNL     1     -11.531  14.863  67.733  1.00  0.00    -0.353 C  
ENDBRANCH  11  12
ENDBRANCH   9  11
ENDBRANCH   2   3
TORSDOF 3
ENDMDL
MODEL      142
REMARK 921   NORMALIZED FREE ENERGY PREDICTED BY IDOCK:   -2.84 KCAL/MOL
REMARK 922        TOTAL FREE ENERGY PREDICTED BY IDOCK:   -3.53 KCAL/MOL
REMARK 923 INTER-LIGAND FREE ENERGY PREDICTED BY IDOCK:   -3.32 KCAL/MOL
REMARK 924 INTRA-LIGAND FREE ENERGY PREDICTED BY IDOCK:   -0.21 KCAL/MOL
REMARK 927      BINDING AFFINITY PREDICTED BY RF-SCORE:    0.00 PKD
ROOT
HETATM    1  C   UNL     1      -8.169  13.926  68.357  1.00  0.00    -0.153 C  
HETATM    2  O   UNL     1      -9.585  13.924  68.508  1.00  0.00    -0.213 OA 
ENDROOT
BRANCH   2   3
HETATM    3  C   UNL     1     -10.315  13.266  67.554  1.00  0.00    -0.229 A  
HETATM    4  C   UNL     1     -11.497  13.705  66.953  1.00  0.00    -0.345 A  
HETATM    5  O   UNL     1     -12.133  14.862  67.302  1.00  0.00    -0.438 OA 
HETATM    6  C   UNL     1     -12.147  12.924  66.000  1.00  0.00    -0.484 A  
HETATM    7  H   UNL     1     -12.937  15.160  66.894  1.00  0.00     0.000 HD 
HETATM    8  C   UNL     1     -11.650  11.664  65.670  1.00  0.00    -0.087 A  
HETATM    9  C   UNL     1     -10.483  11.185  66.277  1.00  0.00    -0.312 A  
HETATM   10  C   UNL     1      -9.824  11.998  67.218  1.00  0.00    -0.200 A  
BRANCH   9  11
HETATM   11  C   UNL     1      -9.966   9.805  65.944  1.00  0.00    -0.345 C  
BRANCH  11  12
HETATM   12  C   UNL     1     -10.311   8.789  66.998  1.00  0.00    -0.353 C  
HETATM   13  C   UNL     1      -9.438   8.279  67.876  1.00  0.00    -0.163 C  
ENDBRANCH  11  12
ENDBRANCH   9  11
ENDBRANCH   2   3
TORSDOF 3
ENDMDL
MODEL      143
REMARK 921   NORMALIZED FREE ENERGY PREDICTED BY IDOCK:   -2.84 KCAL/MOL
REMARK 922        TOTAL FREE ENERGY PREDICTED BY IDOCK:   -3.53 KCAL/MOL
REMARK 923 INTER-LIGAND FREE ENERGY PREDICTED BY IDOCK:   -3.25 KCAL/MOL
REMARK 924 INTRA-LIGAND FREE ENERGY PREDICTED BY IDOCK:   -0.27 KCAL/MOL
REMARK 927      BINDING AFFINITY PREDICTED BY RF-SCORE:    0.00 PKD
ROOT
HETATM    1  C   UNL     1     -10.597   8.025  69.421  1.00  0.00    -0.205 C  
HETATM    2  O   UNL     1     -10.421   9.106  70.331  1.00  0.00    -0.196 OA 
ENDROOT
BRANCH   2   3
HETATM    3  C   UNL     1     -10.882  10.334  69.939  1.00  0.00    -0.302 A  
HETATM    4  C   UNL     1     -11.879  11.092  70.558  1.00  0.00    -0.367 A  
HETATM    5  O   UNL     1     -12.593  10.656  71.638  1.00  0.00    -0.395 OA 
HETATM    6  C   UNL     1     -12.263  12.327  70.042  1.00  0.00    -0.267 A  
HETATM    7  H   UNL     1     -13.271  11.170  72.059  1.00  0.00     0.000 HD 
HETATM    8  C   UNL     1     -11.688  12.803  68.864  1.00  0.00    -0.370 A  
HETATM    9  C   UNL     1     -10.707  12.053  68.206  1.00  0.00    -0.252 A  
HETATM   10  C   UNL     1     -10.312  10.819  68.755  1.00  0.00    -0.209 A  
BRANCH   9  11
HETATM   11  C   UNL     1     -10.110  12.553  66.911  1.00  0.00    -0.232 C  
BRANCH  11  12
HETATM   12  C   UNL     1      -9.640  13.979  67.005  1.00  0.00    -0.253 C  
HETATM   13  C   UNL     1      -8.448  14.355  67.488  1.00  0.00    -0.202 C  
ENDBRANCH  11  12
ENDBRANCH   9  11
ENDBRANCH   2   3
TORSDOF 3
ENDMDL
MODEL      144
REMARK 921   NORMALIZED FREE ENERGY PREDICTED BY IDOCK:   -2.82 KCAL/MOL
REMARK 922        TOTAL FREE ENERGY PREDICTED BY IDOCK:   -3.51 KCAL/MOL
REMARK 923 INTER-LIGAND FREE ENERGY PREDICTED BY IDOCK:   -3.34 KCAL/MOL
REMARK 924 INTRA-LIGAND FREE ENERGY PREDICTED BY IDOCK:   -0.17 KCAL/MOL
REMARK 927      BINDING AFFINITY PREDICTED BY RF-SCORE:    0.00 PKD
ROOT
HETATM    1  C   UNL     1      -7.542   8.310  72.487  1.00  0.00    -0.115 C  
HETATM    2  O   UNL     1      -8.794   8.918  72.791  1.00  0.00    -0.324 OA 
ENDROOT
BRANCH   2   3
HETATM    3  C   UNL     1      -9.924   8.205  72.493  1.00  0.00    -0.302 A  
HETATM    4  C   UNL     1     -10.983   8.615  71.679  1.00  0.00    -0.308 A  
HETATM    5  O   UNL     1     -11.056   9.854  71.107  1.00  0.00    -0.350 OA 
HETATM    6  C   UNL     1     -12.086   7.790  71.471  1.00  0.00    -0.336 A  
HETATM    7  H   UNL     1     -11.776  10.133  70.554  1.00  0.00     0.000 HD 
HETATM    8  C   UNL     1     -12.170   6.558  72.118  1.00  0.00    -0.277 A  
HETATM    9  C   UNL     1     -11.137   6.133  72.962  1.00  0.00    -0.250 A  
HETATM   10  C   UNL     1     -10.019   6.967  73.140  1.00  0.00    -0.242 A  
BRANCH   9  11
HETATM   11  C   UNL     1     -11.247   4.813  73.690  1.00  0.00    -0.332 C  
BRANCH  11  12
HETATM   12  C   UNL     1     -10.539   3.697  72.971  1.00  0.00    -0.252 C  
HETATM   13  C   UNL     1     -10.610   2.405  73.318  1.00  0.00    -0.250 C  
ENDBRANCH  11  12
ENDBRANCH   9  11
ENDBRANCH   2   3
TORSDOF 3
ENDMDL
MODEL      145
REMARK 921   NORMALIZED FREE ENERGY PREDICTED BY IDOCK:   -2.82 KCAL/MOL
REMARK 922        TOTAL FREE ENERGY PREDICTED BY IDOCK:   -3.50 KCAL/MOL
REMARK 923 INTER-LIGAND FREE ENERGY PREDICTED BY IDOCK:   -3.40 KCAL/MOL
REMARK 924 INTRA-LIGAND FREE ENERGY PREDICTED BY IDOCK:   -0.11 KCAL/MOL
REMARK 927      BINDING AFFINITY PREDICTED BY RF-SCORE:    0.00 PKD
ROOT
HETATM    1  C   UNL     1     -12.527   8.571  72.190  1.00  0.00    -0.379 C  
HETATM    2  O   UNL     1     -11.817   9.725  71.752  1.00  0.00    -0.383 OA 
ENDROOT
BRANCH   2   3
HETATM    3  C   UNL     1     -10.678   9.519  71.020  1.00  0.00    -0.340 A  
HETATM    4  C   UNL     1      -9.445   9.071  71.499  1.00  0.00    -0.246 A  
HETATM    5  O   UNL     1      -9.193   8.834  72.821  1.00  0.00    -0.305 OA 
HETATM    6  C   UNL     1      -8.358   8.918  70.642  1.00  0.00    -0.190 A  
HETATM    7  H   UNL     1      -8.354   8.530  73.147  1.00  0.00     0.000 HD 
HETATM    8  C   UNL     1      -8.475   9.260  69.295  1.00  0.00    -0.137 A  
HETATM    9  C   UNL     1      -9.690   9.739  68.793  1.00  0.00    -0.165 A  
HETATM   10  C   UNL     1     -10.785   9.863  69.667  1.00  0.00    -0.277 A  
BRANCH   9  11
HETATM   11  C   UNL     1      -9.805  10.143  67.341  1.00  0.00    -0.225 C  
BRANCH  11  12
HETATM   12  C   UNL     1     -10.013   8.966  66.429  1.00  0.00    -0.354 C  
HETATM   13  C   UNL     1     -10.403   7.750  66.836  1.00  0.00    -0.396 C  
ENDBRANCH  11  12
ENDBRANCH   9  11
ENDBRANCH   2   3
TORSDOF 3
ENDMDL
MODEL      146
REMARK 921   NORMALIZED FREE ENERGY PREDICTED BY IDOCK:   -2.80 KCAL/MOL
REMARK 922        TOTAL FREE ENERGY PREDICTED BY IDOCK:   -3.49 KCAL/MOL
REMARK 923 INTER-LIGAND FREE ENERGY PREDICTED BY IDOCK:   -3.45 KCAL/MOL
REMARK 924 INTRA-LIGAND FREE ENERGY PREDICTED BY IDOCK:   -0.04 KCAL/MOL
REMARK 927      BINDING AFFINITY PREDICTED BY RF-SCORE:    0.00 PKD
ROOT
HETATM    1  C   UNL     1     -12.996  14.335  72.379  1.00  0.00    -0.393 C  
HETATM    2  O   UNL     1     -13.226  14.356  70.974  1.00  0.00    -0.360 OA 
ENDROOT
BRANCH   2   3
HETATM    3  C   UNL     1     -12.462  13.521  70.203  1.00  0.00    -0.209 A  
HETATM    4  C   UNL     1     -12.342  12.136  70.335  1.00  0.00    -0.233 A  
HETATM    5  O   UNL     1     -12.946  11.420  71.330  1.00  0.00    -0.412 OA 
HETATM    6  C   UNL     1     -11.513  11.406  69.487  1.00  0.00    -0.381 A  
HETATM    7  H   UNL     1     -12.865  10.478  71.420  1.00  0.00     0.000 HD 
HETATM    8  C   UNL     1     -10.749  12.060  68.522  1.00  0.00    -0.261 A  
HETATM    9  C   UNL     1     -10.826  13.451  68.385  1.00  0.00    -0.284 A  
HETATM   10  C   UNL     1     -11.688  14.170  69.233  1.00  0.00    -0.368 A  
BRANCH   9  11
HETATM   11  C   UNL     1      -9.970  14.162  67.362  1.00  0.00    -0.240 C  
BRANCH  11  12
HETATM   12  C   UNL     1      -8.948  15.067  67.994  1.00  0.00    -0.173 C  
HETATM   13  C   UNL     1      -7.801  14.648  68.546  1.00  0.00    -0.133 C  
ENDBRANCH  11  12
ENDBRANCH   9  11
ENDBRANCH   2   3
TORSDOF 3
ENDMDL
MODEL      147
REMARK 921   NORMALIZED FREE ENERGY PREDICTED BY IDOCK:   -2.79 KCAL/MOL
REMARK 922        TOTAL FREE ENERGY PREDICTED BY IDOCK:   -3.47 KCAL/MOL
REMARK 923 INTER-LIGAND FREE ENERGY PREDICTED BY IDOCK:   -3.78 KCAL/MOL
REMARK 924 INTRA-LIGAND FREE ENERGY PREDICTED BY IDOCK:    0.32 KCAL/MOL
REMARK 927      BINDING AFFINITY PREDICTED BY RF-SCORE:    0.00 PKD
ROOT
HETATM    1  C   UNL     1     -11.188  15.065  65.846  1.00  0.00    -0.313 C  
HETATM    2  O   UNL     1     -10.721  16.367  65.509  1.00  0.00    -0.356 OA 
ENDROOT
BRANCH   2   3
HETATM    3  C   UNL     1      -9.548  16.779  66.082  1.00  0.00    -0.274 A  
HETATM    4  C   UNL     1      -8.463  15.975  66.439  1.00  0.00    -0.327 A  
HETATM    5  O   UNL     1      -8.462  14.614  66.315  1.00  0.00    -0.377 OA 
HETATM    6  C   UNL     1      -7.329  16.526  67.031  1.00  0.00    -0.245 A  
HETATM    7  H   UNL     1      -7.725  14.067  66.558  1.00  0.00     0.000 HD 
HETATM    8  C   UNL     1      -7.283  17.888  67.323  1.00  0.00    -0.202 A  
HETATM    9  C   UNL     1      -8.367  18.714  67.002  1.00  0.00    -0.274 A  
HETATM   10  C   UNL     1      -9.494  18.146  66.381  1.00  0.00    -0.284 A  
BRANCH   9  11
HETATM   11  C   UNL     1      -8.330  20.184  67.352  1.00  0.00    -0.390 C  
BRANCH  11  12
HETATM   12  C   UNL     1      -6.935  20.681  67.612  1.00  0.00    -0.376 C  
HETATM   13  C   UNL     1      -6.196  21.366  66.729  1.00  0.00    -0.367 C  
ENDBRANCH  11  12
ENDBRANCH   9  11
ENDBRANCH   2   3
TORSDOF 3
ENDMDL
MODEL      148
REMARK 921   NORMALIZED FREE ENERGY PREDICTED BY IDOCK:   -2.77 KCAL/MOL
REMARK 922        TOTAL FREE ENERGY PREDICTED BY IDOCK:   -3.45 KCAL/MOL
REMARK 923 INTER-LIGAND FREE ENERGY PREDICTED BY IDOCK:   -3.21 KCAL/MOL
REMARK 924 INTRA-LIGAND FREE ENERGY PREDICTED BY IDOCK:   -0.24 KCAL/MOL
REMARK 927      BINDING AFFINITY PREDICTED BY RF-SCORE:    0.00 PKD
ROOT
HETATM    1  C   UNL     1     -10.478   5.454  66.636  1.00  0.00    -0.298 C  
HETATM    2  O   UNL     1     -11.297   6.594  66.876  1.00  0.00    -0.333 OA 
ENDROOT
BRANCH   2   3
HETATM    3  C   UNL     1     -10.667   7.744  67.269  1.00  0.00    -0.255 A  
HETATM    4  C   UNL     1     -10.653   8.296  68.552  1.00  0.00    -0.100 A  
HETATM    5  O   UNL     1     -11.348   7.769  69.604  1.00  0.00    -0.452 OA 
HETATM    6  C   UNL     1      -9.980   9.487  68.811  1.00  0.00    -0.185 A  
HETATM    7  H   UNL     1     -11.339   8.144  70.477  1.00  0.00     0.000 HD 
HETATM    8  C   UNL     1      -9.350  10.175  67.775  1.00  0.00    -0.153 A  
HETATM    9  C   UNL     1      -9.371   9.661  66.473  1.00  0.00    -0.212 A  
HETATM   10  C   UNL     1     -10.033   8.444  66.234  1.00  0.00    -0.216 A  
BRANCH   9  11
HETATM   11  C   UNL     1      -8.718  10.426  65.345  1.00  0.00    -0.193 C  
BRANCH  11  12
HETATM   12  C   UNL     1      -9.576  10.479  64.111  1.00  0.00    -0.369 C  
HETATM   13  C   UNL     1     -10.449  11.457  63.835  1.00  0.00    -0.444 C  
ENDBRANCH  11  12
ENDBRANCH   9  11
ENDBRANCH   2   3
TORSDOF 3
ENDMDL
MODEL      149
REMARK 921   NORMALIZED FREE ENERGY PREDICTED BY IDOCK:   -2.77 KCAL/MOL
REMARK 922        TOTAL FREE ENERGY PREDICTED BY IDOCK:   -3.45 KCAL/MOL
REMARK 923 INTER-LIGAND FREE ENERGY PREDICTED BY IDOCK:   -3.25 KCAL/MOL
REMARK 924 INTRA-LIGAND FREE ENERGY PREDICTED BY IDOCK:   -0.20 KCAL/MOL
REMARK 927      BINDING AFFINITY PREDICTED BY RF-SCORE:    0.00 PKD
ROOT
HETATM    1  C   UNL     1      -9.801  16.282  66.307  1.00  0.00    -0.313 C  
HETATM    2  O   UNL     1      -9.617  15.885  67.662  1.00  0.00    -0.219 OA 
ENDROOT
BRANCH   2   3
HETATM    3  C   UNL     1     -10.299  14.777  68.087  1.00  0.00    -0.239 A  
HETATM    4  C   UNL     1     -11.540  14.751  68.726  1.00  0.00    -0.320 A  
HETATM    5  O   UNL     1     -12.228  15.877  69.079  1.00  0.00    -0.531 OA 
HETATM    6  C   UNL     1     -12.117  13.545  69.120  1.00  0.00    -0.331 A  
HETATM    7  H   UNL     1     -13.072  15.860  69.514  1.00  0.00     0.000 HD 
HETATM    8  C   UNL     1     -11.434  12.346  68.924  1.00  0.00    -0.355 A  
HETATM    9  C   UNL     1     -10.175  12.343  68.312  1.00  0.00    -0.230 A  
HETATM   10  C   UNL     1      -9.619  13.567  67.897  1.00  0.00    -0.218 A  
BRANCH   9  11
HETATM   11  C   UNL     1      -9.421  11.046  68.134  1.00  0.00    -0.172 C  
BRANCH  11  12
HETATM   12  C   UNL     1      -9.473  10.538  66.719  1.00  0.00    -0.190 C  
HETATM   13  C   UNL     1      -8.466   9.906  66.102  1.00  0.00    -0.130 C  
ENDBRANCH  11  12
ENDBRANCH   9  11
ENDBRANCH   2   3
TORSDOF 3
ENDMDL
MODEL      150
REMARK 921   NORMALIZED FREE ENERGY PREDICTED BY IDOCK:   -2.77 KCAL/MOL
REMARK 922        TOTAL FREE ENERGY PREDICTED BY IDOCK:   -3.44 KCAL/MOL
REMARK 923 INTER-LIGAND FREE ENERGY PREDICTED BY IDOCK:   -3.45 KCAL/MOL
REMARK 924 INTRA-LIGAND FREE ENERGY PREDICTED BY IDOCK:    0.00 KCAL/MOL
REMARK 927      BINDING AFFINITY PREDICTED BY RF-SCORE:    0.00 PKD
ROOT
HETATM    1  C   UNL     1      -7.854   6.450  69.904  1.00  0.00    -0.114 C  
HETATM    2  O   UNL     1      -8.915   7.208  69.330  1.00  0.00    -0.136 OA 
ENDROOT
BRANCH   2   3
HETATM    3  C   UNL     1     -10.078   7.298  70.047  1.00  0.00    -0.190 A  
HETATM    4  C   UNL     1     -10.853   6.237  70.522  1.00  0.00    -0.288 A  
HETATM    5  O   UNL     1     -10.570   4.925  70.265  1.00  0.00    -0.184 OA 
HETATM    6  C   UNL     1     -12.029   6.473  71.230  1.00  0.00    -0.364 A  
HETATM    7  H   UNL     1     -11.097   4.204  70.588  1.00  0.00     0.000 HD 
HETATM    8  C   UNL     1     -12.477   7.777  71.430  1.00  0.00    -0.342 A  
HETATM    9  C   UNL     1     -11.736   8.860  70.941  1.00  0.00    -0.312 A  
HETATM   10  C   UNL     1     -10.537   8.605  70.251  1.00  0.00    -0.240 A  
BRANCH   9  11
HETATM   11  C   UNL     1     -12.241  10.272  71.128  1.00  0.00    -0.500 C  
BRANCH  11  12
HETATM   12  C   UNL     1     -11.736  11.211  70.067  1.00  0.00    -0.438 C  
HETATM   13  C   UNL     1     -12.038  12.514  70.001  1.00  0.00    -0.337 C  
ENDBRANCH  11  12
ENDBRANCH   9  11
ENDBRANCH   2   3
TORSDOF 3
ENDMDL
MODEL      151
REMARK 921   NORMALIZED FREE ENERGY PREDICTED BY IDOCK:   -2.76 KCAL/MOL
REMARK 922        TOTAL FREE ENERGY PREDICTED BY IDOCK:   -3.44 KCAL/MOL
REMARK 923 INTER-LIGAND FREE ENERGY PREDICTED BY IDOCK:   -3.21 KCAL/MOL
REMARK 924 INTRA-LIGAND FREE ENERGY PREDICTED BY IDOCK:   -0.23 KCAL/MOL
REMARK 927      BINDING AFFINITY PREDICTED BY RF-SCORE:    0.00 PKD
ROOT
HETATM    1  C   UNL     1     -10.791  11.471  64.424  1.00  0.00    -0.342 C  
HETATM    2  O   UNL     1     -10.411  10.322  65.174  1.00  0.00    -0.286 OA 
ENDROOT
BRANCH   2   3
HETATM    3  C   UNL     1      -9.855  10.535  66.406  1.00  0.00    -0.210 A  
HETATM    4  C   UNL     1      -8.531  10.887  66.679  1.00  0.00    -0.151 A  
HETATM    5  O   UNL     1      -7.571  11.005  65.715  1.00  0.00    -0.330 OA 
HETATM    6  C   UNL     1      -8.093  11.060  67.990  1.00  0.00    -0.121 A  
HETATM    7  H   UNL     1      -6.670  11.244  65.900  1.00  0.00     0.000 HD 
HETATM    8  C   UNL     1      -8.963  10.832  69.055  1.00  0.00    -0.141 A  
HETATM    9  C   UNL     1     -10.288  10.450  68.813  1.00  0.00    -0.213 A  
HETATM   10  C   UNL     1     -10.721  10.306  67.483  1.00  0.00    -0.348 A  
BRANCH   9  11
HETATM   11  C   UNL     1     -11.219  10.170  69.970  1.00  0.00    -0.361 C  
BRANCH  11  12
HETATM   12  C   UNL     1     -10.918   8.863  70.650  1.00  0.00    -0.287 C  
HETATM   13  C   UNL     1     -10.413   8.749  71.886  1.00  0.00    -0.423 C  
ENDBRANCH  11  12
ENDBRANCH   9  11
ENDBRANCH   2   3
TORSDOF 3
ENDMDL
MODEL      152
REMARK 921   NORMALIZED FREE ENERGY PREDICTED BY IDOCK:   -2.76 KCAL/MOL
REMARK 922        TOTAL FREE ENERGY PREDICTED BY IDOCK:   -3.44 KCAL/MOL
REMARK 923 INTER-LIGAND FREE ENERGY PREDICTED BY IDOCK:   -3.19 KCAL/MOL
REMARK 924 INTRA-LIGAND FREE ENERGY PREDICTED BY IDOCK:   -0.25 KCAL/MOL
REMARK 927      BINDING AFFINITY PREDICTED BY RF-SCORE:    0.00 PKD
ROOT
HETATM    1  C   UNL     1     -10.779   9.017  71.638  1.00  0.00    -0.371 C  
HETATM    2  O   UNL     1      -9.786   8.331  70.882  1.00  0.00    -0.166 OA 
ENDROOT
BRANCH   2   3
HETATM    3  C   UNL     1     -10.043   8.125  69.553  1.00  0.00    -0.193 A  
HETATM    4  C   UNL     1     -10.559   6.965  68.970  1.00  0.00    -0.217 A  
HETATM    5  O   UNL     1     -10.822   5.823  69.673  1.00  0.00    -0.326 OA 
HETATM    6  C   UNL     1     -10.759   6.884  67.594  1.00  0.00    -0.344 A  
HETATM    7  H   UNL     1     -11.172   5.034  69.277  1.00  0.00     0.000 HD 
HETATM    8  C   UNL     1     -10.398   7.949  66.771  1.00  0.00    -0.357 A  
HETATM    9  C   UNL     1      -9.851   9.114  67.324  1.00  0.00    -0.244 A  
HETATM   10  C   UNL     1      -9.680   9.188  68.718  1.00  0.00    -0.167 A  
BRANCH   9  11
HETATM   11  C   UNL     1      -9.427  10.253  66.426  1.00  0.00    -0.218 C  
BRANCH  11  12
HETATM   12  C   UNL     1     -10.215  11.509  66.676  1.00  0.00    -0.254 C  
HETATM   13  C   UNL     1     -11.348  11.834  66.038  1.00  0.00    -0.335 C  
ENDBRANCH  11  12
ENDBRANCH   9  11
ENDBRANCH   2   3
TORSDOF 3
ENDMDL
MODEL      153
REMARK 921   NORMALIZED FREE ENERGY PREDICTED BY IDOCK:   -2.75 KCAL/MOL
REMARK 922        TOTAL FREE ENERGY PREDICTED BY IDOCK:   -3.42 KCAL/MOL
REMARK 923 INTER-LIGAND FREE ENERGY PREDICTED BY IDOCK:   -3.37 KCAL/MOL
REMARK 924 INTRA-LIGAND FREE ENERGY PREDICTED BY IDOCK:   -0.05 KCAL/MOL
REMARK 927      BINDING AFFINITY PREDICTED BY RF-SCORE:    0.00 PKD
ROOT
HETATM    1  C   UNL     1     -10.859   4.116  73.631  1.00  0.00    -0.264 C  
HETATM    2  O   UNL     1     -11.567   5.019  72.788  1.00  0.00    -0.220 OA 
ENDROOT
BRANCH   2   3
HETATM    3  C   UNL     1     -10.901   6.141  72.375  1.00  0.00    -0.243 A  
HETATM    4  C   UNL     1     -10.335   7.126  73.187  1.00  0.00    -0.295 A  
HETATM    5  O   UNL     1     -10.435   7.126  74.550  1.00  0.00    -0.450 OA 
HETATM    6  C   UNL     1      -9.694   8.231  72.631  1.00  0.00    -0.357 A  
HETATM    7  H   UNL     1     -10.050   7.795  75.103  1.00  0.00     0.000 HD 
HETATM    8  C   UNL     1      -9.653   8.393  71.247  1.00  0.00    -0.239 A  
HETATM    9  C   UNL     1     -10.238   7.437  70.408  1.00  0.00    -0.201 A  
HETATM   10  C   UNL     1     -10.858   6.315  70.985  1.00  0.00    -0.326 A  
BRANCH   9  11
HETATM   11  C   UNL     1     -10.224   7.633  68.909  1.00  0.00    -0.217 C  
BRANCH  11  12
HETATM   12  C   UNL     1     -10.318   9.082  68.516  1.00  0.00    -0.233 C  
HETATM   13  C   UNL     1     -10.481   9.519  67.260  1.00  0.00    -0.328 C  
ENDBRANCH  11  12
ENDBRANCH   9  11
ENDBRANCH   2   3
TORSDOF 3
ENDMDL
MODEL      154
REMARK 921   NORMALIZED FREE ENERGY PREDICTED BY IDOCK:   -2.73 KCAL/MOL
REMARK 922        TOTAL FREE ENERGY PREDICTED BY IDOCK:   -3.40 KCAL/MOL
REMARK 923 INTER-LIGAND FREE ENERGY PREDICTED BY IDOCK:   -3.19 KCAL/MOL
REMARK 924 INTRA-LIGAND FREE ENERGY PREDICTED BY IDOCK:   -0.21 KCAL/MOL
REMARK 927      BINDING AFFINITY PREDICTED BY RF-SCORE:    0.00 PKD
ROOT
HETATM    1  C   UNL     1     -11.292  12.512  63.534  1.00  0.00    -0.486 C  
HETATM    2  O   UNL     1     -11.112  11.148  63.904  1.00  0.00    -0.335 OA 
ENDROOT
BRANCH   2   3
HETATM    3  C   UNL     1     -10.121  10.870  64.806  1.00  0.00    -0.321 A  
HETATM    4  C   UNL     1      -8.899  10.249  64.543  1.00  0.00    -0.203 A  
HETATM    5  O   UNL     1      -8.551   9.763  63.314  1.00  0.00    -0.166 OA 
HETATM    6  C   UNL     1      -7.981  10.013  65.565  1.00  0.00    -0.139 A  
HETATM    7  H   UNL     1      -7.720   9.340  63.135  1.00  0.00     0.000 HD 
HETATM    8  C   UNL     1      -8.296  10.352  66.880  1.00  0.00    -0.124 A  
HETATM    9  C   UNL     1      -9.526  10.950  67.179  1.00  0.00    -0.178 A  
HETATM   10  C   UNL     1     -10.430  11.204  66.131  1.00  0.00    -0.307 A  
BRANCH   9  11
HETATM   11  C   UNL     1      -9.880  11.283  68.610  1.00  0.00    -0.208 C  
BRANCH  11  12
HETATM   12  C   UNL     1     -11.353  11.528  68.798  1.00  0.00    -0.327 C  
HETATM   13  C   UNL     1     -12.132  10.849  69.651  1.00  0.00    -0.400 C  
ENDBRANCH  11  12
ENDBRANCH   9  11
ENDBRANCH   2   3
TORSDOF 3
ENDMDL
MODEL      155
REMARK 921   NORMALIZED FREE ENERGY PREDICTED BY IDOCK:   -2.73 KCAL/MOL
REMARK 922        TOTAL FREE ENERGY PREDICTED BY IDOCK:   -3.40 KCAL/MOL
REMARK 923 INTER-LIGAND FREE ENERGY PREDICTED BY IDOCK:   -3.16 KCAL/MOL
REMARK 924 INTRA-LIGAND FREE ENERGY PREDICTED BY IDOCK:   -0.23 KCAL/MOL
REMARK 927      BINDING AFFINITY PREDICTED BY RF-SCORE:    0.00 PKD
ROOT
HETATM    1  C   UNL     1     -10.963  16.461  65.061  1.00  0.00    -0.252 C  
HETATM    2  O   UNL     1      -9.652  16.631  65.591  1.00  0.00    -0.519 OA 
ENDROOT
BRANCH   2   3
HETATM    3  C   UNL     1      -9.245  15.741  66.548  1.00  0.00    -0.283 A  
HETATM    4  C   UNL     1      -8.612  16.041  67.756  1.00  0.00    -0.163 A  
HETATM    5  O   UNL     1      -8.248  17.307  68.120  1.00  0.00    -0.216 OA 
HETATM    6  C   UNL     1      -8.236  15.030  68.638  1.00  0.00    -0.156 A  
HETATM    7  H   UNL     1      -7.817  17.512  68.941  1.00  0.00     0.000 HD 
HETATM    8  C   UNL     1      -8.443  13.694  68.300  1.00  0.00    -0.170 A  
HETATM    9  C   UNL     1      -9.049  13.361  67.082  1.00  0.00    -0.235 A  
HETATM   10  C   UNL     1      -9.446  14.395  66.216  1.00  0.00    -0.297 A  
BRANCH   9  11
HETATM   11  C   UNL     1      -9.240  11.911  66.702  1.00  0.00    -0.206 C  
BRANCH  11  12
HETATM   12  C   UNL     1     -10.690  11.522  66.618  1.00  0.00    -0.311 C  
HETATM   13  C   UNL     1     -11.406  11.035  67.640  1.00  0.00    -0.355 C  
ENDBRANCH  11  12
ENDBRANCH   9  11
ENDBRANCH   2   3
TORSDOF 3
ENDMDL
MODEL      156
REMARK 921   NORMALIZED FREE ENERGY PREDICTED BY IDOCK:   -2.72 KCAL/MOL
REMARK 922        TOTAL FREE ENERGY PREDICTED BY IDOCK:   -3.38 KCAL/MOL
REMARK 923 INTER-LIGAND FREE ENERGY PREDICTED BY IDOCK:   -3.33 KCAL/MOL
REMARK 924 INTRA-LIGAND FREE ENERGY PREDICTED BY IDOCK:   -0.05 KCAL/MOL
REMARK 927      BINDING AFFINITY PREDICTED BY RF-SCORE:    0.00 PKD
ROOT
HETATM    1  C   UNL     1     -10.711  15.711  67.107  1.00  0.00    -0.314 C  
HETATM    2  O   UNL     1      -9.766  14.728  66.699  1.00  0.00    -0.245 OA 
ENDROOT
BRANCH   2   3
HETATM    3  C   UNL     1     -10.078  13.418  66.951  1.00  0.00    -0.255 A  
HETATM    4  C   UNL     1     -10.434  12.864  68.182  1.00  0.00    -0.237 A  
HETATM    5  O   UNL     1     -10.455  13.574  69.349  1.00  0.00    -0.437 OA 
HETATM    6  C   UNL     1     -10.714  11.504  68.300  1.00  0.00    -0.247 A  
HETATM    7  H   UNL     1     -10.697  13.198  70.187  1.00  0.00     0.000 HD 
HETATM    8  C   UNL     1     -10.591  10.666  67.193  1.00  0.00    -0.312 A  
HETATM    9  C   UNL     1     -10.208  11.188  65.952  1.00  0.00    -0.303 A  
HETATM   10  C   UNL     1      -9.955  12.568  65.845  1.00  0.00    -0.269 A  
BRANCH   9  11
HETATM   11  C   UNL     1     -10.041  10.272  64.762  1.00  0.00    -0.336 C  
BRANCH  11  12
HETATM   12  C   UNL     1      -8.809   9.415  64.862  1.00  0.00    -0.240 C  
HETATM   13  C   UNL     1      -7.569   9.888  65.048  1.00  0.00    -0.134 C  
ENDBRANCH  11  12
ENDBRANCH   9  11
ENDBRANCH   2   3
TORSDOF 3
ENDMDL
MODEL      157
REMARK 921   NORMALIZED FREE ENERGY PREDICTED BY IDOCK:   -2.71 KCAL/MOL
REMARK 922        TOTAL FREE ENERGY PREDICTED BY IDOCK:   -3.37 KCAL/MOL
REMARK 923 INTER-LIGAND FREE ENERGY PREDICTED BY IDOCK:   -3.09 KCAL/MOL
REMARK 924 INTRA-LIGAND FREE ENERGY PREDICTED BY IDOCK:   -0.28 KCAL/MOL
REMARK 927      BINDING AFFINITY PREDICTED BY RF-SCORE:    0.00 PKD
ROOT
HETATM    1  C   UNL     1      -9.347   6.949  68.493  1.00  0.00    -0.134 C  
HETATM    2  O   UNL     1     -10.688   6.622  68.844  1.00  0.00    -0.222 OA 
ENDROOT
BRANCH   2   3
HETATM    3  C   UNL     1     -10.914   6.206  70.129  1.00  0.00    -0.358 A  
HETATM    4  C   UNL     1     -11.927   6.643  70.985  1.00  0.00    -0.359 A  
HETATM    5  O   UNL     1     -12.816   7.627  70.657  1.00  0.00    -0.529 OA 
HETATM    6  C   UNL     1     -12.033   6.143  72.281  1.00  0.00    -0.285 A  
HETATM    7  H   UNL     1     -13.505   7.925  71.240  1.00  0.00     0.000 HD 
HETATM    8  C   UNL     1     -11.093   5.231  72.759  1.00  0.00    -0.346 A  
HETATM    9  C   UNL     1     -10.049   4.797  71.933  1.00  0.00    -0.264 A  
HETATM   10  C   UNL     1      -9.972   5.292  70.618  1.00  0.00    -0.287 A  
BRANCH   9  11
HETATM   11  C   UNL     1      -9.011   3.836  72.464  1.00  0.00    -0.127 C  
BRANCH  11  12
HETATM   12  C   UNL     1      -8.359   4.330  73.727  1.00  0.00    -0.093 C  
HETATM   13  C   UNL     1      -7.493   5.350  73.784  1.00  0.00    -0.091 C  
ENDBRANCH  11  12
ENDBRANCH   9  11
ENDBRANCH   2   3
TORSDOF 3
ENDMDL
MODEL      158
REMARK 921   NORMALIZED FREE ENERGY PREDICTED BY IDOCK:   -2.70 KCAL/MOL
REMARK 922        TOTAL FREE ENERGY PREDICTED BY IDOCK:   -3.37 KCAL/MOL
REMARK 923 INTER-LIGAND FREE ENERGY PREDICTED BY IDOCK:   -3.16 KCAL/MOL
REMARK 924 INTRA-LIGAND FREE ENERGY PREDICTED BY IDOCK:   -0.21 KCAL/MOL
REMARK 927      BINDING AFFINITY PREDICTED BY RF-SCORE:    0.00 PKD
ROOT
HETATM    1  C   UNL     1     -10.386   8.086  66.897  1.00  0.00    -0.338 C  
HETATM    2  O   UNL     1     -11.196   6.929  67.076  1.00  0.00    -0.369 OA 
ENDROOT
BRANCH   2   3
HETATM    3  C   UNL     1     -10.554   5.754  67.364  1.00  0.00    -0.265 A  
HETATM    4  C   UNL     1     -10.152   4.775  66.453  1.00  0.00    -0.262 A  
HETATM    5  O   UNL     1     -10.417   4.839  65.114  1.00  0.00    -0.440 OA 
HETATM    6  C   UNL     1      -9.516   3.613  66.886  1.00  0.00    -0.213 A  
HETATM    7  H   UNL     1     -10.144   4.173  64.495  1.00  0.00     0.000 HD 
HETATM    8  C   UNL     1      -9.318   3.390  68.248  1.00  0.00    -0.239 A  
HETATM    9  C   UNL     1      -9.736   4.341  69.186  1.00  0.00    -0.226 A  
HETATM   10  C   UNL     1     -10.353   5.520  68.730  1.00  0.00    -0.271 A  
BRANCH   9  11
HETATM   11  C   UNL     1      -9.553   4.081  70.664  1.00  0.00    -0.260 C  
BRANCH  11  12
HETATM   12  C   UNL     1      -8.755   5.159  71.345  1.00  0.00    -0.137 C  
HETATM   13  C   UNL     1      -9.096   5.739  72.503  1.00  0.00    -0.136 C  
ENDBRANCH  11  12
ENDBRANCH   9  11
ENDBRANCH   2   3
TORSDOF 3
ENDMDL
MODEL      159
REMARK 921   NORMALIZED FREE ENERGY PREDICTED BY IDOCK:   -2.69 KCAL/MOL
REMARK 922        TOTAL FREE ENERGY PREDICTED BY IDOCK:   -3.36 KCAL/MOL
REMARK 923 INTER-LIGAND FREE ENERGY PREDICTED BY IDOCK:   -3.10 KCAL/MOL
REMARK 924 INTRA-LIGAND FREE ENERGY PREDICTED BY IDOCK:   -0.26 KCAL/MOL
REMARK 927      BINDING AFFINITY PREDICTED BY RF-SCORE:    0.00 PKD
ROOT
HETATM    1  C   UNL     1     -10.486   8.905  71.824  1.00  0.00    -0.360 C  
HETATM    2  O   UNL     1      -9.442   8.990  70.859  1.00  0.00    -0.221 OA 
ENDROOT
BRANCH   2   3
HETATM    3  C   UNL     1      -9.800   9.318  69.579  1.00  0.00    -0.181 A  
HETATM    4  C   UNL     1      -9.388   8.682  68.405  1.00  0.00    -0.138 A  
HETATM    5  O   UNL     1      -8.492   7.651  68.384  1.00  0.00    -0.124 OA 
HETATM    6  C   UNL     1      -9.820   9.131  67.159  1.00  0.00    -0.253 A  
HETATM    7  H   UNL     1      -8.212   7.218  67.586  1.00  0.00     0.000 HD 
HETATM    8  C   UNL     1     -10.632  10.260  67.065  1.00  0.00    -0.302 A  
HETATM    9  C   UNL     1     -11.037  10.936  68.223  1.00  0.00    -0.324 A  
HETATM   10  C   UNL     1     -10.614  10.453  69.474  1.00  0.00    -0.274 A  
BRANCH   9  11
HETATM   11  C   UNL     1     -11.888  12.180  68.116  1.00  0.00    -0.362 C  
BRANCH  11  12
HETATM   12  C   UNL     1     -11.284  13.217  67.210  1.00  0.00    -0.319 C  
HETATM   13  C   UNL     1     -10.110  13.824  67.430  1.00  0.00    -0.244 C  
ENDBRANCH  11  12
ENDBRANCH   9  11
ENDBRANCH   2   3
TORSDOF 3
ENDMDL
MODEL      160
REMARK 921   NORMALIZED FREE ENERGY PREDICTED BY IDOCK:   -2.68 KCAL/MOL
REMARK 922        TOTAL FREE ENERGY PREDICTED BY IDOCK:   -3.34 KCAL/MOL
REMARK 923 INTER-LIGAND FREE ENERGY PREDICTED BY IDOCK:   -3.13 KCAL/MOL
REMARK 924 INTRA-LIGAND FREE ENERGY PREDICTED BY IDOCK:   -0.21 KCAL/MOL
REMARK 927      BINDING AFFINITY PREDICTED BY RF-SCORE:    0.00 PKD
ROOT
HETATM    1  C   UNL     1      -7.701   9.623  68.804  1.00  0.00    -0.080 C  
HETATM    2  O   UNL     1      -8.878   9.774  68.018  1.00  0.00    -0.119 OA 
ENDROOT
BRANCH   2   3
HETATM    3  C   UNL     1      -9.871  10.570  68.524  1.00  0.00    -0.168 A  
HETATM    4  C   UNL     1     -10.971  10.159  69.279  1.00  0.00    -0.240 A  
HETATM    5  O   UNL     1     -11.240   8.851  69.566  1.00  0.00    -0.434 OA 
HETATM    6  C   UNL     1     -11.919  11.079  69.721  1.00  0.00    -0.428 A  
HETATM    7  H   UNL     1     -11.988   8.571  70.079  1.00  0.00     0.000 HD 
HETATM    8  C   UNL     1     -11.807  12.423  69.369  1.00  0.00    -0.365 A  
HETATM    9  C   UNL     1     -10.730  12.860  68.588  1.00  0.00    -0.273 A  
HETATM   10  C   UNL     1      -9.768  11.922  68.172  1.00  0.00    -0.194 A  
BRANCH   9  11
HETATM   11  C   UNL     1     -10.630  14.311  68.177  1.00  0.00    -0.246 C  
BRANCH  11  12
HETATM   12  C   UNL     1     -10.496  15.236  69.356  1.00  0.00    -0.253 C  
HETATM   13  C   UNL     1     -10.760  16.550  69.324  1.00  0.00    -0.331 C  
ENDBRANCH  11  12
ENDBRANCH   9  11
ENDBRANCH   2   3
TORSDOF 3
ENDMDL
MODEL      161
REMARK 921   NORMALIZED FREE ENERGY PREDICTED BY IDOCK:   -2.64 KCAL/MOL
REMARK 922        TOTAL FREE ENERGY PREDICTED BY IDOCK:   -3.30 KCAL/MOL
REMARK 923 INTER-LIGAND FREE ENERGY PREDICTED BY IDOCK:   -3.29 KCAL/MOL
REMARK 924 INTRA-LIGAND FREE ENERGY PREDICTED BY IDOCK:   -0.00 KCAL/MOL
REMARK 927      BINDING AFFINITY PREDICTED BY RF-SCORE:    0.00 PKD
ROOT
HETATM    1  C   UNL     1      -9.070   8.726  68.221  1.00  0.00    -0.141 C  
HETATM    2  O   UNL     1      -9.986   8.641  67.134  1.00  0.00    -0.188 OA 
ENDROOT
BRANCH   2   3
HETATM    3  C   UNL     1      -9.532   9.030  65.902  1.00  0.00    -0.249 A  
HETATM    4  C   UNL     1      -8.546   8.404  65.136  1.00  0.00    -0.132 A  
HETATM    5  O   UNL     1      -7.839   7.316  65.566  1.00  0.00    -0.101 OA 
HETATM    6  C   UNL     1      -8.168   8.918  63.898  1.00  0.00    -0.171 A  
HETATM    7  H   UNL     1      -7.168   6.890  65.045  1.00  0.00     0.000 HD 
HETATM    8  C   UNL     1      -8.737  10.101  63.428  1.00  0.00    -0.216 A  
HETATM    9  C   UNL     1      -9.706  10.767  64.187  1.00  0.00    -0.364 A  
HETATM   10  C   UNL     1     -10.095  10.220  65.424  1.00  0.00    -0.354 A  
BRANCH   9  11
HETATM   11  C   UNL     1     -10.295  12.068  63.693  1.00  0.00    -0.482 C  
BRANCH  11  12
HETATM   12  C   UNL     1     -11.103  12.774  64.747  1.00  0.00    -0.333 C  
HETATM   13  C   UNL     1     -12.438  12.725  64.840  1.00  0.00    -0.563 C  
ENDBRANCH  11  12
ENDBRANCH   9  11
ENDBRANCH   2   3
TORSDOF 3
ENDMDL
MODEL      162
REMARK 921   NORMALIZED FREE ENERGY PREDICTED BY IDOCK:   -2.64 KCAL/MOL
REMARK 922        TOTAL FREE ENERGY PREDICTED BY IDOCK:   -3.29 KCAL/MOL
REMARK 923 INTER-LIGAND FREE ENERGY PREDICTED BY IDOCK:   -3.07 KCAL/MOL
REMARK 924 INTRA-LIGAND FREE ENERGY PREDICTED BY IDOCK:   -0.22 KCAL/MOL
REMARK 927      BINDING AFFINITY PREDICTED BY RF-SCORE:    0.00 PKD
ROOT
HETATM    1  C   UNL     1      -9.516  10.437  68.200  1.00  0.00    -0.145 C  
HETATM    2  O   UNL     1      -8.740   9.256  68.380  1.00  0.00    -0.127 OA 
ENDROOT
BRANCH   2   3
HETATM    3  C   UNL     1      -9.404   8.126  68.775  1.00  0.00    -0.143 A  
HETATM    4  C   UNL     1      -9.238   6.836  68.267  1.00  0.00    -0.122 A  
HETATM    5  O   UNL     1      -8.403   6.539  67.227  1.00  0.00    -0.112 OA 
HETATM    6  C   UNL     1      -9.994   5.772  68.754  1.00  0.00    -0.207 A  
HETATM    7  H   UNL     1      -8.290   5.662  66.881  1.00  0.00     0.000 HD 
HETATM    8  C   UNL     1     -10.970   5.994  69.725  1.00  0.00    -0.471 A  
HETATM    9  C   UNL     1     -11.180   7.282  70.232  1.00  0.00    -0.287 A  
HETATM   10  C   UNL     1     -10.389   8.340  69.748  1.00  0.00    -0.216 A  
BRANCH   9  11
HETATM   11  C   UNL     1     -12.262   7.526  71.259  1.00  0.00    -0.357 C  
BRANCH  11  12
HETATM   12  C   UNL     1     -11.710   7.993  72.578  1.00  0.00    -0.446 C  
HETATM   13  C   UNL     1     -10.662   7.439  73.202  1.00  0.00    -0.436 C  
ENDBRANCH  11  12
ENDBRANCH   9  11
ENDBRANCH   2   3
TORSDOF 3
ENDMDL
MODEL      163
REMARK 921   NORMALIZED FREE ENERGY PREDICTED BY IDOCK:   -2.64 KCAL/MOL
REMARK 922        TOTAL FREE ENERGY PREDICTED BY IDOCK:   -3.29 KCAL/MOL
REMARK 923 INTER-LIGAND FREE ENERGY PREDICTED BY IDOCK:   -3.10 KCAL/MOL
REMARK 924 INTRA-LIGAND FREE ENERGY PREDICTED BY IDOCK:   -0.19 KCAL/MOL
REMARK 927      BINDING AFFINITY PREDICTED BY RF-SCORE:    0.00 PKD
ROOT
HETATM    1  C   UNL     1     -12.101  14.552  64.413  1.00  0.00    -0.472 C  
HETATM    2  O   UNL     1     -11.277  15.316  65.288  1.00  0.00    -0.352 OA 
ENDROOT
BRANCH   2   3
HETATM    3  C   UNL     1     -10.740  14.667  66.367  1.00  0.00    -0.309 A  
HETATM    4  C   UNL     1     -11.424  14.211  67.496  1.00  0.00    -0.340 A  
HETATM    5  O   UNL     1     -12.759  14.420  67.702  1.00  0.00    -0.335 OA 
HETATM    6  C   UNL     1     -10.748  13.575  68.534  1.00  0.00    -0.270 A  
HETATM    7  H   UNL     1     -13.225  14.110  68.469  1.00  0.00     0.000 HD 
HETATM    8  C   UNL     1      -9.362  13.430  68.482  1.00  0.00    -0.097 A  
HETATM    9  C   UNL     1      -8.645  13.903  67.376  1.00  0.00    -0.206 A  
HETATM   10  C   UNL     1      -9.348  14.520  66.325  1.00  0.00    -0.277 A  
BRANCH   9  11
HETATM   11  C   UNL     1      -7.140  13.777  67.337  1.00  0.00    -0.093 C  
BRANCH  11  12
HETATM   12  C   UNL     1      -6.448  14.907  68.049  1.00  0.00    -0.161 C  
HETATM   13  C   UNL     1      -6.069  16.052  67.465  1.00  0.00    -0.189 C  
ENDBRANCH  11  12
ENDBRANCH   9  11
ENDBRANCH   2   3
TORSDOF 3
ENDMDL
MODEL      164
REMARK 921   NORMALIZED FREE ENERGY PREDICTED BY IDOCK:   -2.63 KCAL/MOL
REMARK 922        TOTAL FREE ENERGY PREDICTED BY IDOCK:   -3.29 KCAL/MOL
REMARK 923 INTER-LIGAND FREE ENERGY PREDICTED BY IDOCK:   -3.52 KCAL/MOL
REMARK 924 INTRA-LIGAND FREE ENERGY PREDICTED BY IDOCK:    0.23 KCAL/MOL
REMARK 927      BINDING AFFINITY PREDICTED BY RF-SCORE:    0.00 PKD
ROOT
HETATM    1  C   UNL     1     -10.309  10.302  68.462  1.00  0.00    -0.178 C  
HETATM    2  O   UNL     1      -9.742  10.127  69.756  1.00  0.00    -0.230 OA 
ENDROOT
BRANCH   2   3
HETATM    3  C   UNL     1     -10.507   9.485  70.693  1.00  0.00    -0.308 A  
HETATM    4  C   UNL     1     -11.886   9.613  70.878  1.00  0.00    -0.323 A  
HETATM    5  O   UNL     1     -12.664  10.477  70.160  1.00  0.00    -0.488 OA 
HETATM    6  C   UNL     1     -12.540   8.908  71.885  1.00  0.00    -0.439 A  
HETATM    7  H   UNL     1     -13.601  10.564  70.286  1.00  0.00     0.000 HD 
HETATM    8  C   UNL     1     -11.815   8.100  72.759  1.00  0.00    -0.296 A  
HETATM    9  C   UNL     1     -10.428   7.975  72.616  1.00  0.00    -0.408 A  
HETATM   10  C   UNL     1      -9.786   8.673  71.577  1.00  0.00    -0.342 A  
BRANCH   9  11
HETATM   11  C   UNL     1      -9.638   7.127  73.587  1.00  0.00    -0.287 C  
BRANCH  11  12
HETATM   12  C   UNL     1      -8.704   6.174  72.893  1.00  0.00    -0.122 C  
HETATM   13  C   UNL     1      -7.368   6.261  72.927  1.00  0.00    -0.095 C  
ENDBRANCH  11  12
ENDBRANCH   9  11
ENDBRANCH   2   3
TORSDOF 3
ENDMDL
MODEL      165
REMARK 921   NORMALIZED FREE ENERGY PREDICTED BY IDOCK:   -2.61 KCAL/MOL
REMARK 922        TOTAL FREE ENERGY PREDICTED BY IDOCK:   -3.26 KCAL/MOL
REMARK 923 INTER-LIGAND FREE ENERGY PREDICTED BY IDOCK:   -3.16 KCAL/MOL
REMARK 924 INTRA-LIGAND FREE ENERGY PREDICTED BY IDOCK:   -0.10 KCAL/MOL
REMARK 927      BINDING AFFINITY PREDICTED BY RF-SCORE:    0.00 PKD
ROOT
HETATM    1  C   UNL     1     -12.052  15.206  70.339  1.00  0.00    -0.328 C  
HETATM    2  O   UNL     1     -12.010  16.088  69.222  1.00  0.00    -0.324 OA 
ENDROOT
BRANCH   2   3
HETATM    3  C   UNL     1     -11.036  15.866  68.286  1.00  0.00    -0.329 A  
HETATM    4  C   UNL     1     -10.495  16.801  67.401  1.00  0.00    -0.310 A  
HETATM    5  O   UNL     1     -10.933  18.092  67.312  1.00  0.00    -0.294 OA 
HETATM    6  C   UNL     1      -9.513  16.434  66.484  1.00  0.00    -0.296 A  
HETATM    7  H   UNL     1     -10.566  18.728  66.710  1.00  0.00     0.000 HD 
HETATM    8  C   UNL     1      -9.091  15.107  66.404  1.00  0.00    -0.331 A  
HETATM    9  C   UNL     1      -9.636  14.141  67.259  1.00  0.00    -0.234 A  
HETATM   10  C   UNL     1     -10.608  14.535  68.196  1.00  0.00    -0.238 A  
BRANCH   9  11
HETATM   11  C   UNL     1      -9.203  12.698  67.146  1.00  0.00    -0.214 C  
BRANCH  11  12
HETATM   12  C   UNL     1      -8.018  12.381  68.016  1.00  0.00    -0.155 C  
HETATM   13  C   UNL     1      -7.270  13.299  68.644  1.00  0.00    -0.106 C  
ENDBRANCH  11  12
ENDBRANCH   9  11
ENDBRANCH   2   3
TORSDOF 3
ENDMDL
MODEL      166
REMARK 921   NORMALIZED FREE ENERGY PREDICTED BY IDOCK:   -2.60 KCAL/MOL
REMARK 922        TOTAL FREE ENERGY PREDICTED BY IDOCK:   -3.25 KCAL/MOL
REMARK 923 INTER-LIGAND FREE ENERGY PREDICTED BY IDOCK:   -3.01 KCAL/MOL
REMARK 924 INTRA-LIGAND FREE ENERGY PREDICTED BY IDOCK:   -0.23 KCAL/MOL
REMARK 927      BINDING AFFINITY PREDICTED BY RF-SCORE:    0.00 PKD
ROOT
HETATM    1  C   UNL     1     -11.401   6.563  69.592  1.00  0.00    -0.380 C  
HETATM    2  O   UNL     1     -10.689   7.795  69.564  1.00  0.00    -0.236 OA 
ENDROOT
BRANCH   2   3
HETATM    3  C   UNL     1     -10.273   8.249  68.341  1.00  0.00    -0.209 A  
HETATM    4  C   UNL     1     -10.659   9.434  67.711  1.00  0.00    -0.258 A  
HETATM    5  O   UNL     1     -11.588  10.293  68.229  1.00  0.00    -0.611 OA 
HETATM    6  C   UNL     1     -10.166   9.768  66.452  1.00  0.00    -0.288 A  
HETATM    7  H   UNL     1     -11.851  11.098  67.801  1.00  0.00     0.000 HD 
HETATM    8  C   UNL     1      -9.314   8.894  65.779  1.00  0.00    -0.286 A  
HETATM    9  C   UNL     1      -8.932   7.685  66.373  1.00  0.00    -0.198 A  
HETATM   10  C   UNL     1      -9.419   7.375  67.656  1.00  0.00    -0.156 A  
BRANCH   9  11
HETATM   11  C   UNL     1      -8.038   6.722  65.627  1.00  0.00    -0.122 C  
BRANCH  11  12
HETATM   12  C   UNL     1      -8.448   5.288  65.818  1.00  0.00    -0.128 C  
HETATM   13  C   UNL     1      -9.320   4.637  65.036  1.00  0.00    -0.142 C  
ENDBRANCH  11  12
ENDBRANCH   9  11
ENDBRANCH   2   3
TORSDOF 3
ENDMDL
MODEL      167
REMARK 921   NORMALIZED FREE ENERGY PREDICTED BY IDOCK:   -2.60 KCAL/MOL
REMARK 922        TOTAL FREE ENERGY PREDICTED BY IDOCK:   -3.24 KCAL/MOL
REMARK 923 INTER-LIGAND FREE ENERGY PREDICTED BY IDOCK:   -3.00 KCAL/MOL
REMARK 924 INTRA-LIGAND FREE ENERGY PREDICTED BY IDOCK:   -0.24 KCAL/MOL
REMARK 927      BINDING AFFINITY PREDICTED BY RF-SCORE:    0.00 PKD
ROOT
HETATM    1  C   UNL     1      -9.592  16.820  66.275  1.00  0.00    -0.289 C  
HETATM    2  O   UNL     1      -8.735  16.284  67.279  1.00  0.00    -0.175 OA 
ENDROOT
BRANCH   2   3
HETATM    3  C   UNL     1      -8.615  14.921  67.336  1.00  0.00    -0.193 A  
HETATM    4  C   UNL     1      -7.428  14.186  67.383  1.00  0.00    -0.134 A  
HETATM    5  O   UNL     1      -6.188  14.755  67.310  1.00  0.00    -0.309 OA 
HETATM    6  C   UNL     1      -7.451  12.794  67.425  1.00  0.00    -0.145 A  
HETATM    7  H   UNL     1      -5.381  14.255  67.341  1.00  0.00     0.000 HD 
HETATM    8  C   UNL     1      -8.665  12.111  67.369  1.00  0.00    -0.177 A  
HETATM    9  C   UNL     1      -9.870  12.821  67.292  1.00  0.00    -0.207 A  
HETATM   10  C   UNL     1      -9.830  14.227  67.277  1.00  0.00    -0.244 A  
BRANCH   9  11
HETATM   11  C   UNL     1     -11.183  12.079  67.195  1.00  0.00    -0.374 C  
BRANCH  11  12
HETATM   12  C   UNL     1     -11.877  11.959  68.524  1.00  0.00    -0.357 C  
HETATM   13  C   UNL     1     -11.714  10.937  69.376  1.00  0.00    -0.397 C  
ENDBRANCH  11  12
ENDBRANCH   9  11
ENDBRANCH   2   3
TORSDOF 3
ENDMDL
MODEL      168
REMARK 921   NORMALIZED FREE ENERGY PREDICTED BY IDOCK:   -2.59 KCAL/MOL
REMARK 922        TOTAL FREE ENERGY PREDICTED BY IDOCK:   -3.24 KCAL/MOL
REMARK 923 INTER-LIGAND FREE ENERGY PREDICTED BY IDOCK:   -3.08 KCAL/MOL
REMARK 924 INTRA-LIGAND FREE ENERGY PREDICTED BY IDOCK:   -0.16 KCAL/MOL
REMARK 927      BINDING AFFINITY PREDICTED BY RF-SCORE:    0.00 PKD
ROOT
HETATM    1  C   UNL     1     -11.785  13.786  65.966  1.00  0.00    -0.363 C  
HETATM    2  O   UNL     1     -11.660  12.391  66.223  1.00  0.00    -0.357 OA 
ENDROOT
BRANCH   2   3
HETATM    3  C   UNL     1     -10.601  11.742  65.649  1.00  0.00    -0.268 A  
HETATM    4  C   UNL     1     -10.455  11.403  64.302  1.00  0.00    -0.342 A  
HETATM    5  O   UNL     1     -11.420  11.631  63.361  1.00  0.00    -0.637 OA 
HETATM    6  C   UNL     1      -9.324  10.725  63.853  1.00  0.00    -0.284 A  
HETATM    7  H   UNL     1     -11.321  11.401  62.445  1.00  0.00     0.000 HD 
HETATM    8  C   UNL     1      -8.341  10.328  64.757  1.00  0.00    -0.173 A  
HETATM    9  C   UNL     1      -8.473  10.628  66.119  1.00  0.00    -0.159 A  
HETATM   10  C   UNL     1      -9.609  11.336  66.551  1.00  0.00    -0.215 A  
BRANCH   9  11
HETATM   11  C   UNL     1      -7.423  10.165  67.103  1.00  0.00    -0.091 C  
BRANCH  11  12
HETATM   12  C   UNL     1      -7.979   9.232  68.143  1.00  0.00    -0.099 C  
HETATM   13  C   UNL     1      -7.335   8.160  68.623  1.00  0.00    -0.089 C  
ENDBRANCH  11  12
ENDBRANCH   9  11
ENDBRANCH   2   3
TORSDOF 3
ENDMDL
MODEL      169
REMARK 921   NORMALIZED FREE ENERGY PREDICTED BY IDOCK:   -2.57 KCAL/MOL
REMARK 922        TOTAL FREE ENERGY PREDICTED BY IDOCK:   -3.21 KCAL/MOL
REMARK 923 INTER-LIGAND FREE ENERGY PREDICTED BY IDOCK:   -3.00 KCAL/MOL
REMARK 924 INTRA-LIGAND FREE ENERGY PREDICTED BY IDOCK:   -0.22 KCAL/MOL
REMARK 927      BINDING AFFINITY PREDICTED BY RF-SCORE:    0.00 PKD
ROOT
HETATM    1  C   UNL     1     -11.028   6.390  68.804  1.00  0.00    -0.334 C  
HETATM    2  O   UNL     1     -10.458   6.722  70.066  1.00  0.00    -0.197 OA 
ENDROOT
BRANCH   2   3
HETATM    3  C   UNL     1     -10.553   5.786  71.060  1.00  0.00    -0.253 A  
HETATM    4  C   UNL     1     -11.167   5.945  72.305  1.00  0.00    -0.291 A  
HETATM    5  O   UNL     1     -11.717   7.123  72.727  1.00  0.00    -0.507 OA 
HETATM    6  C   UNL     1     -11.179   4.908  73.234  1.00  0.00    -0.423 A  
HETATM    7  H   UNL     1     -12.134   7.232  73.573  1.00  0.00     0.000 HD 
HETATM    8  C   UNL     1     -10.529   3.708  72.952  1.00  0.00    -0.239 A  
HETATM    9  C   UNL     1      -9.879   3.529  71.725  1.00  0.00    -0.230 A  
HETATM   10  C   UNL     1      -9.900   4.577  70.787  1.00  0.00    -0.280 A  
BRANCH   9  11
HETATM   11  C   UNL     1      -9.145   2.241  71.435  1.00  0.00    -0.161 C  
BRANCH  11  12
HETATM   12  C   UNL     1      -7.981   2.437  70.503  1.00  0.00    -0.051 C  
HETATM   13  C   UNL     1      -6.717   2.638  70.898  1.00  0.00    -0.032 C  
ENDBRANCH  11  12
ENDBRANCH   9  11
ENDBRANCH   2   3
TORSDOF 3
ENDMDL
MODEL      170
REMARK 921   NORMALIZED FREE ENERGY PREDICTED BY IDOCK:   -2.57 KCAL/MOL
REMARK 922        TOTAL FREE ENERGY PREDICTED BY IDOCK:   -3.21 KCAL/MOL
REMARK 923 INTER-LIGAND FREE ENERGY PREDICTED BY IDOCK:   -2.95 KCAL/MOL
REMARK 924 INTRA-LIGAND FREE ENERGY PREDICTED BY IDOCK:   -0.26 KCAL/MOL
REMARK 927      BINDING AFFINITY PREDICTED BY RF-SCORE:    0.00 PKD
ROOT
HETATM    1  C   UNL     1     -11.398  14.849  69.995  1.00  0.00    -0.274 C  
HETATM    2  O   UNL     1     -11.419  14.396  68.645  1.00  0.00    -0.257 OA 
ENDROOT
BRANCH   2   3
HETATM    3  C   UNL     1     -10.586  15.028  67.761  1.00  0.00    -0.264 A  
HETATM    4  C   UNL     1     -10.740  15.108  66.376  1.00  0.00    -0.317 A  
HETATM    5  O   UNL     1     -11.749  14.488  65.694  1.00  0.00    -0.345 OA 
HETATM    6  C   UNL     1      -9.803  15.774  65.589  1.00  0.00    -0.357 A  
HETATM    7  H   UNL     1     -11.854  14.542  64.752  1.00  0.00     0.000 HD 
HETATM    8  C   UNL     1      -8.665  16.328  66.174  1.00  0.00    -0.353 A  
HETATM    9  C   UNL     1      -8.469  16.238  67.557  1.00  0.00    -0.183 A  
HETATM   10  C   UNL     1      -9.438  15.585  68.340  1.00  0.00    -0.196 A  
BRANCH   9  11
HETATM   11  C   UNL     1      -7.218  16.808  68.185  1.00  0.00    -0.166 C  
BRANCH  11  12
HETATM   12  C   UNL     1      -6.273  15.739  68.662  1.00  0.00    -0.104 C  
HETATM   13  C   UNL     1      -5.747  14.787  67.881  1.00  0.00    -0.133 C  
ENDBRANCH  11  12
ENDBRANCH   9  11
ENDBRANCH   2   3
TORSDOF 3
ENDMDL
MODEL      171
REMARK 921   NORMALIZED FREE ENERGY PREDICTED BY IDOCK:   -2.57 KCAL/MOL
REMARK 922        TOTAL FREE ENERGY PREDICTED BY IDOCK:   -3.21 KCAL/MOL
REMARK 923 INTER-LIGAND FREE ENERGY PREDICTED BY IDOCK:   -3.77 KCAL/MOL
REMARK 924 INTRA-LIGAND FREE ENERGY PREDICTED BY IDOCK:    0.55 KCAL/MOL
REMARK 927      BINDING AFFINITY PREDICTED BY RF-SCORE:    0.00 PKD
ROOT
HETATM    1  C   UNL     1     -10.772  17.236  67.594  1.00  0.00    -0.307 C  
HETATM    2  O   UNL     1      -9.950  18.200  68.243  1.00  0.00    -0.328 OA 
ENDROOT
BRANCH   2   3
HETATM    3  C   UNL     1      -8.774  18.536  67.626  1.00  0.00    -0.267 A  
HETATM    4  C   UNL     1      -8.271  18.005  66.436  1.00  0.00    -0.255 A  
HETATM    5  O   UNL     1      -8.883  16.998  65.744  1.00  0.00    -0.523 OA 
HETATM    6  C   UNL     1      -7.046  18.429  65.926  1.00  0.00    -0.290 A  
HETATM    7  H   UNL     1      -8.541  16.637  64.935  1.00  0.00     0.000 HD 
HETATM    8  C   UNL     1      -6.279  19.357  66.627  1.00  0.00    -0.180 A  
HETATM    9  C   UNL     1      -6.744  19.885  67.838  1.00  0.00    -0.285 A  
HETATM   10  C   UNL     1      -7.995  19.466  68.326  1.00  0.00    -0.366 A  
BRANCH   9  11
HETATM   11  C   UNL     1      -5.894  20.865  68.614  1.00  0.00    -0.373 C  
BRANCH  11  12
HETATM   12  C   UNL     1      -5.731  20.470  70.056  1.00  0.00    -0.371 C  
HETATM   13  C   UNL     1      -5.135  19.345  70.473  1.00  0.00    -0.220 C  
ENDBRANCH  11  12
ENDBRANCH   9  11
ENDBRANCH   2   3
TORSDOF 3
ENDMDL
MODEL      172
REMARK 921   NORMALIZED FREE ENERGY PREDICTED BY IDOCK:   -2.56 KCAL/MOL
REMARK 922        TOTAL FREE ENERGY PREDICTED BY IDOCK:   -3.20 KCAL/MOL
REMARK 923 INTER-LIGAND FREE ENERGY PREDICTED BY IDOCK:   -2.99 KCAL/MOL
REMARK 924 INTRA-LIGAND FREE ENERGY PREDICTED BY IDOCK:   -0.21 KCAL/MOL
REMARK 927      BINDING AFFINITY PREDICTED BY RF-SCORE:    0.00 PKD
ROOT
HETATM    1  C   UNL     1     -12.021  10.880  69.933  1.00  0.00    -0.353 C  
HETATM    2  O   UNL     1     -11.214  10.388  68.867  1.00  0.00    -0.236 OA 
ENDROOT
BRANCH   2   3
HETATM    3  C   UNL     1     -10.198  11.195  68.429  1.00  0.00    -0.188 A  
HETATM    4  C   UNL     1      -8.879  11.205  68.887  1.00  0.00    -0.079 A  
HETATM    5  O   UNL     1      -8.435  10.424  69.916  1.00  0.00    -0.377 OA 
HETATM    6  C   UNL     1      -7.945  12.094  68.360  1.00  0.00    -0.152 A  
HETATM    7  H   UNL     1      -7.538  10.430  70.228  1.00  0.00     0.000 HD 
HETATM    8  C   UNL     1      -8.332  13.025  67.397  1.00  0.00    -0.194 A  
HETATM    9  C   UNL     1      -9.654  13.058  66.939  1.00  0.00    -0.243 A  
HETATM   10  C   UNL     1     -10.578  12.136  67.464  1.00  0.00    -0.240 A  
BRANCH   9  11
HETATM   11  C   UNL     1     -10.079  14.092  65.922  1.00  0.00    -0.336 C  
BRANCH  11  12
HETATM   12  C   UNL     1     -10.162  15.476  66.505  1.00  0.00    -0.291 C  
HETATM   13  C   UNL     1     -10.075  16.607  65.792  1.00  0.00    -0.301 C  
ENDBRANCH  11  12
ENDBRANCH   9  11
ENDBRANCH   2   3
TORSDOF 3
ENDMDL
MODEL      173
REMARK 921   NORMALIZED FREE ENERGY PREDICTED BY IDOCK:   -2.54 KCAL/MOL
REMARK 922        TOTAL FREE ENERGY PREDICTED BY IDOCK:   -3.18 KCAL/MOL
REMARK 923 INTER-LIGAND FREE ENERGY PREDICTED BY IDOCK:   -2.95 KCAL/MOL
REMARK 924 INTRA-LIGAND FREE ENERGY PREDICTED BY IDOCK:   -0.23 KCAL/MOL
REMARK 927      BINDING AFFINITY PREDICTED BY RF-SCORE:    0.00 PKD
ROOT
HETATM    1  C   UNL     1      -7.061   6.235  69.890  1.00  0.00    -0.072 C  
HETATM    2  O   UNL     1      -7.653   7.506  70.140  1.00  0.00    -0.084 OA 
ENDROOT
BRANCH   2   3
HETATM    3  C   UNL     1      -8.514   7.597  71.202  1.00  0.00    -0.116 A  
HETATM    4  C   UNL     1      -8.233   8.121  72.465  1.00  0.00    -0.159 A  
HETATM    5  O   UNL     1      -6.996   8.569  72.836  1.00  0.00    -0.205 OA 
HETATM    6  C   UNL     1      -9.203   8.139  73.464  1.00  0.00    -0.257 A  
HETATM    7  H   UNL     1      -6.805   8.925  73.695  1.00  0.00     0.000 HD 
HETATM    8  C   UNL     1     -10.460   7.584  73.229  1.00  0.00    -0.426 A  
HETATM    9  C   UNL     1     -10.761   7.024  71.981  1.00  0.00    -0.243 A  
HETATM   10  C   UNL     1      -9.778   7.039  70.976  1.00  0.00    -0.175 A  
BRANCH   9  11
HETATM   11  C   UNL     1     -12.112   6.391  71.740  1.00  0.00    -0.351 C  
BRANCH  11  12
HETATM   12  C   UNL     1     -13.088   7.339  71.099  1.00  0.00    -0.291 C  
HETATM   13  C   UNL     1     -14.181   7.826  71.702  1.00  0.00    -0.572 C  
ENDBRANCH  11  12
ENDBRANCH   9  11
ENDBRANCH   2   3
TORSDOF 3
ENDMDL
MODEL      174
REMARK 921   NORMALIZED FREE ENERGY PREDICTED BY IDOCK:   -2.53 KCAL/MOL
REMARK 922        TOTAL FREE ENERGY PREDICTED BY IDOCK:   -3.16 KCAL/MOL
REMARK 923 INTER-LIGAND FREE ENERGY PREDICTED BY IDOCK:   -2.93 KCAL/MOL
REMARK 924 INTRA-LIGAND FREE ENERGY PREDICTED BY IDOCK:   -0.23 KCAL/MOL
REMARK 927      BINDING AFFINITY PREDICTED BY RF-SCORE:    0.00 PKD
ROOT
HETATM    1  C   UNL     1      -6.396   8.164  67.526  1.00  0.00    -0.056 C  
HETATM    2  O   UNL     1      -7.698   7.657  67.254  1.00  0.00    -0.108 OA 
ENDROOT
BRANCH   2   3
HETATM    3  C   UNL     1      -8.756   8.497  67.478  1.00  0.00    -0.135 A  
HETATM    4  C   UNL     1      -9.444   9.250  66.524  1.00  0.00    -0.202 A  
HETATM    5  O   UNL     1      -9.094   9.292  65.204  1.00  0.00    -0.214 OA 
HETATM    6  C   UNL     1     -10.499  10.081  66.894  1.00  0.00    -0.284 A  
HETATM    7  H   UNL     1      -9.562   9.804  64.555  1.00  0.00     0.000 HD 
HETATM    8  C   UNL     1     -10.850  10.211  68.236  1.00  0.00    -0.297 A  
HETATM    9  C   UNL     1     -10.159   9.491  69.219  1.00  0.00    -0.203 A  
HETATM   10  C   UNL     1      -9.113   8.637  68.825  1.00  0.00    -0.142 A  
BRANCH   9  11
HETATM   11  C   UNL     1     -10.517   9.661  70.677  1.00  0.00    -0.379 C  
BRANCH  11  12
HETATM   12  C   UNL     1     -11.991   9.878  70.888  1.00  0.00    -0.434 C  
HETATM   13  C   UNL     1     -12.667   9.490  71.977  1.00  0.00    -0.479 C  
ENDBRANCH  11  12
ENDBRANCH   9  11
ENDBRANCH   2   3
TORSDOF 3
ENDMDL
MODEL      175
REMARK 921   NORMALIZED FREE ENERGY PREDICTED BY IDOCK:   -2.51 KCAL/MOL
REMARK 922        TOTAL FREE ENERGY PREDICTED BY IDOCK:   -3.14 KCAL/MOL
REMARK 923 INTER-LIGAND FREE ENERGY PREDICTED BY IDOCK:   -2.93 KCAL/MOL
REMARK 924 INTRA-LIGAND FREE ENERGY PREDICTED BY IDOCK:   -0.21 KCAL/MOL
REMARK 927      BINDING AFFINITY PREDICTED BY RF-SCORE:    0.00 PKD
ROOT
HETATM    1  C   UNL     1     -10.901  11.519  64.331  1.00  0.00    -0.342 C  
HETATM    2  O   UNL     1     -10.068  10.368  64.242  1.00  0.00    -0.334 OA 
ENDROOT
BRANCH   2   3
HETATM    3  C   UNL     1      -9.422   9.974  65.383  1.00  0.00    -0.250 A  
HETATM    4  C   UNL     1      -8.080  10.189  65.703  1.00  0.00    -0.149 A  
HETATM    5  O   UNL     1      -7.191  10.787  64.855  1.00  0.00    -0.356 OA 
HETATM    6  C   UNL     1      -7.545   9.718  66.900  1.00  0.00    -0.095 A  
HETATM    7  H   UNL     1      -6.278  10.933  65.071  1.00  0.00     0.000 HD 
HETATM    8  C   UNL     1      -8.337   8.978  67.777  1.00  0.00    -0.117 A  
HETATM    9  C   UNL     1      -9.679   8.722  67.470  1.00  0.00    -0.214 A  
HETATM   10  C   UNL     1     -10.209   9.227  66.269  1.00  0.00    -0.273 A  
BRANCH   9  11
HETATM   11  C   UNL     1     -10.526   7.889  68.405  1.00  0.00    -0.207 C  
BRANCH  11  12
HETATM   12  C   UNL     1     -11.241   6.772  67.695  1.00  0.00    -0.220 C  
HETATM   13  C   UNL     1     -10.631   5.786  67.025  1.00  0.00    -0.373 C  
ENDBRANCH  11  12
ENDBRANCH   9  11
ENDBRANCH   2   3
TORSDOF 3
ENDMDL
MODEL      176
REMARK 921   NORMALIZED FREE ENERGY PREDICTED BY IDOCK:   -2.48 KCAL/MOL
REMARK 922        TOTAL FREE ENERGY PREDICTED BY IDOCK:   -3.11 KCAL/MOL
REMARK 923 INTER-LIGAND FREE ENERGY PREDICTED BY IDOCK:   -2.92 KCAL/MOL
REMARK 924 INTRA-LIGAND FREE ENERGY PREDICTED BY IDOCK:   -0.19 KCAL/MOL
REMARK 927      BINDING AFFINITY PREDICTED BY RF-SCORE:    0.00 PKD
ROOT
HETATM    1  C   UNL     1      -8.808  13.875  67.236  1.00  0.00    -0.221 C  
HETATM    2  O   UNL     1      -8.136  13.979  68.487  1.00  0.00    -0.139 OA 
ENDROOT
BRANCH   2   3
HETATM    3  C   UNL     1      -7.510  15.164  68.764  1.00  0.00    -0.132 A  
HETATM    4  C   UNL     1      -6.288  15.333  69.419  1.00  0.00    -0.135 A  
HETATM    5  O   UNL     1      -5.565  14.298  69.941  1.00  0.00    -0.095 OA 
HETATM    6  C   UNL     1      -5.770  16.606  69.649  1.00  0.00    -0.190 A  
HETATM    7  H   UNL     1      -4.734  14.413  70.386  1.00  0.00     0.000 HD 
HETATM    8  C   UNL     1      -6.495  17.735  69.273  1.00  0.00    -0.244 A  
HETATM    9  C   UNL     1      -7.737  17.598  68.641  1.00  0.00    -0.281 A  
HETATM   10  C   UNL     1      -8.232  16.305  68.392  1.00  0.00    -0.185 A  
BRANCH   9  11
HETATM   11  C   UNL     1      -8.537  18.823  68.266  1.00  0.00    -0.357 C  
BRANCH  11  12
HETATM   12  C   UNL     1     -10.008  18.535  68.139  1.00  0.00    -0.393 C  
HETATM   13  C   UNL     1     -10.862  19.257  67.400  1.00  0.00    -0.554 C  
ENDBRANCH  11  12
ENDBRANCH   9  11
ENDBRANCH   2   3
TORSDOF 3
ENDMDL
MODEL      177
REMARK 921   NORMALIZED FREE ENERGY PREDICTED BY IDOCK:   -2.47 KCAL/MOL
REMARK 922        TOTAL FREE ENERGY PREDICTED BY IDOCK:   -3.09 KCAL/MOL
REMARK 923 INTER-LIGAND FREE ENERGY PREDICTED BY IDOCK:   -2.90 KCAL/MOL
REMARK 924 INTRA-LIGAND FREE ENERGY PREDICTED BY IDOCK:   -0.19 KCAL/MOL
REMARK 927      BINDING AFFINITY PREDICTED BY RF-SCORE:    0.00 PKD
ROOT
HETATM    1  C   UNL     1     -10.873   6.775  67.262  1.00  0.00    -0.373 C  
HETATM    2  O   UNL     1     -11.397   6.259  68.482  1.00  0.00    -0.324 OA 
ENDROOT
BRANCH   2   3
HETATM    3  C   UNL     1     -11.011   6.880  69.640  1.00  0.00    -0.259 A  
HETATM    4  C   UNL     1     -11.826   7.210  70.725  1.00  0.00    -0.325 A  
HETATM    5  O   UNL     1     -13.177   7.005  70.741  1.00  0.00    -0.528 OA 
HETATM    6  C   UNL     1     -11.302   7.857  71.842  1.00  0.00    -0.324 A  
HETATM    7  H   UNL     1     -13.731   7.229  71.479  1.00  0.00     0.000 HD 
HETATM    8  C   UNL     1      -9.959   8.230  71.869  1.00  0.00    -0.299 A  
HETATM    9  C   UNL     1      -9.124   7.939  70.783  1.00  0.00    -0.154 A  
HETATM   10  C   UNL     1      -9.664   7.261  69.674  1.00  0.00    -0.159 A  
BRANCH   9  11
HETATM   11  C   UNL     1      -7.678   8.376  70.799  1.00  0.00    -0.083 C  
BRANCH  11  12
HETATM   12  C   UNL     1      -6.848   7.662  69.768  1.00  0.00    -0.047 C  
HETATM   13  C   UNL     1      -5.617   8.036  69.393  1.00  0.00    -0.027 C  
ENDBRANCH  11  12
ENDBRANCH   9  11
ENDBRANCH   2   3
TORSDOF 3
ENDMDL
MODEL      178
REMARK 921   NORMALIZED FREE ENERGY PREDICTED BY IDOCK:   -2.44 KCAL/MOL
REMARK 922        TOTAL FREE ENERGY PREDICTED BY IDOCK:   -3.06 KCAL/MOL
REMARK 923 INTER-LIGAND FREE ENERGY PREDICTED BY IDOCK:   -2.82 KCAL/MOL
REMARK 924 INTRA-LIGAND FREE ENERGY PREDICTED BY IDOCK:   -0.24 KCAL/MOL
REMARK 927      BINDING AFFINITY PREDICTED BY RF-SCORE:    0.00 PKD
ROOT
HETATM    1  C   UNL     1     -11.434   6.458  69.936  1.00  0.00    -0.415 C  
HETATM    2  O   UNL     1     -10.526   6.237  68.862  1.00  0.00    -0.185 OA 
ENDROOT
BRANCH   2   3
HETATM    3  C   UNL     1     -10.148   7.330  68.128  1.00  0.00    -0.173 A  
HETATM    4  C   UNL     1      -9.222   7.358  67.083  1.00  0.00    -0.136 A  
HETATM    5  O   UNL     1      -8.501   6.267  66.688  1.00  0.00    -0.110 OA 
HETATM    6  C   UNL     1      -8.919   8.550  66.428  1.00  0.00    -0.201 A  
HETATM    7  H   UNL     1      -7.871   6.286  65.978  1.00  0.00     0.000 HD 
HETATM    8  C   UNL     1      -9.503   9.745  66.844  1.00  0.00    -0.202 A  
HETATM    9  C   UNL     1     -10.413   9.753  67.908  1.00  0.00    -0.288 A  
HETATM   10  C   UNL     1     -10.728   8.537  68.541  1.00  0.00    -0.080 A  
BRANCH   9  11
HETATM   11  C   UNL     1     -11.018  11.055  68.380  1.00  0.00    -0.281 C  
BRANCH  11  12
HETATM   12  C   UNL     1     -10.828  12.172  67.391  1.00  0.00    -0.286 C  
HETATM   13  C   UNL     1     -11.815  12.729  66.676  1.00  0.00    -0.462 C  
ENDBRANCH  11  12
ENDBRANCH   9  11
ENDBRANCH   2   3
TORSDOF 3
ENDMDL
MODEL      179
REMARK 921   NORMALIZED FREE ENERGY PREDICTED BY IDOCK:   -2.38 KCAL/MOL
REMARK 922        TOTAL FREE ENERGY PREDICTED BY IDOCK:   -2.99 KCAL/MOL
REMARK 923 INTER-LIGAND FREE ENERGY PREDICTED BY IDOCK:   -2.72 KCAL/MOL
REMARK 924 INTRA-LIGAND FREE ENERGY PREDICTED BY IDOCK:   -0.27 KCAL/MOL
REMARK 927      BINDING AFFINITY PREDICTED BY RF-SCORE:    0.00 PKD
ROOT
HETATM    1  C   UNL     1     -11.087   5.986  70.616  1.00  0.00    -0.301 C  
HETATM    2  O   UNL     1     -11.677   6.308  69.360  1.00  0.00    -0.319 OA 
ENDROOT
BRANCH   2   3
HETATM    3  C   UNL     1     -10.833   6.450  68.291  1.00  0.00    -0.309 A  
HETATM    4  C   UNL     1     -10.532   7.633  67.613  1.00  0.00    -0.244 A  
HETATM    5  O   UNL     1     -11.114   8.835  67.903  1.00  0.00    -0.487 OA 
HETATM    6  C   UNL     1      -9.662   7.632  66.525  1.00  0.00    -0.251 A  
HETATM    7  H   UNL     1     -10.910   9.640  67.442  1.00  0.00     0.000 HD 
HETATM    8  C   UNL     1      -9.117   6.435  66.066  1.00  0.00    -0.118 A  
HETATM    9  C   UNL     1      -9.423   5.229  66.708  1.00  0.00    -0.142 A  
HETATM   10  C   UNL     1     -10.283   5.251  67.821  1.00  0.00    -0.211 A  
BRANCH   9  11
HETATM   11  C   UNL     1      -8.860   3.927  66.186  1.00  0.00    -0.124 C  
BRANCH  11  12
HETATM   12  C   UNL     1      -9.193   3.693  64.738  1.00  0.00    -0.145 C  
HETATM   13  C   UNL     1     -10.343   3.164  64.299  1.00  0.00    -0.068 C  
ENDBRANCH  11  12
ENDBRANCH   9  11
ENDBRANCH   2   3
TORSDOF 3
ENDMDL
MODEL      180
REMARK 921   NORMALIZED FREE ENERGY PREDICTED BY IDOCK:   -2.37 KCAL/MOL
REMARK 922        TOTAL FREE ENERGY PREDICTED BY IDOCK:   -2.98 KCAL/MOL
REMARK 923 INTER-LIGAND FREE ENERGY PREDICTED BY IDOCK:   -2.80 KCAL/MOL
REMARK 924 INTRA-LIGAND FREE ENERGY PREDICTED BY IDOCK:   -0.18 KCAL/MOL
REMARK 927      BINDING AFFINITY PREDICTED BY RF-SCORE:    0.00 PKD
ROOT
HETATM    1  C   UNL     1      -7.481   5.431  69.982  1.00  0.00    -0.069 C  
HETATM    2  O   UNL     1      -8.135   6.677  70.198  1.00  0.00    -0.119 OA 
ENDROOT
BRANCH   2   3
HETATM    3  C   UNL     1      -8.877   6.804  71.342  1.00  0.00    -0.131 A  
HETATM    4  C   UNL     1      -8.796   7.832  72.283  1.00  0.00    -0.134 A  
HETATM    5  O   UNL     1      -7.885   8.849  72.210  1.00  0.00    -0.361 OA 
HETATM    6  C   UNL     1      -9.605   7.829  73.417  1.00  0.00    -0.352 A  
HETATM    7  H   UNL     1      -7.830   9.548  72.850  1.00  0.00     0.000 HD 
HETATM    8  C   UNL     1     -10.475   6.767  73.653  1.00  0.00    -0.374 A  
HETATM    9  C   UNL     1     -10.557   5.707  72.742  1.00  0.00    -0.266 A  
HETATM   10  C   UNL     1      -9.752   5.738  71.589  1.00  0.00    -0.192 A  
BRANCH   9  11
HETATM   11  C   UNL     1     -11.475   4.538  73.018  1.00  0.00    -0.205 C  
BRANCH  11  12
HETATM   12  C   UNL     1     -10.723   3.256  73.248  1.00  0.00    -0.288 C  
HETATM   13  C   UNL     1     -11.284   2.111  73.661  1.00  0.00    -0.306 C  
ENDBRANCH  11  12
ENDBRANCH   9  11
ENDBRANCH   2   3
TORSDOF 3
ENDMDL
MODEL      181
REMARK 921   NORMALIZED FREE ENERGY PREDICTED BY IDOCK:   -2.37 KCAL/MOL
REMARK 922        TOTAL FREE ENERGY PREDICTED BY IDOCK:   -2.97 KCAL/MOL
REMARK 923 INTER-LIGAND FREE ENERGY PREDICTED BY IDOCK:   -2.74 KCAL/MOL
REMARK 924 INTRA-LIGAND FREE ENERGY PREDICTED BY IDOCK:   -0.24 KCAL/MOL
REMARK 927      BINDING AFFINITY PREDICTED BY RF-SCORE:    0.00 PKD
ROOT
HETATM    1  C   UNL     1      -6.553   5.604  67.299  1.00  0.00    -0.057 C  
HETATM    2  O   UNL     1      -7.463   5.828  66.228  1.00  0.00    -0.080 OA 
ENDROOT
BRANCH   2   3
HETATM    3  C   UNL     1      -8.504   6.687  66.461  1.00  0.00    -0.121 A  
HETATM    4  C   UNL     1      -9.723   6.380  67.070  1.00  0.00    -0.149 A  
HETATM    5  O   UNL     1     -10.068   5.119  67.469  1.00  0.00    -0.169 OA 
HETATM    6  C   UNL     1     -10.706   7.353  67.233  1.00  0.00    -0.379 A  
HETATM    7  H   UNL     1     -10.896   4.910  67.883  1.00  0.00     0.000 HD 
HETATM    8  C   UNL     1     -10.504   8.641  66.740  1.00  0.00    -0.298 A  
HETATM    9  C   UNL     1      -9.304   8.970  66.098  1.00  0.00    -0.294 A  
HETATM   10  C   UNL     1      -8.312   7.983  65.966  1.00  0.00    -0.126 A  
BRANCH   9  11
HETATM   11  C   UNL     1      -9.102  10.357  65.533  1.00  0.00    -0.208 C  
BRANCH  11  12
HETATM   12  C   UNL     1     -10.248  10.799  64.665  1.00  0.00    -0.419 C  
HETATM   13  C   UNL     1     -10.134  11.140  63.374  1.00  0.00    -0.439 C  
ENDBRANCH  11  12
ENDBRANCH   9  11
ENDBRANCH   2   3
TORSDOF 3
ENDMDL
MODEL      182
REMARK 921   NORMALIZED FREE ENERGY PREDICTED BY IDOCK:   -2.35 KCAL/MOL
REMARK 922        TOTAL FREE ENERGY PREDICTED BY IDOCK:   -2.95 KCAL/MOL
REMARK 923 INTER-LIGAND FREE ENERGY PREDICTED BY IDOCK:   -2.71 KCAL/MOL
REMARK 924 INTRA-LIGAND FREE ENERGY PREDICTED BY IDOCK:   -0.24 KCAL/MOL
REMARK 927      BINDING AFFINITY PREDICTED BY RF-SCORE:    0.00 PKD
ROOT
HETATM    1  C   UNL     1     -11.257   6.135  71.067  1.00  0.00    -0.296 C  
HETATM    2  O   UNL     1     -11.706   6.551  69.781  1.00  0.00    -0.382 OA 
ENDROOT
BRANCH   2   3
HETATM    3  C   UNL     1     -10.813   7.232  68.997  1.00  0.00    -0.113 A  
HETATM    4  C   UNL     1     -10.730   7.202  67.603  1.00  0.00    -0.244 A  
HETATM    5  O   UNL     1     -11.519   6.408  66.820  1.00  0.00    -0.733 OA 
HETATM    6  C   UNL     1      -9.758   7.937  66.929  1.00  0.00    -0.285 A  
HETATM    7  H   UNL     1     -11.462   6.388  65.872  1.00  0.00     0.000 HD 
HETATM    8  C   UNL     1      -8.818   8.677  67.645  1.00  0.00    -0.138 A  
HETATM    9  C   UNL     1      -8.858   8.703  69.045  1.00  0.00    -0.138 A  
HETATM   10  C   UNL     1      -9.863   7.975  69.708  1.00  0.00    -0.183 A  
BRANCH   9  11
HETATM   11  C   UNL     1      -7.817   9.476  69.820  1.00  0.00    -0.128 C  
BRANCH  11  12
HETATM   12  C   UNL     1      -6.437   9.324  69.242  1.00  0.00    -0.045 C  
HETATM   13  C   UNL     1      -5.421   8.701  69.855  1.00  0.00    -0.029 C  
ENDBRANCH  11  12
ENDBRANCH   9  11
ENDBRANCH   2   3
TORSDOF 3
ENDMDL
MODEL      183
REMARK 921   NORMALIZED FREE ENERGY PREDICTED BY IDOCK:   -2.33 KCAL/MOL
REMARK 922        TOTAL FREE ENERGY PREDICTED BY IDOCK:   -2.93 KCAL/MOL
REMARK 923 INTER-LIGAND FREE ENERGY PREDICTED BY IDOCK:   -2.67 KCAL/MOL
REMARK 924 INTRA-LIGAND FREE ENERGY PREDICTED BY IDOCK:   -0.27 KCAL/MOL
REMARK 927      BINDING AFFINITY PREDICTED BY RF-SCORE:    0.00 PKD
ROOT
HETATM    1  C   UNL     1     -12.014  13.761  67.298  1.00  0.00    -0.401 C  
HETATM    2  O   UNL     1     -10.941  13.029  66.714  1.00  0.00    -0.268 OA 
ENDROOT
BRANCH   2   3
HETATM    3  C   UNL     1      -9.670  13.385  67.079  1.00  0.00    -0.239 A  
HETATM    4  C   UNL     1      -8.537  12.568  67.073  1.00  0.00    -0.188 A  
HETATM    5  O   UNL     1      -8.568  11.241  66.750  1.00  0.00    -0.148 OA 
HETATM    6  C   UNL     1      -7.300  13.059  67.486  1.00  0.00    -0.154 A  
HETATM    7  H   UNL     1      -7.798  10.686  66.746  1.00  0.00     0.000 HD 
HETATM    8  C   UNL     1      -7.187  14.364  67.961  1.00  0.00    -0.146 A  
HETATM    9  C   UNL     1      -8.312  15.197  68.006  1.00  0.00    -0.147 A  
HETATM   10  C   UNL     1      -9.548  14.695  67.561  1.00  0.00    -0.206 A  
BRANCH   9  11
HETATM   11  C   UNL     1      -8.195  16.600  68.555  1.00  0.00    -0.231 C  
BRANCH  11  12
HETATM   12  C   UNL     1      -8.425  17.652  67.504  1.00  0.00    -0.220 C  
HETATM   13  C   UNL     1      -7.676  17.802  66.403  1.00  0.00    -0.318 C  
ENDBRANCH  11  12
ENDBRANCH   9  11
ENDBRANCH   2   3
TORSDOF 3
ENDMDL
MODEL      184
REMARK 921   NORMALIZED FREE ENERGY PREDICTED BY IDOCK:   -2.27 KCAL/MOL
REMARK 922        TOTAL FREE ENERGY PREDICTED BY IDOCK:   -2.86 KCAL/MOL
REMARK 923 INTER-LIGAND FREE ENERGY PREDICTED BY IDOCK:   -2.62 KCAL/MOL
REMARK 924 INTRA-LIGAND FREE ENERGY PREDICTED BY IDOCK:   -0.24 KCAL/MOL
REMARK 927      BINDING AFFINITY PREDICTED BY RF-SCORE:    0.00 PKD
ROOT
HETATM    1  C   UNL     1      -8.613   4.406  66.445  1.00  0.00    -0.112 C  
HETATM    2  O   UNL     1      -9.570   3.612  67.140  1.00  0.00    -0.212 OA 
ENDROOT
BRANCH   2   3
HETATM    3  C   UNL     1      -9.623   3.746  68.501  1.00  0.00    -0.105 A  
HETATM    4  C   UNL     1      -9.310   2.771  69.451  1.00  0.00    -0.119 A  
HETATM    5  O   UNL     1      -8.959   1.491  69.128  1.00  0.00    -0.066 OA 
HETATM    6  C   UNL     1      -9.422   3.039  70.814  1.00  0.00    -0.228 A  
HETATM    7  H   UNL     1      -8.746   0.828  69.774  1.00  0.00     0.000 HD 
HETATM    8  C   UNL     1      -9.899   4.274  71.248  1.00  0.00    -0.257 A  
HETATM    9  C   UNL     1     -10.249   5.261  70.318  1.00  0.00    -0.345 A  
HETATM   10  C   UNL     1     -10.105   4.983  68.946  1.00  0.00    -0.215 A  
BRANCH   9  11
HETATM   11  C   UNL     1     -10.800   6.587  70.789  1.00  0.00    -0.311 C  
BRANCH  11  12
HETATM   12  C   UNL     1     -10.928   6.659  72.286  1.00  0.00    -0.278 C  
HETATM   13  C   UNL     1     -10.327   7.576  73.056  1.00  0.00    -0.376 C  
ENDBRANCH  11  12
ENDBRANCH   9  11
ENDBRANCH   2   3
TORSDOF 3
ENDMDL
MODEL      185
REMARK 921   NORMALIZED FREE ENERGY PREDICTED BY IDOCK:   -2.26 KCAL/MOL
REMARK 922        TOTAL FREE ENERGY PREDICTED BY IDOCK:   -2.85 KCAL/MOL
REMARK 923 INTER-LIGAND FREE ENERGY PREDICTED BY IDOCK:   -2.77 KCAL/MOL
REMARK 924 INTRA-LIGAND FREE ENERGY PREDICTED BY IDOCK:   -0.08 KCAL/MOL
REMARK 927      BINDING AFFINITY PREDICTED BY RF-SCORE:    0.00 PKD
ROOT
HETATM    1  C   UNL     1     -10.688   8.512  67.127  1.00  0.00    -0.139 C  
HETATM    2  O   UNL     1     -10.406   9.075  68.404  1.00  0.00    -0.197 OA 
ENDROOT
BRANCH   2   3
HETATM    3  C   UNL     1     -10.660   8.295  69.500  1.00  0.00    -0.213 A  
HETATM    4  C   UNL     1     -11.596   8.544  70.506  1.00  0.00    -0.132 A  
HETATM    5  O   UNL     1     -12.362   9.674  70.557  1.00  0.00    -0.461 OA 
HETATM    6  C   UNL     1     -11.742   7.669  71.580  1.00  0.00    -0.313 A  
HETATM    7  H   UNL     1     -12.999   9.844  71.241  1.00  0.00     0.000 HD 
HETATM    8  C   UNL     1     -10.914   6.553  71.691  1.00  0.00    -0.291 A  
HETATM    9  C   UNL     1      -9.946   6.293  70.713  1.00  0.00    -0.220 A  
HETATM   10  C   UNL     1      -9.830   7.173  69.622  1.00  0.00    -0.162 A  
BRANCH   9  11
HETATM   11  C   UNL     1      -9.026   5.103  70.854  1.00  0.00    -0.162 C  
BRANCH  11  12
HETATM   12  C   UNL     1      -9.461   3.935  70.011  1.00  0.00    -0.263 C  
HETATM   13  C   UNL     1      -9.483   3.931  68.672  1.00  0.00    -0.217 C  
ENDBRANCH  11  12
ENDBRANCH   9  11
ENDBRANCH   2   3
TORSDOF 3
ENDMDL
MODEL      186
REMARK 921   NORMALIZED FREE ENERGY PREDICTED BY IDOCK:   -2.24 KCAL/MOL
REMARK 922        TOTAL FREE ENERGY PREDICTED BY IDOCK:   -2.82 KCAL/MOL
REMARK 923 INTER-LIGAND FREE ENERGY PREDICTED BY IDOCK:   -2.61 KCAL/MOL
REMARK 924 INTRA-LIGAND FREE ENERGY PREDICTED BY IDOCK:   -0.21 KCAL/MOL
REMARK 927      BINDING AFFINITY PREDICTED BY RF-SCORE:    0.00 PKD
ROOT
HETATM    1  C   UNL     1      -9.768   3.978  66.386  1.00  0.00    -0.188 C  
HETATM    2  O   UNL     1      -8.910   4.912  67.035  1.00  0.00    -0.108 OA 
ENDROOT
BRANCH   2   3
HETATM    3  C   UNL     1      -9.498   5.835  67.857  1.00  0.00    -0.110 A  
HETATM    4  C   UNL     1      -9.872   5.653  69.190  1.00  0.00    -0.162 A  
HETATM    5  O   UNL     1      -9.750   4.462  69.849  1.00  0.00    -0.192 OA 
HETATM    6  C   UNL     1     -10.479   6.679  69.910  1.00  0.00    -0.247 A  
HETATM    7  H   UNL     1     -10.003   4.337  70.756  1.00  0.00     0.000 HD 
HETATM    8  C   UNL     1     -10.769   7.893  69.288  1.00  0.00    -0.145 A  
HETATM    9  C   UNL     1     -10.433   8.095  67.944  1.00  0.00    -0.259 A  
HETATM   10  C   UNL     1      -9.797   7.057  67.240  1.00  0.00    -0.214 A  
BRANCH   9  11
HETATM   11  C   UNL     1     -10.781   9.398  67.263  1.00  0.00    -0.258 C  
BRANCH  11  12
HETATM   12  C   UNL     1     -11.147  10.481  68.241  1.00  0.00    -0.340 C  
HETATM   13  C   UNL     1     -11.450  11.741  67.900  1.00  0.00    -0.387 C  
ENDBRANCH  11  12
ENDBRANCH   9  11
ENDBRANCH   2   3
TORSDOF 3
ENDMDL
MODEL      187
REMARK 921   NORMALIZED FREE ENERGY PREDICTED BY IDOCK:   -2.24 KCAL/MOL
REMARK 922        TOTAL FREE ENERGY PREDICTED BY IDOCK:   -2.82 KCAL/MOL
REMARK 923 INTER-LIGAND FREE ENERGY PREDICTED BY IDOCK:   -3.02 KCAL/MOL
REMARK 924 INTRA-LIGAND FREE ENERGY PREDICTED BY IDOCK:    0.20 KCAL/MOL
REMARK 927      BINDING AFFINITY PREDICTED BY RF-SCORE:    0.00 PKD
ROOT
HETATM    1  C   UNL     1      -7.320   9.565  68.675  1.00  0.00    -0.075 C  
HETATM    2  O   UNL     1      -8.667   9.876  68.337  1.00  0.00    -0.117 OA 
ENDROOT
BRANCH   2   3
HETATM    3  C   UNL     1      -9.585   9.865  69.352  1.00  0.00    -0.215 A  
HETATM    4  C   UNL     1      -9.643   8.966  70.420  1.00  0.00    -0.194 A  
HETATM    5  O   UNL     1      -8.793   7.905  70.556  1.00  0.00    -0.138 OA 
HETATM    6  C   UNL     1     -10.646   9.062  71.382  1.00  0.00    -0.393 A  
HETATM    7  H   UNL     1      -8.832   7.294  71.282  1.00  0.00     0.000 HD 
HETATM    8  C   UNL     1     -11.641  10.030  71.262  1.00  0.00    -0.430 A  
HETATM    9  C   UNL     1     -11.626  10.927  70.186  1.00  0.00    -0.425 A  
HETATM   10  C   UNL     1     -10.591  10.833  69.238  1.00  0.00    -0.261 A  
BRANCH   9  11
HETATM   11  C   UNL     1     -12.726  11.953  70.038  1.00  0.00     0.176 C  
BRANCH  11  12
HETATM   12  C   UNL     1     -12.536  13.137  70.945  1.00  0.00    -0.407 C  
HETATM   13  C   UNL     1     -13.361  13.467  71.947  1.00  0.00    -0.539 C  
ENDBRANCH  11  12
ENDBRANCH   9  11
ENDBRANCH   2   3
TORSDOF 3
ENDMDL
MODEL      188
REMARK 921   NORMALIZED FREE ENERGY PREDICTED BY IDOCK:   -2.24 KCAL/MOL
REMARK 922        TOTAL FREE ENERGY PREDICTED BY IDOCK:   -2.82 KCAL/MOL
REMARK 923 INTER-LIGAND FREE ENERGY PREDICTED BY IDOCK:   -2.76 KCAL/MOL
REMARK 924 INTRA-LIGAND FREE ENERGY PREDICTED BY IDOCK:   -0.06 KCAL/MOL
REMARK 927      BINDING AFFINITY PREDICTED BY RF-SCORE:    0.00 PKD
ROOT
HETATM    1  C   UNL     1      -9.038  10.764  67.465  1.00  0.00    -0.139 C  
HETATM    2  O   UNL     1     -10.144   9.958  67.071  1.00  0.00    -0.195 OA 
ENDROOT
BRANCH   2   3
HETATM    3  C   UNL     1     -10.302   8.758  67.710  1.00  0.00    -0.237 A  
HETATM    4  C   UNL     1     -10.450   8.553  69.083  1.00  0.00    -0.205 A  
HETATM    5  O   UNL     1     -10.391   9.560  70.005  1.00  0.00    -0.212 OA 
HETATM    6  C   UNL     1     -10.588   7.268  69.604  1.00  0.00    -0.246 A  
HETATM    7  H   UNL     1     -10.492   9.421  70.939  1.00  0.00     0.000 HD 
HETATM    8  C   UNL     1     -10.528   6.160  68.760  1.00  0.00    -0.295 A  
HETATM    9  C   UNL     1     -10.351   6.333  67.382  1.00  0.00    -0.262 A  
HETATM   10  C   UNL     1     -10.240   7.639  66.870  1.00  0.00    -0.365 A  
BRANCH   9  11
HETATM   11  C   UNL     1     -10.251   5.130  66.473  1.00  0.00    -0.300 C  
BRANCH  11  12
HETATM   12  C   UNL     1      -9.310   4.083  67.003  1.00  0.00    -0.204 C  
HETATM   13  C   UNL     1      -8.003   4.020  66.714  1.00  0.00    -0.097 C  
ENDBRANCH  11  12
ENDBRANCH   9  11
ENDBRANCH   2   3
TORSDOF 3
ENDMDL
MODEL      189
REMARK 921   NORMALIZED FREE ENERGY PREDICTED BY IDOCK:   -2.23 KCAL/MOL
REMARK 922        TOTAL FREE ENERGY PREDICTED BY IDOCK:   -2.81 KCAL/MOL
REMARK 923 INTER-LIGAND FREE ENERGY PREDICTED BY IDOCK:   -2.67 KCAL/MOL
REMARK 924 INTRA-LIGAND FREE ENERGY PREDICTED BY IDOCK:   -0.15 KCAL/MOL
REMARK 927      BINDING AFFINITY PREDICTED BY RF-SCORE:    0.00 PKD
ROOT
HETATM    1  C   UNL     1      -9.525   5.806  67.442  1.00  0.00    -0.112 C  
HETATM    2  O   UNL     1      -9.209   5.822  68.831  1.00  0.00    -0.114 OA 
ENDROOT
BRANCH   2   3
HETATM    3  C   UNL     1      -9.457   6.982  69.515  1.00  0.00    -0.147 A  
HETATM    4  C   UNL     1      -8.747   8.181  69.417  1.00  0.00    -0.143 A  
HETATM    5  O   UNL     1      -7.632   8.333  68.641  1.00  0.00    -0.095 OA 
HETATM    6  C   UNL     1      -9.100   9.286  70.187  1.00  0.00    -0.248 A  
HETATM    7  H   UNL     1      -7.149   9.148  68.574  1.00  0.00     0.000 HD 
HETATM    8  C   UNL     1     -10.142   9.193  71.108  1.00  0.00    -0.384 A  
HETATM    9  C   UNL     1     -10.853   7.995  71.250  1.00  0.00    -0.267 A  
HETATM   10  C   UNL     1     -10.500   6.897  70.446  1.00  0.00    -0.229 A  
BRANCH   9  11
HETATM   11  C   UNL     1     -11.958   7.886  72.275  1.00  0.00    -0.387 C  
BRANCH  11  12
HETATM   12  C   UNL     1     -13.159   7.145  71.752  1.00  0.00    -0.363 C  
HETATM   13  C   UNL     1     -14.397   7.260  72.250  1.00  0.00    -0.178 C  
ENDBRANCH  11  12
ENDBRANCH   9  11
ENDBRANCH   2   3
TORSDOF 3
ENDMDL
MODEL      190
REMARK 921   NORMALIZED FREE ENERGY PREDICTED BY IDOCK:   -2.23 KCAL/MOL
REMARK 922        TOTAL FREE ENERGY PREDICTED BY IDOCK:   -2.81 KCAL/MOL
REMARK 923 INTER-LIGAND FREE ENERGY PREDICTED BY IDOCK:   -2.81 KCAL/MOL
REMARK 924 INTRA-LIGAND FREE ENERGY PREDICTED BY IDOCK:   -0.00 KCAL/MOL
REMARK 927      BINDING AFFINITY PREDICTED BY RF-SCORE:    0.00 PKD
ROOT
HETATM    1  C   UNL     1     -11.261   9.346  70.303  1.00  0.00    -0.246 C  
HETATM    2  O   UNL     1     -11.218   7.926  70.203  1.00  0.00    -0.242 OA 
ENDROOT
BRANCH   2   3
HETATM    3  C   UNL     1     -10.800   7.234  71.307  1.00  0.00    -0.235 A  
HETATM    4  C   UNL     1     -11.287   7.362  72.610  1.00  0.00    -0.313 A  
HETATM    5  O   UNL     1     -12.236   8.276  72.972  1.00  0.00    -0.630 OA 
HETATM    6  C   UNL     1     -10.757   6.600  73.650  1.00  0.00    -0.262 A  
HETATM    7  H   UNL     1     -12.567   8.363  73.858  1.00  0.00     0.000 HD 
HETATM    8  C   UNL     1      -9.693   5.732  73.410  1.00  0.00    -0.156 A  
HETATM    9  C   UNL     1      -9.165   5.604  72.120  1.00  0.00    -0.156 A  
HETATM   10  C   UNL     1      -9.729   6.361  71.077  1.00  0.00    -0.192 A  
BRANCH   9  11
HETATM   11  C   UNL     1      -7.988   4.690  71.869  1.00  0.00    -0.100 C  
BRANCH  11  12
HETATM   12  C   UNL     1      -8.348   3.236  72.007  1.00  0.00    -0.074 C  
HETATM   13  C   UNL     1      -9.317   2.624  71.313  1.00  0.00    -0.207 C  
ENDBRANCH  11  12
ENDBRANCH   9  11
ENDBRANCH   2   3
TORSDOF 3
ENDMDL
MODEL      191
REMARK 921   NORMALIZED FREE ENERGY PREDICTED BY IDOCK:   -2.22 KCAL/MOL
REMARK 922        TOTAL FREE ENERGY PREDICTED BY IDOCK:   -2.80 KCAL/MOL
REMARK 923 INTER-LIGAND FREE ENERGY PREDICTED BY IDOCK:   -2.68 KCAL/MOL
REMARK 924 INTRA-LIGAND FREE ENERGY PREDICTED BY IDOCK:   -0.12 KCAL/MOL
REMARK 927      BINDING AFFINITY PREDICTED BY RF-SCORE:    0.00 PKD
ROOT
HETATM    1  C   UNL     1     -10.824  17.256  67.618  1.00  0.00    -0.238 C  
HETATM    2  O   UNL     1      -9.941  18.053  68.401  1.00  0.00    -0.336 OA 
ENDROOT
BRANCH   2   3
HETATM    3  C   UNL     1      -8.659  18.199  67.943  1.00  0.00    -0.254 A  
HETATM    4  C   UNL     1      -8.249  18.908  66.812  1.00  0.00    -0.279 A  
HETATM    5  O   UNL     1      -9.118  19.517  65.951  1.00  0.00    -0.406 OA 
HETATM    6  C   UNL     1      -6.905  18.964  66.451  1.00  0.00    -0.234 A  
HETATM    7  H   UNL     1      -8.839  20.000  65.181  1.00  0.00     0.000 HD 
HETATM    8  C   UNL     1      -5.952  18.265  67.190  1.00  0.00    -0.167 A  
HETATM    9  C   UNL     1      -6.337  17.521  68.312  1.00  0.00    -0.180 A  
HETATM   10  C   UNL     1      -7.695  17.497  68.678  1.00  0.00    -0.275 A  
BRANCH   9  11
HETATM   11  C   UNL     1      -5.308  16.734  69.091  1.00  0.00    -0.131 C  
BRANCH  11  12
HETATM   12  C   UNL     1      -5.776  15.345  69.427  1.00  0.00    -0.102 C  
HETATM   13  C   UNL     1      -5.133  14.222  69.081  1.00  0.00    -0.078 C  
ENDBRANCH  11  12
ENDBRANCH   9  11
ENDBRANCH   2   3
TORSDOF 3
ENDMDL
MODEL      192
REMARK 921   NORMALIZED FREE ENERGY PREDICTED BY IDOCK:   -2.17 KCAL/MOL
REMARK 922        TOTAL FREE ENERGY PREDICTED BY IDOCK:   -2.74 KCAL/MOL
REMARK 923 INTER-LIGAND FREE ENERGY PREDICTED BY IDOCK:   -2.51 KCAL/MOL
REMARK 924 INTRA-LIGAND FREE ENERGY PREDICTED BY IDOCK:   -0.23 KCAL/MOL
REMARK 927      BINDING AFFINITY PREDICTED BY RF-SCORE:    0.00 PKD
ROOT
HETATM    1  C   UNL     1     -10.935   6.631  67.353  1.00  0.00    -0.360 C  
HETATM    2  O   UNL     1      -9.742   6.980  66.657  1.00  0.00    -0.179 OA 
ENDROOT
BRANCH   2   3
HETATM    3  C   UNL     1      -9.192   8.202  66.934  1.00  0.00    -0.160 A  
HETATM    4  C   UNL     1      -8.262   8.494  67.935  1.00  0.00    -0.119 A  
HETATM    5  O   UNL     1      -7.816   7.572  68.839  1.00  0.00    -0.118 OA 
HETATM    6  C   UNL     1      -7.792   9.793  68.118  1.00  0.00    -0.085 A  
HETATM    7  H   UNL     1      -7.184   7.771  69.520  1.00  0.00     0.000 HD 
HETATM    8  C   UNL     1      -8.286  10.833  67.332  1.00  0.00    -0.119 A  
HETATM    9  C   UNL     1      -9.240  10.576  66.340  1.00  0.00    -0.190 A  
HETATM   10  C   UNL     1      -9.684   9.254  66.151  1.00  0.00    -0.349 A  
BRANCH   9  11
HETATM   11  C   UNL     1      -9.801  11.710  65.513  1.00  0.00    -0.264 C  
BRANCH  11  12
HETATM   12  C   UNL     1     -10.448  12.773  66.357  1.00  0.00    -0.265 C  
HETATM   13  C   UNL     1     -10.234  14.089  66.217  1.00  0.00    -0.300 C  
ENDBRANCH  11  12
ENDBRANCH   9  11
ENDBRANCH   2   3
TORSDOF 3
ENDMDL
MODEL      193
REMARK 921   NORMALIZED FREE ENERGY PREDICTED BY IDOCK:   -2.15 KCAL/MOL
REMARK 922        TOTAL FREE ENERGY PREDICTED BY IDOCK:   -2.72 KCAL/MOL
REMARK 923 INTER-LIGAND FREE ENERGY PREDICTED BY IDOCK:   -2.58 KCAL/MOL
REMARK 924 INTRA-LIGAND FREE ENERGY PREDICTED BY IDOCK:   -0.13 KCAL/MOL
REMARK 927      BINDING AFFINITY PREDICTED BY RF-SCORE:    0.00 PKD
ROOT
HETATM    1  C   UNL     1     -11.105   9.259  71.225  1.00  0.00    -0.357 C  
HETATM    2  O   UNL     1      -9.961   8.550  70.758  1.00  0.00    -0.181 OA 
ENDROOT
BRANCH   2   3
HETATM    3  C   UNL     1      -9.954   8.174  69.441  1.00  0.00    -0.188 A  
HETATM    4  C   UNL     1     -10.755   7.198  68.844  1.00  0.00    -0.175 A  
HETATM    5  O   UNL     1     -11.637   6.421  69.540  1.00  0.00    -0.581 OA 
HETATM    6  C   UNL     1     -10.633   6.904  67.488  1.00  0.00    -0.351 A  
HETATM    7  H   UNL     1     -12.182   5.757  69.134  1.00  0.00     0.000 HD 
HETATM    8  C   UNL     1      -9.668   7.549  66.716  1.00  0.00    -0.283 A  
HETATM    9  C   UNL     1      -8.831   8.511  67.294  1.00  0.00    -0.137 A  
HETATM   10  C   UNL     1      -8.985   8.815  68.659  1.00  0.00    -0.138 A  
BRANCH   9  11
HETATM   11  C   UNL     1      -7.761   9.183  66.464  1.00  0.00    -0.096 C  
BRANCH  11  12
HETATM   12  C   UNL     1      -6.379   8.954  67.009  1.00  0.00    -0.060 C  
HETATM   13  C   UNL     1      -5.652   9.879  67.649  1.00  0.00    -0.039 C  
ENDBRANCH  11  12
ENDBRANCH   9  11
ENDBRANCH   2   3
TORSDOF 3
ENDMDL
MODEL      194
REMARK 921   NORMALIZED FREE ENERGY PREDICTED BY IDOCK:   -2.15 KCAL/MOL
REMARK 922        TOTAL FREE ENERGY PREDICTED BY IDOCK:   -2.72 KCAL/MOL
REMARK 923 INTER-LIGAND FREE ENERGY PREDICTED BY IDOCK:   -2.54 KCAL/MOL
REMARK 924 INTRA-LIGAND FREE ENERGY PREDICTED BY IDOCK:   -0.17 KCAL/MOL
REMARK 927      BINDING AFFINITY PREDICTED BY RF-SCORE:    0.00 PKD
ROOT
HETATM    1  C   UNL     1      -7.645   2.461  68.151  1.00  0.00    -0.055 C  
HETATM    2  O   UNL     1      -7.515   3.726  67.509  1.00  0.00    -0.066 OA 
ENDROOT
BRANCH   2   3
HETATM    3  C   UNL     1      -8.666   4.429  67.276  1.00  0.00    -0.105 A  
HETATM    4  C   UNL     1      -9.646   4.141  66.324  1.00  0.00    -0.199 A  
HETATM    5  O   UNL     1      -9.544   3.116  65.426  1.00  0.00    -0.293 OA 
HETATM    6  C   UNL     1     -10.768   4.955  66.183  1.00  0.00    -0.243 A  
HETATM    7  H   UNL     1     -10.210   2.920  64.778  1.00  0.00     0.000 HD 
HETATM    8  C   UNL     1     -10.902   6.103  66.962  1.00  0.00    -0.435 A  
HETATM    9  C   UNL     1      -9.921   6.433  67.905  1.00  0.00    -0.145 A  
HETATM   10  C   UNL     1      -8.808   5.586  68.053  1.00  0.00    -0.105 A  
BRANCH   9  11
HETATM   11  C   UNL     1     -10.051   7.697  68.724  1.00  0.00    -0.202 C  
BRANCH  11  12
HETATM   12  C   UNL     1     -10.599   7.440  70.101  1.00  0.00    -0.240 C  
HETATM   13  C   UNL     1     -11.619   6.613  70.369  1.00  0.00    -0.457 C  
ENDBRANCH  11  12
ENDBRANCH   9  11
ENDBRANCH   2   3
TORSDOF 3
ENDMDL
MODEL      195
REMARK 921   NORMALIZED FREE ENERGY PREDICTED BY IDOCK:   -2.14 KCAL/MOL
REMARK 922        TOTAL FREE ENERGY PREDICTED BY IDOCK:   -2.71 KCAL/MOL
REMARK 923 INTER-LIGAND FREE ENERGY PREDICTED BY IDOCK:   -2.43 KCAL/MOL
REMARK 924 INTRA-LIGAND FREE ENERGY PREDICTED BY IDOCK:   -0.27 KCAL/MOL
REMARK 927      BINDING AFFINITY PREDICTED BY RF-SCORE:    0.00 PKD
ROOT
HETATM    1  C   UNL     1      -8.707  14.037  68.302  1.00  0.00    -0.182 C  
HETATM    2  O   UNL     1      -9.814  13.209  68.642  1.00  0.00    -0.188 OA 
ENDROOT
BRANCH   2   3
HETATM    3  C   UNL     1      -9.775  11.907  68.219  1.00  0.00    -0.200 A  
HETATM    4  C   UNL     1     -10.751  11.237  67.479  1.00  0.00    -0.232 A  
HETATM    5  O   UNL     1     -11.945  11.800  67.125  1.00  0.00    -0.617 OA 
HETATM    6  C   UNL     1     -10.588   9.899  67.126  1.00  0.00    -0.295 A  
HETATM    7  H   UNL     1     -12.609  11.344  66.622  1.00  0.00     0.000 HD 
HETATM    8  C   UNL     1      -9.464   9.195  67.553  1.00  0.00    -0.169 A  
HETATM    9  C   UNL     1      -8.482   9.832  68.321  1.00  0.00    -0.114 A  
HETATM   10  C   UNL     1      -8.650  11.190  68.646  1.00  0.00    -0.151 A  
BRANCH   9  11
HETATM   11  C   UNL     1      -7.282   9.057  68.813  1.00  0.00    -0.075 C  
BRANCH  11  12
HETATM   12  C   UNL     1      -7.664   7.772  69.495  1.00  0.00    -0.105 C  
HETATM   13  C   UNL     1      -8.080   7.682  70.765  1.00  0.00    -0.103 C  
ENDBRANCH  11  12
ENDBRANCH   9  11
ENDBRANCH   2   3
TORSDOF 3
ENDMDL
MODEL      196
REMARK 921   NORMALIZED FREE ENERGY PREDICTED BY IDOCK:   -2.14 KCAL/MOL
REMARK 922        TOTAL FREE ENERGY PREDICTED BY IDOCK:   -2.70 KCAL/MOL
REMARK 923 INTER-LIGAND FREE ENERGY PREDICTED BY IDOCK:   -2.48 KCAL/MOL
REMARK 924 INTRA-LIGAND FREE ENERGY PREDICTED BY IDOCK:   -0.22 KCAL/MOL
REMARK 927      BINDING AFFINITY PREDICTED BY RF-SCORE:    0.00 PKD
ROOT
HETATM    1  C   UNL     1      -9.801   9.727  67.445  1.00  0.00    -0.174 C  
HETATM    2  O   UNL     1      -9.282  10.675  66.518  1.00  0.00    -0.161 OA 
ENDROOT
BRANCH   2   3
HETATM    3  C   UNL     1      -9.508  11.999  66.784  1.00  0.00    -0.208 A  
HETATM    4  C   UNL     1     -10.636  12.743  66.431  1.00  0.00    -0.255 A  
HETATM    5  O   UNL     1     -11.669  12.239  65.691  1.00  0.00    -0.382 OA 
HETATM    6  C   UNL     1     -10.731  14.094  66.755  1.00  0.00    -0.286 A  
HETATM    7  H   UNL     1     -12.436  12.745  65.451  1.00  0.00     0.000 HD 
HETATM    8  C   UNL     1      -9.672  14.737  67.393  1.00  0.00    -0.214 A  
HETATM    9  C   UNL     1      -8.516  14.024  67.733  1.00  0.00    -0.184 A  
HETATM   10  C   UNL     1      -8.448  12.654  67.423  1.00  0.00    -0.186 A  
BRANCH   9  11
HETATM   11  C   UNL     1      -7.355  14.731  68.393  1.00  0.00    -0.116 C  
BRANCH  11  12
HETATM   12  C   UNL     1      -7.083  16.081  67.790  1.00  0.00    -0.163 C  
HETATM   13  C   UNL     1      -5.871  16.648  67.713  1.00  0.00    -0.152 C  
ENDBRANCH  11  12
ENDBRANCH   9  11
ENDBRANCH   2   3
TORSDOF 3
ENDMDL
MODEL      197
REMARK 921   NORMALIZED FREE ENERGY PREDICTED BY IDOCK:   -2.13 KCAL/MOL
REMARK 922        TOTAL FREE ENERGY PREDICTED BY IDOCK:   -2.69 KCAL/MOL
REMARK 923 INTER-LIGAND FREE ENERGY PREDICTED BY IDOCK:   -2.46 KCAL/MOL
REMARK 924 INTRA-LIGAND FREE ENERGY PREDICTED BY IDOCK:   -0.23 KCAL/MOL
REMARK 927      BINDING AFFINITY PREDICTED BY RF-SCORE:    0.00 PKD
ROOT
HETATM    1  C   UNL     1      -9.540   4.591  69.907  1.00  0.00    -0.199 C  
HETATM    2  O   UNL     1     -10.442   5.001  68.884  1.00  0.00    -0.130 OA 
ENDROOT
BRANCH   2   3
HETATM    3  C   UNL     1      -9.900   5.367  67.682  1.00  0.00    -0.150 A  
HETATM    4  C   UNL     1      -9.572   4.523  66.619  1.00  0.00    -0.190 A  
HETATM    5  O   UNL     1      -9.697   3.163  66.673  1.00  0.00    -0.412 OA 
HETATM    6  C   UNL     1      -9.009   5.030  65.450  1.00  0.00    -0.152 A  
HETATM    7  H   UNL     1      -9.474   2.588  65.950  1.00  0.00     0.000 HD 
HETATM    8  C   UNL     1      -8.717   6.389  65.346  1.00  0.00    -0.033 A  
HETATM    9  C   UNL     1      -9.007   7.255  66.406  1.00  0.00    -0.184 A  
HETATM   10  C   UNL     1      -9.600   6.731  67.569  1.00  0.00    -0.146 A  
BRANCH   9  11
HETATM   11  C   UNL     1      -8.657   8.722  66.305  1.00  0.00    -0.144 C  
BRANCH  11  12
HETATM   12  C   UNL     1      -9.808   9.558  65.817  1.00  0.00    -0.363 C  
HETATM   13  C   UNL     1      -9.877  10.121  64.603  1.00  0.00    -0.361 C  
ENDBRANCH  11  12
ENDBRANCH   9  11
ENDBRANCH   2   3
TORSDOF 3
ENDMDL
MODEL      198
REMARK 921   NORMALIZED FREE ENERGY PREDICTED BY IDOCK:   -2.10 KCAL/MOL
REMARK 922        TOTAL FREE ENERGY PREDICTED BY IDOCK:   -2.65 KCAL/MOL
REMARK 923 INTER-LIGAND FREE ENERGY PREDICTED BY IDOCK:   -2.41 KCAL/MOL
REMARK 924 INTRA-LIGAND FREE ENERGY PREDICTED BY IDOCK:   -0.24 KCAL/MOL
REMARK 927      BINDING AFFINITY PREDICTED BY RF-SCORE:    0.00 PKD
ROOT
HETATM    1  C   UNL     1      -8.439   5.767  67.116  1.00  0.00    -0.107 C  
HETATM    2  O   UNL     1      -9.577   6.583  67.379  1.00  0.00    -0.121 OA 
ENDROOT
BRANCH   2   3
HETATM    3  C   UNL     1      -9.615   7.814  66.780  1.00  0.00    -0.212 A  
HETATM    4  C   UNL     1     -10.374   8.916  67.179  1.00  0.00    -0.281 A  
HETATM    5  O   UNL     1     -11.257   8.884  68.221  1.00  0.00    -0.418 OA 
HETATM    6  C   UNL     1     -10.329  10.112  66.466  1.00  0.00    -0.270 A  
HETATM    7  H   UNL     1     -11.773   9.633  68.493  1.00  0.00     0.000 HD 
HETATM    8  C   UNL     1      -9.559  10.207  65.307  1.00  0.00    -0.338 A  
HETATM    9  C   UNL     1      -8.810   9.109  64.866  1.00  0.00    -0.215 A  
HETATM   10  C   UNL     1      -8.847   7.918  65.614  1.00  0.00    -0.121 A  
BRANCH   9  11
HETATM   11  C   UNL     1      -8.004   9.203  63.591  1.00  0.00    -0.146 C  
BRANCH  11  12
HETATM   12  C   UNL     1      -6.522   9.197  63.844  1.00  0.00    -0.089 C  
HETATM   13  C   UNL     1      -5.907   9.941  64.773  1.00  0.00    -0.096 C  
ENDBRANCH  11  12
ENDBRANCH   9  11
ENDBRANCH   2   3
TORSDOF 3
ENDMDL
MODEL      199
REMARK 921   NORMALIZED FREE ENERGY PREDICTED BY IDOCK:   -2.09 KCAL/MOL
REMARK 922        TOTAL FREE ENERGY PREDICTED BY IDOCK:   -2.65 KCAL/MOL
REMARK 923 INTER-LIGAND FREE ENERGY PREDICTED BY IDOCK:   -2.46 KCAL/MOL
REMARK 924 INTRA-LIGAND FREE ENERGY PREDICTED BY IDOCK:   -0.19 KCAL/MOL
REMARK 927      BINDING AFFINITY PREDICTED BY RF-SCORE:    0.00 PKD
ROOT
HETATM    1  C   UNL     1      -8.777   3.406  68.013  1.00  0.00    -0.108 C  
HETATM    2  O   UNL     1      -9.419   3.154  69.259  1.00  0.00    -0.160 OA 
ENDROOT
BRANCH   2   3
HETATM    3  C   UNL     1      -9.800   4.242  69.997  1.00  0.00    -0.205 A  
HETATM    4  C   UNL     1      -9.966   4.298  71.382  1.00  0.00    -0.168 A  
HETATM    5  O   UNL     1      -9.825   3.213  72.201  1.00  0.00    -0.150 OA 
HETATM    6  C   UNL     1     -10.375   5.475  72.007  1.00  0.00    -0.265 A  
HETATM    7  H   UNL     1      -9.938   3.251  73.143  1.00  0.00     0.000 HD 
HETATM    8  C   UNL     1     -10.674   6.603  71.246  1.00  0.00    -0.269 A  
HETATM    9  C   UNL     1     -10.545   6.569  69.852  1.00  0.00    -0.282 A  
HETATM   10  C   UNL     1     -10.106   5.381  69.240  1.00  0.00    -0.301 A  
BRANCH   9  11
HETATM   11  C   UNL     1     -10.904   7.782  69.026  1.00  0.00    -0.042 C  
BRANCH  11  12
HETATM   12  C   UNL     1      -9.781   8.220  68.126  1.00  0.00    -0.178 C  
HETATM   13  C   UNL     1      -9.947   8.715  66.892  1.00  0.00    -0.330 C  
ENDBRANCH  11  12
ENDBRANCH   9  11
ENDBRANCH   2   3
TORSDOF 3
ENDMDL
MODEL      200
REMARK 921   NORMALIZED FREE ENERGY PREDICTED BY IDOCK:   -2.09 KCAL/MOL
REMARK 922        TOTAL FREE ENERGY PREDICTED BY IDOCK:   -2.64 KCAL/MOL
REMARK 923 INTER-LIGAND FREE ENERGY PREDICTED BY IDOCK:   -2.36 KCAL/MOL
REMARK 924 INTRA-LIGAND FREE ENERGY PREDICTED BY IDOCK:   -0.28 KCAL/MOL
REMARK 927      BINDING AFFINITY PREDICTED BY RF-SCORE:    0.00 PKD
ROOT
HETATM    1  C   UNL     1     -11.238   6.497  69.607  1.00  0.00    -0.384 C  
HETATM    2  O   UNL     1     -10.098   7.329  69.419  1.00  0.00    -0.174 OA 
ENDROOT
BRANCH   2   3
HETATM    3  C   UNL     1      -9.631   7.470  68.139  1.00  0.00    -0.148 A  
HETATM    4  C   UNL     1      -8.728   6.634  67.480  1.00  0.00    -0.118 A  
HETATM    5  O   UNL     1      -8.123   5.563  68.074  1.00  0.00    -0.096 OA 
HETATM    6  C   UNL     1      -8.325   6.905  66.174  1.00  0.00    -0.130 A  
HETATM    7  H   UNL     1      -7.508   4.994  67.626  1.00  0.00     0.000 HD 
HETATM    8  C   UNL     1      -8.783   8.049  65.523  1.00  0.00    -0.134 A  
HETATM    9  C   UNL     1      -9.667   8.922  66.170  1.00  0.00    -0.338 A  
HETATM   10  C   UNL     1     -10.084   8.619  67.478  1.00  0.00    -0.277 A  
BRANCH   9  11
HETATM   11  C   UNL     1     -10.134  10.180  65.476  1.00  0.00    -0.338 C  
BRANCH  11  12
HETATM   12  C   UNL     1      -9.662  11.430  66.168  1.00  0.00    -0.248 C  
HETATM   13  C   UNL     1      -8.379  11.804  66.268  1.00  0.00     0.024 C  
ENDBRANCH  11  12
ENDBRANCH   9  11
ENDBRANCH   2   3
TORSDOF 3
ENDMDL
MODEL      201
REMARK 921   NORMALIZED FREE ENERGY PREDICTED BY IDOCK:   -2.06 KCAL/MOL
REMARK 922        TOTAL FREE ENERGY PREDICTED BY IDOCK:   -2.61 KCAL/MOL
REMARK 923 INTER-LIGAND FREE ENERGY PREDICTED BY IDOCK:   -2.41 KCAL/MOL
REMARK 924 INTRA-LIGAND FREE ENERGY PREDICTED BY IDOCK:   -0.20 KCAL/MOL
REMARK 927      BINDING AFFINITY PREDICTED BY RF-SCORE:    0.00 PKD
ROOT
HETATM    1  C   UNL     1     -10.798  17.101  67.711  1.00  0.00    -0.270 C  
HETATM    2  O   UNL     1      -9.989  17.484  68.818  1.00  0.00    -0.315 OA 
ENDROOT
BRANCH   2   3
HETATM    3  C   UNL     1      -8.677  17.094  68.798  1.00  0.00    -0.235 A  
HETATM    4  C   UNL     1      -7.557  17.926  68.729  1.00  0.00    -0.268 A  
HETATM    5  O   UNL     1      -7.635  19.284  68.605  1.00  0.00    -0.323 OA 
HETATM    6  C   UNL     1      -6.270  17.392  68.702  1.00  0.00    -0.175 A  
HETATM    7  H   UNL     1      -6.874  19.850  68.559  1.00  0.00     0.000 HD 
HETATM    8  C   UNL     1      -6.086  16.010  68.690  1.00  0.00    -0.108 A  
HETATM    9  C   UNL     1      -7.191  15.151  68.728  1.00  0.00    -0.127 A  
HETATM   10  C   UNL     1      -8.482  15.707  68.783  1.00  0.00    -0.192 A  
BRANCH   9  11
HETATM   11  C   UNL     1      -6.991  13.654  68.680  1.00  0.00    -0.103 C  
BRANCH  11  12
HETATM   12  C   UNL     1      -7.321  13.071  67.333  1.00  0.00    -0.122 C  
HETATM   13  C   UNL     1      -7.944  11.900  67.145  1.00  0.00    -0.172 C  
ENDBRANCH  11  12
ENDBRANCH   9  11
ENDBRANCH   2   3
TORSDOF 3
ENDMDL
MODEL      202
REMARK 921   NORMALIZED FREE ENERGY PREDICTED BY IDOCK:   -2.03 KCAL/MOL
REMARK 922        TOTAL FREE ENERGY PREDICTED BY IDOCK:   -2.57 KCAL/MOL
REMARK 923 INTER-LIGAND FREE ENERGY PREDICTED BY IDOCK:   -2.38 KCAL/MOL
REMARK 924 INTRA-LIGAND FREE ENERGY PREDICTED BY IDOCK:   -0.19 KCAL/MOL
REMARK 927      BINDING AFFINITY PREDICTED BY RF-SCORE:    0.00 PKD
ROOT
HETATM    1  C   UNL     1     -10.411   5.288  67.765  1.00  0.00    -0.133 C  
HETATM    2  O   UNL     1      -9.327   5.648  66.915  1.00  0.00    -0.120 OA 
ENDROOT
BRANCH   2   3
HETATM    3  C   UNL     1      -9.257   6.955  66.511  1.00  0.00    -0.163 A  
HETATM    4  C   UNL     1      -8.335   7.507  65.619  1.00  0.00    -0.140 A  
HETATM    5  O   UNL     1      -7.307   6.799  65.065  1.00  0.00    -0.073 OA 
HETATM    6  C   UNL     1      -8.370   8.864  65.305  1.00  0.00    -0.168 A  
HETATM    7  H   UNL     1      -6.680   7.175  64.459  1.00  0.00     0.000 HD 
HETATM    8  C   UNL     1      -9.299   9.702  65.919  1.00  0.00    -0.275 A  
HETATM    9  C   UNL     1     -10.217   9.181  66.840  1.00  0.00    -0.336 A  
HETATM   10  C   UNL     1     -10.185   7.804  67.126  1.00  0.00    -0.365 A  
BRANCH   9  11
HETATM   11  C   UNL     1     -11.200  10.097  67.532  1.00  0.00    -0.123 C  
BRANCH  11  12
HETATM   12  C   UNL     1     -11.184   9.936  69.027  1.00  0.00    -0.131 C  
HETATM   13  C   UNL     1     -11.165  10.952  69.900  1.00  0.00    -0.355 C  
ENDBRANCH  11  12
ENDBRANCH   9  11
ENDBRANCH   2   3
TORSDOF 3
ENDMDL
MODEL      203
REMARK 921   NORMALIZED FREE ENERGY PREDICTED BY IDOCK:   -2.02 KCAL/MOL
REMARK 922        TOTAL FREE ENERGY PREDICTED BY IDOCK:   -2.57 KCAL/MOL
REMARK 923 INTER-LIGAND FREE ENERGY PREDICTED BY IDOCK:   -2.79 KCAL/MOL
REMARK 924 INTRA-LIGAND FREE ENERGY PREDICTED BY IDOCK:    0.22 KCAL/MOL
REMARK 927      BINDING AFFINITY PREDICTED BY RF-SCORE:    0.00 PKD
ROOT
HETATM    1  C   UNL     1      -7.533   6.819  69.356  1.00  0.00    -0.094 C  
HETATM    2  O   UNL     1      -8.937   6.787  69.123  1.00  0.00    -0.133 OA 
ENDROOT
BRANCH   2   3
HETATM    3  C   UNL     1      -9.747   6.596  70.211  1.00  0.00    -0.171 A  
HETATM    4  C   UNL     1     -11.143   6.560  70.219  1.00  0.00    -0.335 A  
HETATM    5  O   UNL     1     -11.908   6.782  69.109  1.00  0.00    -0.537 OA 
HETATM    6  C   UNL     1     -11.847   6.372  71.407  1.00  0.00    -0.340 A  
HETATM    7  H   UNL     1     -12.858   6.758  69.114  1.00  0.00     0.000 HD 
HETATM    8  C   UNL     1     -11.162   6.268  72.617  1.00  0.00    -0.302 A  
HETATM    9  C   UNL     1      -9.764   6.330  72.643  1.00  0.00    -0.164 A  
HETATM   10  C   UNL     1      -9.068   6.494  71.431  1.00  0.00    -0.148 A  
BRANCH   9  11
HETATM   11  C   UNL     1      -9.025   6.253  73.959  1.00  0.00    -0.140 C  
BRANCH  11  12
HETATM   12  C   UNL     1      -8.338   7.543  74.312  1.00  0.00    -0.252 C  
HETATM   13  C   UNL     1      -7.619   8.280  73.454  1.00  0.00    -0.176 C  
ENDBRANCH  11  12
ENDBRANCH   9  11
ENDBRANCH   2   3
TORSDOF 3
ENDMDL
MODEL      204
REMARK 921   NORMALIZED FREE ENERGY PREDICTED BY IDOCK:   -2.00 KCAL/MOL
REMARK 922        TOTAL FREE ENERGY PREDICTED BY IDOCK:   -2.54 KCAL/MOL
REMARK 923 INTER-LIGAND FREE ENERGY PREDICTED BY IDOCK:   -2.31 KCAL/MOL
REMARK 924 INTRA-LIGAND FREE ENERGY PREDICTED BY IDOCK:   -0.22 KCAL/MOL
REMARK 927      BINDING AFFINITY PREDICTED BY RF-SCORE:    0.00 PKD
ROOT
HETATM    1  C   UNL     1     -10.209  10.694  67.140  1.00  0.00    -0.216 C  
HETATM    2  O   UNL     1      -8.957  10.768  66.466  1.00  0.00    -0.150 OA 
ENDROOT
BRANCH   2   3
HETATM    3  C   UNL     1      -8.112  11.783  66.827  1.00  0.00    -0.133 A  
HETATM    4  C   UNL     1      -6.748  11.678  67.108  1.00  0.00    -0.142 A  
HETATM    5  O   UNL     1      -6.072  10.490  67.120  1.00  0.00    -0.053 OA 
HETATM    6  C   UNL     1      -6.005  12.797  67.479  1.00  0.00    -0.143 A  
HETATM    7  H   UNL     1      -5.144  10.418  67.311  1.00  0.00     0.000 HD 
HETATM    8  C   UNL     1      -6.630  14.034  67.626  1.00  0.00    -0.175 A  
HETATM    9  C   UNL     1      -8.002  14.164  67.380  1.00  0.00    -0.201 A  
HETATM   10  C   UNL     1      -8.731  13.030  66.980  1.00  0.00    -0.195 A  
BRANCH   9  11
HETATM   11  C   UNL     1      -8.685  15.499  67.574  1.00  0.00    -0.183 C  
BRANCH  11  12
HETATM   12  C   UNL     1      -8.531  16.404  66.383  1.00  0.00    -0.364 C  
HETATM   13  C   UNL     1      -7.543  17.296  66.229  1.00  0.00    -0.360 C  
ENDBRANCH  11  12
ENDBRANCH   9  11
ENDBRANCH   2   3
TORSDOF 3
ENDMDL
MODEL      205
REMARK 921   NORMALIZED FREE ENERGY PREDICTED BY IDOCK:   -1.98 KCAL/MOL
REMARK 922        TOTAL FREE ENERGY PREDICTED BY IDOCK:   -2.52 KCAL/MOL
REMARK 923 INTER-LIGAND FREE ENERGY PREDICTED BY IDOCK:   -2.31 KCAL/MOL
REMARK 924 INTRA-LIGAND FREE ENERGY PREDICTED BY IDOCK:   -0.21 KCAL/MOL
REMARK 927      BINDING AFFINITY PREDICTED BY RF-SCORE:    0.00 PKD
ROOT
HETATM    1  C   UNL     1      -8.151  12.108  67.776  1.00  0.00    -0.152 C  
HETATM    2  O   UNL     1      -9.513  11.725  67.612  1.00  0.00    -0.173 OA 
ENDROOT
BRANCH   2   3
HETATM    3  C   UNL     1      -9.766  10.399  67.380  1.00  0.00    -0.163 A  
HETATM    4  C   UNL     1     -10.710   9.601  68.030  1.00  0.00    -0.232 A  
HETATM    5  O   UNL     1     -11.486  10.044  69.063  1.00  0.00    -0.449 OA 
HETATM    6  C   UNL     1     -10.853   8.254  67.703  1.00  0.00    -0.083 A  
HETATM    7  H   UNL     1     -12.128   9.501  69.505  1.00  0.00     0.000 HD 
HETATM    8  C   UNL     1     -10.016   7.671  66.753  1.00  0.00    -0.317 A  
HETATM    9  C   UNL     1      -9.041   8.440  66.106  1.00  0.00    -0.238 A  
HETATM   10  C   UNL     1      -8.927   9.804  66.429  1.00  0.00    -0.176 A  
BRANCH   9  11
HETATM   11  C   UNL     1      -8.111   7.798  65.103  1.00  0.00    -0.137 C  
BRANCH  11  12
HETATM   12  C   UNL     1      -7.261   8.805  64.377  1.00  0.00    -0.094 C  
HETATM   13  C   UNL     1      -7.356   9.075  63.068  1.00  0.00    -0.095 C  
ENDBRANCH  11  12
ENDBRANCH   9  11
ENDBRANCH   2   3
TORSDOF 3
ENDMDL
MODEL      206
REMARK 921   NORMALIZED FREE ENERGY PREDICTED BY IDOCK:   -1.96 KCAL/MOL
REMARK 922        TOTAL FREE ENERGY PREDICTED BY IDOCK:   -2.50 KCAL/MOL
REMARK 923 INTER-LIGAND FREE ENERGY PREDICTED BY IDOCK:   -2.24 KCAL/MOL
REMARK 924 INTRA-LIGAND FREE ENERGY PREDICTED BY IDOCK:   -0.26 KCAL/MOL
REMARK 927      BINDING AFFINITY PREDICTED BY RF-SCORE:    0.00 PKD
ROOT
HETATM    1  C   UNL     1      -7.006   8.194  71.845  1.00  0.00    -0.079 C  
HETATM    2  O   UNL     1      -8.295   8.762  71.637  1.00  0.00    -0.209 OA 
ENDROOT
BRANCH   2   3
HETATM    3  C   UNL     1      -9.232   7.976  71.022  1.00  0.00    -0.149 A  
HETATM    4  C   UNL     1     -10.007   8.312  69.909  1.00  0.00    -0.190 A  
HETATM    5  O   UNL     1      -9.970   9.540  69.310  1.00  0.00    -0.172 OA 
HETATM    6  C   UNL     1     -10.940   7.417  69.391  1.00  0.00    -0.126 A  
HETATM    7  H   UNL     1     -10.496   9.768  68.554  1.00  0.00     0.000 HD 
HETATM    8  C   UNL     1     -11.149   6.187  70.011  1.00  0.00    -0.462 A  
HETATM    9  C   UNL     1     -10.408   5.834  71.146  1.00  0.00    -0.286 A  
HETATM   10  C   UNL     1      -9.452   6.739  71.640  1.00  0.00    -0.155 A  
BRANCH   9  11
HETATM   11  C   UNL     1     -10.662   4.515  71.838  1.00  0.00     0.025 C  
BRANCH  11  12
HETATM   12  C   UNL     1      -9.560   3.519  71.604  1.00  0.00    -0.228 C  
HETATM   13  C   UNL     1      -9.223   3.027  70.404  1.00  0.00    -0.211 C  
ENDBRANCH  11  12
ENDBRANCH   9  11
ENDBRANCH   2   3
TORSDOF 3
ENDMDL
MODEL      207
REMARK 921   NORMALIZED FREE ENERGY PREDICTED BY IDOCK:   -1.96 KCAL/MOL
REMARK 922        TOTAL FREE ENERGY PREDICTED BY IDOCK:   -2.50 KCAL/MOL
REMARK 923 INTER-LIGAND FREE ENERGY PREDICTED BY IDOCK:   -2.26 KCAL/MOL
REMARK 924 INTRA-LIGAND FREE ENERGY PREDICTED BY IDOCK:   -0.23 KCAL/MOL
REMARK 927      BINDING AFFINITY PREDICTED BY RF-SCORE:    0.00 PKD
ROOT
HETATM    1  C   UNL     1      -8.014  12.431  67.880  1.00  0.00    -0.155 C  
HETATM    2  O   UNL     1      -9.294  11.928  67.509  1.00  0.00    -0.171 OA 
ENDROOT
BRANCH   2   3
HETATM    3  C   UNL     1      -9.474  10.573  67.569  1.00  0.00    -0.149 A  
HETATM    4  C   UNL     1      -9.387   9.668  66.509  1.00  0.00    -0.165 A  
HETATM    5  O   UNL     1      -9.165  10.046  65.215  1.00  0.00    -0.183 OA 
HETATM    6  C   UNL     1      -9.610   8.308  66.709  1.00  0.00    -0.288 A  
HETATM    7  H   UNL     1      -9.106   9.431  64.493  1.00  0.00     0.000 HD 
HETATM    8  C   UNL     1      -9.974   7.836  67.969  1.00  0.00    -0.210 A  
HETATM    9  C   UNL     1     -10.098   8.723  69.045  1.00  0.00    -0.206 A  
HETATM   10  C   UNL     1      -9.844  10.090  68.831  1.00  0.00    -0.187 A  
BRANCH   9  11
HETATM   11  C   UNL     1     -10.528   8.215  70.402  1.00  0.00    -0.217 C  
BRANCH  11  12
HETATM   12  C   UNL     1      -9.460   7.399  71.078  1.00  0.00    -0.157 C  
HETATM   13  C   UNL     1      -9.570   6.096  71.368  1.00  0.00    -0.177 C  
ENDBRANCH  11  12
ENDBRANCH   9  11
ENDBRANCH   2   3
TORSDOF 3
ENDMDL
MODEL      208
REMARK 921   NORMALIZED FREE ENERGY PREDICTED BY IDOCK:   -1.96 KCAL/MOL
REMARK 922        TOTAL FREE ENERGY PREDICTED BY IDOCK:   -2.50 KCAL/MOL
REMARK 923 INTER-LIGAND FREE ENERGY PREDICTED BY IDOCK:   -2.31 KCAL/MOL
REMARK 924 INTRA-LIGAND FREE ENERGY PREDICTED BY IDOCK:   -0.18 KCAL/MOL
REMARK 927      BINDING AFFINITY PREDICTED BY RF-SCORE:    0.00 PKD
ROOT
HETATM    1  C   UNL     1      -8.731   7.237  72.692  1.00  0.00    -0.122 C  
HETATM    2  O   UNL     1     -10.066   7.051  72.233  1.00  0.00    -0.176 OA 
ENDROOT
BRANCH   2   3
HETATM    3  C   UNL     1     -10.231   6.658  70.932  1.00  0.00    -0.196 A  
HETATM    4  C   UNL     1     -11.359   6.858  70.133  1.00  0.00    -0.314 A  
HETATM    5  O   UNL     1     -12.510   7.437  70.588  1.00  0.00    -0.552 OA 
HETATM    6  C   UNL     1     -11.399   6.391  68.821  1.00  0.00    -0.252 A  
HETATM    7  H   UNL     1     -13.277   7.573  70.046  1.00  0.00     0.000 HD 
HETATM    8  C   UNL     1     -10.325   5.669  68.303  1.00  0.00    -0.253 A  
HETATM    9  C   UNL     1      -9.192   5.428  69.089  1.00  0.00    -0.147 A  
HETATM   10  C   UNL     1      -9.158   5.929  70.403  1.00  0.00    -0.157 A  
BRANCH   9  11
HETATM   11  C   UNL     1      -8.044   4.614  68.537  1.00  0.00    -0.083 C  
BRANCH  11  12
HETATM   12  C   UNL     1      -6.708   5.258  68.788  1.00  0.00    -0.050 C  
HETATM   13  C   UNL     1      -5.542   4.599  68.816  1.00  0.00    -0.012 C  
ENDBRANCH  11  12
ENDBRANCH   9  11
ENDBRANCH   2   3
TORSDOF 3
ENDMDL
MODEL      209
REMARK 921   NORMALIZED FREE ENERGY PREDICTED BY IDOCK:   -1.95 KCAL/MOL
REMARK 922        TOTAL FREE ENERGY PREDICTED BY IDOCK:   -2.48 KCAL/MOL
REMARK 923 INTER-LIGAND FREE ENERGY PREDICTED BY IDOCK:   -2.41 KCAL/MOL
REMARK 924 INTRA-LIGAND FREE ENERGY PREDICTED BY IDOCK:   -0.08 KCAL/MOL
REMARK 927      BINDING AFFINITY PREDICTED BY RF-SCORE:    0.00 PKD
ROOT
HETATM    1  C   UNL     1      -6.182   9.654  67.360  1.00  0.00    -0.064 C  
HETATM    2  O   UNL     1      -6.724   8.653  66.504  1.00  0.00    -0.068 OA 
ENDROOT
BRANCH   2   3
HETATM    3  C   UNL     1      -8.017   8.267  66.734  1.00  0.00    -0.099 A  
HETATM    4  C   UNL     1      -8.576   7.014  66.475  1.00  0.00    -0.129 A  
HETATM    5  O   UNL     1      -7.892   5.995  65.875  1.00  0.00    -0.100 OA 
HETATM    6  C   UNL     1      -9.919   6.760  66.746  1.00  0.00    -0.242 A  
HETATM    7  H   UNL     1      -8.271   5.143  65.698  1.00  0.00     0.000 HD 
HETATM    8  C   UNL     1     -10.738   7.775  67.236  1.00  0.00    -0.326 A  
HETATM    9  C   UNL     1     -10.213   9.050  67.479  1.00  0.00    -0.302 A  
HETATM   10  C   UNL     1      -8.849   9.282  67.224  1.00  0.00    -0.132 A  
BRANCH   9  11
HETATM   11  C   UNL     1     -11.111  10.159  67.976  1.00  0.00    -0.302 C  
BRANCH  11  12
HETATM   12  C   UNL     1     -11.039  10.334  69.468  1.00  0.00    -0.310 C  
HETATM   13  C   UNL     1     -10.264   9.605  70.282  1.00  0.00    -0.333 C  
ENDBRANCH  11  12
ENDBRANCH   9  11
ENDBRANCH   2   3
TORSDOF 3
ENDMDL
MODEL      210
REMARK 921   NORMALIZED FREE ENERGY PREDICTED BY IDOCK:   -1.94 KCAL/MOL
REMARK 922        TOTAL FREE ENERGY PREDICTED BY IDOCK:   -2.47 KCAL/MOL
REMARK 923 INTER-LIGAND FREE ENERGY PREDICTED BY IDOCK:   -2.51 KCAL/MOL
REMARK 924 INTRA-LIGAND FREE ENERGY PREDICTED BY IDOCK:    0.04 KCAL/MOL
REMARK 927      BINDING AFFINITY PREDICTED BY RF-SCORE:    0.00 PKD
ROOT
HETATM    1  C   UNL     1     -11.489   4.642  72.955  1.00  0.00    -0.162 C  
HETATM    2  O   UNL     1     -11.507   5.740  72.050  1.00  0.00    -0.266 OA 
ENDROOT
BRANCH   2   3
HETATM    3  C   UNL     1     -10.333   6.046  71.415  1.00  0.00    -0.220 A  
HETATM    4  C   UNL     1      -9.306   6.860  71.899  1.00  0.00    -0.141 A  
HETATM    5  O   UNL     1      -9.376   7.531  73.088  1.00  0.00    -0.165 OA 
HETATM    6  C   UNL     1      -8.165   7.101  71.138  1.00  0.00    -0.112 A  
HETATM    7  H   UNL     1      -8.678   8.085  73.417  1.00  0.00     0.000 HD 
HETATM    8  C   UNL     1      -8.055   6.569  69.854  1.00  0.00    -0.121 A  
HETATM    9  C   UNL     1      -9.081   5.773  69.330  1.00  0.00    -0.138 A  
HETATM   10  C   UNL     1     -10.215   5.519  70.123  1.00  0.00    -0.333 A  
BRANCH   9  11
HETATM   11  C   UNL     1      -8.976   5.228  67.925  1.00  0.00    -0.112 C  
BRANCH  11  12
HETATM   12  C   UNL     1     -10.207   5.504  67.105  1.00  0.00    -0.260 C  
HETATM   13  C   UNL     1     -10.952   6.613  67.205  1.00  0.00    -0.478 C  
ENDBRANCH  11  12
ENDBRANCH   9  11
ENDBRANCH   2   3
TORSDOF 3
ENDMDL
MODEL      211
REMARK 921   NORMALIZED FREE ENERGY PREDICTED BY IDOCK:   -1.94 KCAL/MOL
REMARK 922        TOTAL FREE ENERGY PREDICTED BY IDOCK:   -2.47 KCAL/MOL
REMARK 923 INTER-LIGAND FREE ENERGY PREDICTED BY IDOCK:   -2.27 KCAL/MOL
REMARK 924 INTRA-LIGAND FREE ENERGY PREDICTED BY IDOCK:   -0.20 KCAL/MOL
REMARK 927      BINDING AFFINITY PREDICTED BY RF-SCORE:    0.00 PKD
ROOT
HETATM    1  C   UNL     1     -10.236   7.449  71.917  1.00  0.00    -0.187 C  
HETATM    2  O   UNL     1      -9.508   8.564  71.414  1.00  0.00    -0.173 OA 
ENDROOT
BRANCH   2   3
HETATM    3  C   UNL     1      -9.713   8.905  70.104  1.00  0.00    -0.179 A  
HETATM    4  C   UNL     1     -10.816   9.580  69.577  1.00  0.00    -0.222 A  
HETATM    5  O   UNL     1     -11.902   9.943  70.323  1.00  0.00    -0.350 OA 
HETATM    6  C   UNL     1     -10.904   9.852  68.213  1.00  0.00    -0.275 A  
HETATM    7  H   UNL     1     -12.652  10.402  69.965  1.00  0.00     0.000 HD 
HETATM    8  C   UNL     1      -9.909   9.405  67.345  1.00  0.00    -0.222 A  
HETATM    9  C   UNL     1      -8.806   8.700  67.841  1.00  0.00    -0.137 A  
HETATM   10  C   UNL     1      -8.720   8.457  69.224  1.00  0.00    -0.138 A  
BRANCH   9  11
HETATM   11  C   UNL     1      -7.747   8.185  66.893  1.00  0.00    -0.096 C  
BRANCH  11  12
HETATM   12  C   UNL     1      -8.329   7.635  65.620  1.00  0.00    -0.143 C  
HETATM   13  C   UNL     1      -7.923   7.976  64.390  1.00  0.00    -0.145 C  
ENDBRANCH  11  12
ENDBRANCH   9  11
ENDBRANCH   2   3
TORSDOF 3
ENDMDL
MODEL      212
REMARK 921   NORMALIZED FREE ENERGY PREDICTED BY IDOCK:   -1.93 KCAL/MOL
REMARK 922        TOTAL FREE ENERGY PREDICTED BY IDOCK:   -2.46 KCAL/MOL
REMARK 923 INTER-LIGAND FREE ENERGY PREDICTED BY IDOCK:   -2.23 KCAL/MOL
REMARK 924 INTRA-LIGAND FREE ENERGY PREDICTED BY IDOCK:   -0.23 KCAL/MOL
REMARK 927      BINDING AFFINITY PREDICTED BY RF-SCORE:    0.00 PKD
ROOT
HETATM    1  C   UNL     1     -12.189   4.945  73.048  1.00  0.00     0.334 C  
HETATM    2  O   UNL     1     -12.473   5.991  72.125  1.00  0.00    -0.203 OA 
ENDROOT
BRANCH   2   3
HETATM    3  C   UNL     1     -11.411   6.714  71.652  1.00  0.00    -0.276 A  
HETATM    4  C   UNL     1     -11.072   6.929  70.314  1.00  0.00    -0.297 A  
HETATM    5  O   UNL     1     -11.750   6.370  69.268  1.00  0.00    -0.608 OA 
HETATM    6  C   UNL     1      -9.948   7.678  69.972  1.00  0.00    -0.190 A  
HETATM    7  H   UNL     1     -11.520   6.516  68.358  1.00  0.00     0.000 HD 
HETATM    8  C   UNL     1      -9.113   8.182  70.968  1.00  0.00    -0.176 A  
HETATM    9  C   UNL     1      -9.411   7.958  72.318  1.00  0.00    -0.248 A  
HETATM   10  C   UNL     1     -10.564   7.222  72.646  1.00  0.00    -0.305 A  
BRANCH   9  11
HETATM   11  C   UNL     1      -8.486   8.475  73.395  1.00  0.00    -0.055 C  
BRANCH  11  12
HETATM   12  C   UNL     1      -7.106   7.881  73.304  1.00  0.00    -0.119 C  
HETATM   13  C   UNL     1      -6.001   8.574  72.998  1.00  0.00    -0.085 C  
ENDBRANCH  11  12
ENDBRANCH   9  11
ENDBRANCH   2   3
TORSDOF 3
ENDMDL
MODEL      213
REMARK 921   NORMALIZED FREE ENERGY PREDICTED BY IDOCK:   -1.90 KCAL/MOL
REMARK 922        TOTAL FREE ENERGY PREDICTED BY IDOCK:   -2.43 KCAL/MOL
REMARK 923 INTER-LIGAND FREE ENERGY PREDICTED BY IDOCK:   -3.36 KCAL/MOL
REMARK 924 INTRA-LIGAND FREE ENERGY PREDICTED BY IDOCK:    0.94 KCAL/MOL
REMARK 927      BINDING AFFINITY PREDICTED BY RF-SCORE:    0.00 PKD
ROOT
HETATM    1  C   UNL     1     -11.772   5.611  72.551  1.00  0.00    -0.197 C  
HETATM    2  O   UNL     1     -12.090   6.945  72.168  1.00  0.00    -0.291 OA 
ENDROOT
BRANCH   2   3
HETATM    3  C   UNL     1     -11.083   7.696  71.623  1.00  0.00    -0.239 A  
HETATM    4  C   UNL     1      -9.715   7.575  71.880  1.00  0.00    -0.159 A  
HETATM    5  O   UNL     1      -9.196   6.700  72.791  1.00  0.00    -0.137 OA 
HETATM    6  C   UNL     1      -8.794   8.419  71.263  1.00  0.00    -0.210 A  
HETATM    7  H   UNL     1      -8.266   6.617  72.966  1.00  0.00     0.000 HD 
HETATM    8  C   UNL     1      -9.234   9.435  70.416  1.00  0.00    -0.305 A  
HETATM    9  C   UNL     1     -10.601   9.599  70.163  1.00  0.00    -0.320 A  
HETATM   10  C   UNL     1     -11.515   8.721  70.773  1.00  0.00    -0.309 A  
BRANCH   9  11
HETATM   11  C   UNL     1     -11.078  10.723  69.272  1.00  0.00    -0.312 C  
BRANCH  11  12
HETATM   12  C   UNL     1     -12.068  11.623  69.959  1.00  0.00    -0.395 C  
HETATM   13  C   UNL     1     -12.558  11.414  71.189  1.00  0.00    -0.490 C  
ENDBRANCH  11  12
ENDBRANCH   9  11
ENDBRANCH   2   3
TORSDOF 3
ENDMDL
MODEL      214
REMARK 921   NORMALIZED FREE ENERGY PREDICTED BY IDOCK:   -1.90 KCAL/MOL
REMARK 922        TOTAL FREE ENERGY PREDICTED BY IDOCK:   -2.42 KCAL/MOL
REMARK 923 INTER-LIGAND FREE ENERGY PREDICTED BY IDOCK:   -3.08 KCAL/MOL
REMARK 924 INTRA-LIGAND FREE ENERGY PREDICTED BY IDOCK:    0.65 KCAL/MOL
REMARK 927      BINDING AFFINITY PREDICTED BY RF-SCORE:    0.00 PKD
ROOT
HETATM    1  C   UNL     1     -10.699   8.723  67.224  1.00  0.00    -0.147 C  
HETATM    2  O   UNL     1     -10.929  10.061  67.654  1.00  0.00    -0.290 OA 
ENDROOT
BRANCH   2   3
HETATM    3  C   UNL     1     -11.325  10.240  68.953  1.00  0.00    -0.173 A  
HETATM    4  C   UNL     1     -11.339   9.278  69.965  1.00  0.00    -0.113 A  
HETATM    5  O   UNL     1     -11.005   7.968  69.762  1.00  0.00    -0.350 OA 
HETATM    6  C   UNL     1     -11.783   9.594  71.247  1.00  0.00    -0.458 A  
HETATM    7  H   UNL     1     -11.014   7.314  70.450  1.00  0.00     0.000 HD 
HETATM    8  C   UNL     1     -12.271  10.870  71.523  1.00  0.00    -0.254 A  
HETATM    9  C   UNL     1     -12.297  11.848  70.521  1.00  0.00    -0.372 A  
HETATM   10  C   UNL     1     -11.820  11.519  69.239  1.00  0.00    -0.414 A  
BRANCH   9  11
HETATM   11  C   UNL     1     -12.859  13.220  70.813  1.00  0.00    -0.194 C  
BRANCH  11  12
HETATM   12  C   UNL     1     -11.786  14.234  71.098  1.00  0.00    -0.265 C  
HETATM   13  C   UNL     1     -10.878  14.650  70.204  1.00  0.00    -0.046 C  
ENDBRANCH  11  12
ENDBRANCH   9  11
ENDBRANCH   2   3
TORSDOF 3
ENDMDL
MODEL      215
REMARK 921   NORMALIZED FREE ENERGY PREDICTED BY IDOCK:   -1.89 KCAL/MOL
REMARK 922        TOTAL FREE ENERGY PREDICTED BY IDOCK:   -2.41 KCAL/MOL
REMARK 923 INTER-LIGAND FREE ENERGY PREDICTED BY IDOCK:   -2.20 KCAL/MOL
REMARK 924 INTRA-LIGAND FREE ENERGY PREDICTED BY IDOCK:   -0.21 KCAL/MOL
REMARK 927      BINDING AFFINITY PREDICTED BY RF-SCORE:    0.00 PKD
ROOT
HETATM    1  C   UNL     1     -10.473   9.799  67.404  1.00  0.00    -0.259 C  
HETATM    2  O   UNL     1     -10.405   9.034  66.205  1.00  0.00    -0.212 OA 
ENDROOT
BRANCH   2   3
HETATM    3  C   UNL     1      -9.543   9.469  65.234  1.00  0.00    -0.243 A  
HETATM    4  C   UNL     1      -9.812  10.403  64.231  1.00  0.00    -0.322 A  
HETATM    5  O   UNL     1     -11.038  10.976  64.047  1.00  0.00    -0.439 OA 
HETATM    6  C   UNL     1      -8.840  10.745  63.293  1.00  0.00    -0.185 A  
HETATM    7  H   UNL     1     -11.221  11.611  63.365  1.00  0.00     0.000 HD 
HETATM    8  C   UNL     1      -7.596  10.116  63.313  1.00  0.00    -0.143 A  
HETATM    9  C   UNL     1      -7.307   9.155  64.289  1.00  0.00    -0.104 A  
HETATM   10  C   UNL     1      -8.291   8.841  65.245  1.00  0.00    -0.168 A  
BRANCH   9  11
HETATM   11  C   UNL     1      -5.971   8.449  64.287  1.00  0.00    -0.065 C  
BRANCH  11  12
HETATM   12  C   UNL     1      -5.882   7.380  65.341  1.00  0.00    -0.037 C  
HETATM   13  C   UNL     1      -5.857   6.064  65.088  1.00  0.00    -0.025 C  
ENDBRANCH  11  12
ENDBRANCH   9  11
ENDBRANCH   2   3
TORSDOF 3
ENDMDL
MODEL      216
REMARK 921   NORMALIZED FREE ENERGY PREDICTED BY IDOCK:   -1.86 KCAL/MOL
REMARK 922        TOTAL FREE ENERGY PREDICTED BY IDOCK:   -2.38 KCAL/MOL
REMARK 923 INTER-LIGAND FREE ENERGY PREDICTED BY IDOCK:   -2.19 KCAL/MOL
REMARK 924 INTRA-LIGAND FREE ENERGY PREDICTED BY IDOCK:   -0.19 KCAL/MOL
REMARK 927      BINDING AFFINITY PREDICTED BY RF-SCORE:    0.00 PKD
ROOT
HETATM    1  C   UNL     1      -9.115   9.816  68.666  1.00  0.00    -0.130 C  
HETATM    2  O   UNL     1      -8.375   8.690  69.128  1.00  0.00    -0.116 OA 
ENDROOT
BRANCH   2   3
HETATM    3  C   UNL     1      -9.048   7.503  69.239  1.00  0.00    -0.138 A  
HETATM    4  C   UNL     1      -9.421   6.650  68.198  1.00  0.00    -0.115 A  
HETATM    5  O   UNL     1      -9.209   6.936  66.879  1.00  0.00    -0.134 OA 
HETATM    6  C   UNL     1     -10.120   5.472  68.454  1.00  0.00    -0.234 A  
HETATM    7  H   UNL     1      -9.463   6.357  66.171  1.00  0.00     0.000 HD 
HETATM    8  C   UNL     1     -10.502   5.154  69.756  1.00  0.00    -0.274 A  
HETATM    9  C   UNL     1     -10.168   6.004  70.817  1.00  0.00    -0.258 A  
HETATM   10  C   UNL     1      -9.439   7.176  70.544  1.00  0.00    -0.162 A  
BRANCH   9  11
HETATM   11  C   UNL     1     -10.614   5.675  72.223  1.00  0.00    -0.270 C  
BRANCH  11  12
HETATM   12  C   UNL     1      -9.662   4.749  72.928  1.00  0.00    -0.167 C  
HETATM   13  C   UNL     1      -9.940   3.480  73.257  1.00  0.00    -0.189 C  
ENDBRANCH  11  12
ENDBRANCH   9  11
ENDBRANCH   2   3
TORSDOF 3
ENDMDL
MODEL      217
REMARK 921   NORMALIZED FREE ENERGY PREDICTED BY IDOCK:   -1.86 KCAL/MOL
REMARK 922        TOTAL FREE ENERGY PREDICTED BY IDOCK:   -2.37 KCAL/MOL
REMARK 923 INTER-LIGAND FREE ENERGY PREDICTED BY IDOCK:   -2.16 KCAL/MOL
REMARK 924 INTRA-LIGAND FREE ENERGY PREDICTED BY IDOCK:   -0.21 KCAL/MOL
REMARK 927      BINDING AFFINITY PREDICTED BY RF-SCORE:    0.00 PKD
ROOT
HETATM    1  C   UNL     1      -5.995   9.066  68.470  1.00  0.00    -0.045 C  
HETATM    2  O   UNL     1      -7.248   9.400  67.883  1.00  0.00    -0.081 OA 
ENDROOT
BRANCH   2   3
HETATM    3  C   UNL     1      -8.327   9.489  68.722  1.00  0.00    -0.117 A  
HETATM    4  C   UNL     1      -9.390  10.390  68.627  1.00  0.00    -0.167 A  
HETATM    5  O   UNL     1      -9.457  11.377  67.685  1.00  0.00    -0.158 OA 
HETATM    6  C   UNL     1     -10.422  10.379  69.562  1.00  0.00    -0.274 A  
HETATM    7  H   UNL     1     -10.180  11.990  67.620  1.00  0.00     0.000 HD 
HETATM    8  C   UNL     1     -10.381   9.497  70.641  1.00  0.00    -0.369 A  
HETATM    9  C   UNL     1      -9.313   8.601  70.778  1.00  0.00    -0.231 A  
HETATM   10  C   UNL     1      -8.292   8.608  69.810  1.00  0.00    -0.123 A  
BRANCH   9  11
HETATM   11  C   UNL     1      -9.252   7.671  71.967  1.00  0.00    -0.176 C  
BRANCH  11  12
HETATM   12  C   UNL     1     -10.435   6.745  72.037  1.00  0.00    -0.226 C  
HETATM   13  C   UNL     1     -11.112   6.461  73.158  1.00  0.00    -0.194 C  
ENDBRANCH  11  12
ENDBRANCH   9  11
ENDBRANCH   2   3
TORSDOF 3
ENDMDL
MODEL      218
REMARK 921   NORMALIZED FREE ENERGY PREDICTED BY IDOCK:   -1.85 KCAL/MOL
REMARK 922        TOTAL FREE ENERGY PREDICTED BY IDOCK:   -2.37 KCAL/MOL
REMARK 923 INTER-LIGAND FREE ENERGY PREDICTED BY IDOCK:   -2.17 KCAL/MOL
REMARK 924 INTRA-LIGAND FREE ENERGY PREDICTED BY IDOCK:   -0.20 KCAL/MOL
REMARK 927      BINDING AFFINITY PREDICTED BY RF-SCORE:    0.00 PKD
ROOT
HETATM    1  C   UNL     1     -10.802   5.761  69.699  1.00  0.00    -0.348 C  
HETATM    2  O   UNL     1      -9.973   6.423  70.649  1.00  0.00    -0.182 OA 
ENDROOT
BRANCH   2   3
HETATM    3  C   UNL     1      -9.235   7.486  70.202  1.00  0.00    -0.154 A  
HETATM    4  C   UNL     1      -8.869   8.619  70.933  1.00  0.00    -0.183 A  
HETATM    5  O   UNL     1      -9.272   8.846  72.218  1.00  0.00    -0.376 OA 
HETATM    6  C   UNL     1      -8.123   9.638  70.346  1.00  0.00    -0.198 A  
HETATM    7  H   UNL     1      -9.024   9.617  72.715  1.00  0.00     0.000 HD 
HETATM    8  C   UNL     1      -7.774   9.564  68.999  1.00  0.00    -0.076 A  
HETATM    9  C   UNL     1      -8.152   8.454  68.233  1.00  0.00    -0.120 A  
HETATM   10  C   UNL     1      -8.882   7.421  68.848  1.00  0.00    -0.131 A  
BRANCH   9  11
HETATM   11  C   UNL     1      -7.803   8.391  66.764  1.00  0.00    -0.094 C  
BRANCH  11  12
HETATM   12  C   UNL     1      -8.706   7.466  65.995  1.00  0.00    -0.171 C  
HETATM   13  C   UNL     1      -8.285   6.403  65.296  1.00  0.00    -0.137 C  
ENDBRANCH  11  12
ENDBRANCH   9  11
ENDBRANCH   2   3
TORSDOF 3
ENDMDL
MODEL      219
REMARK 921   NORMALIZED FREE ENERGY PREDICTED BY IDOCK:   -1.85 KCAL/MOL
REMARK 922        TOTAL FREE ENERGY PREDICTED BY IDOCK:   -2.37 KCAL/MOL
REMARK 923 INTER-LIGAND FREE ENERGY PREDICTED BY IDOCK:   -2.11 KCAL/MOL
REMARK 924 INTRA-LIGAND FREE ENERGY PREDICTED BY IDOCK:   -0.25 KCAL/MOL
REMARK 927      BINDING AFFINITY PREDICTED BY RF-SCORE:    0.00 PKD
ROOT
HETATM    1  C   UNL     1     -10.919   6.351  67.224  1.00  0.00    -0.392 C  
HETATM    2  O   UNL     1     -10.774   7.690  66.762  1.00  0.00    -0.318 OA 
ENDROOT
BRANCH   2   3
HETATM    3  C   UNL     1      -9.512   8.221  66.771  1.00  0.00    -0.198 A  
HETATM    4  C   UNL     1      -8.961   9.088  65.825  1.00  0.00    -0.197 A  
HETATM    5  O   UNL     1      -9.618   9.481  64.693  1.00  0.00    -0.435 OA 
HETATM    6  C   UNL     1      -7.651   9.544  65.949  1.00  0.00    -0.100 A  
HETATM    7  H   UNL     1      -9.244  10.071  64.049  1.00  0.00     0.000 HD 
HETATM    8  C   UNL     1      -6.851   9.096  67.000  1.00  0.00    -0.080 A  
HETATM    9  C   UNL     1      -7.366   8.204  67.947  1.00  0.00    -0.096 A  
HETATM   10  C   UNL     1      -8.700   7.774  67.821  1.00  0.00    -0.123 A  
BRANCH   9  11
HETATM   11  C   UNL     1      -6.487   7.692  69.064  1.00  0.00    -0.040 C  
BRANCH  11  12
HETATM   12  C   UNL     1      -6.828   8.305  70.395  1.00  0.00    -0.036 C  
HETATM   13  C   UNL     1      -6.424   9.517  70.797  1.00  0.00    -0.097 C  
ENDBRANCH  11  12
ENDBRANCH   9  11
ENDBRANCH   2   3
TORSDOF 3
ENDMDL
MODEL      220
REMARK 921   NORMALIZED FREE ENERGY PREDICTED BY IDOCK:   -1.82 KCAL/MOL
REMARK 922        TOTAL FREE ENERGY PREDICTED BY IDOCK:   -2.33 KCAL/MOL
REMARK 923 INTER-LIGAND FREE ENERGY PREDICTED BY IDOCK:   -2.10 KCAL/MOL
REMARK 924 INTRA-LIGAND FREE ENERGY PREDICTED BY IDOCK:   -0.23 KCAL/MOL
REMARK 927      BINDING AFFINITY PREDICTED BY RF-SCORE:    0.00 PKD
ROOT
HETATM    1  C   UNL     1     -10.707   6.643  67.309  1.00  0.00    -0.357 C  
HETATM    2  O   UNL     1     -11.012   7.994  66.980  1.00  0.00    -0.191 OA 
ENDROOT
BRANCH   2   3
HETATM    3  C   UNL     1      -9.978   8.781  66.548  1.00  0.00    -0.290 A  
HETATM    4  C   UNL     1      -9.915  10.176  66.584  1.00  0.00    -0.216 A  
HETATM    5  O   UNL     1     -10.945  10.964  67.014  1.00  0.00    -0.273 OA 
HETATM    6  C   UNL     1      -8.801  10.854  66.095  1.00  0.00    -0.195 A  
HETATM    7  H   UNL     1     -10.902  11.913  67.038  1.00  0.00     0.000 HD 
HETATM    8  C   UNL     1      -7.751  10.147  65.512  1.00  0.00    -0.145 A  
HETATM    9  C   UNL     1      -7.798   8.750  65.436  1.00  0.00    -0.100 A  
HETATM   10  C   UNL     1      -8.919   8.079  65.958  1.00  0.00    -0.205 A  
BRANCH   9  11
HETATM   11  C   UNL     1      -6.675   7.987  64.772  1.00  0.00    -0.059 C  
BRANCH  11  12
HETATM   12  C   UNL     1      -5.805   7.263  65.762  1.00  0.00    -0.037 C  
HETATM   13  C   UNL     1      -5.363   7.790  66.912  1.00  0.00    -0.031 C  
ENDBRANCH  11  12
ENDBRANCH   9  11
ENDBRANCH   2   3
TORSDOF 3
ENDMDL
MODEL      221
REMARK 921   NORMALIZED FREE ENERGY PREDICTED BY IDOCK:   -1.78 KCAL/MOL
REMARK 922        TOTAL FREE ENERGY PREDICTED BY IDOCK:   -2.29 KCAL/MOL
REMARK 923 INTER-LIGAND FREE ENERGY PREDICTED BY IDOCK:   -2.08 KCAL/MOL
REMARK 924 INTRA-LIGAND FREE ENERGY PREDICTED BY IDOCK:   -0.21 KCAL/MOL
REMARK 927      BINDING AFFINITY PREDICTED BY RF-SCORE:    0.00 PKD
ROOT
HETATM    1  C   UNL     1      -9.231   8.698  69.096  1.00  0.00    -0.152 C  
HETATM    2  O   UNL     1      -9.072   9.747  68.146  1.00  0.00    -0.126 OA 
ENDROOT
BRANCH   2   3
HETATM    3  C   UNL     1      -8.635   9.399  66.897  1.00  0.00    -0.127 A  
HETATM    4  C   UNL     1      -8.212  10.264  65.885  1.00  0.00    -0.148 A  
HETATM    5  O   UNL     1      -8.244  11.625  65.999  1.00  0.00    -0.374 OA 
HETATM    6  C   UNL     1      -7.804   9.772  64.648  1.00  0.00    -0.136 A  
HETATM    7  H   UNL     1      -7.956  12.214  65.311  1.00  0.00     0.000 HD 
HETATM    8  C   UNL     1      -7.861   8.404  64.384  1.00  0.00    -0.141 A  
HETATM    9  C   UNL     1      -8.308   7.515  65.369  1.00  0.00    -0.129 A  
HETATM   10  C   UNL     1      -8.692   8.026  66.622  1.00  0.00    -0.153 A  
BRANCH   9  11
HETATM   11  C   UNL     1      -8.403   6.037  65.070  1.00  0.00    -0.121 C  
BRANCH  11  12
HETATM   12  C   UNL     1      -9.204   5.290  66.101  1.00  0.00    -0.158 C  
HETATM   13  C   UNL     1     -10.360   4.660  65.853  1.00  0.00    -0.315 C  
ENDBRANCH  11  12
ENDBRANCH   9  11
ENDBRANCH   2   3
TORSDOF 3
ENDMDL
MODEL      222
REMARK 921   NORMALIZED FREE ENERGY PREDICTED BY IDOCK:   -1.77 KCAL/MOL
REMARK 922        TOTAL FREE ENERGY PREDICTED BY IDOCK:   -2.27 KCAL/MOL
REMARK 923 INTER-LIGAND FREE ENERGY PREDICTED BY IDOCK:   -2.09 KCAL/MOL
REMARK 924 INTRA-LIGAND FREE ENERGY PREDICTED BY IDOCK:   -0.18 KCAL/MOL
REMARK 927      BINDING AFFINITY PREDICTED BY RF-SCORE:    0.00 PKD
ROOT
HETATM    1  C   UNL     1      -6.406   5.800  68.774  1.00  0.00    -0.037 C  
HETATM    2  O   UNL     1      -6.956   6.938  68.117  1.00  0.00    -0.074 OA 
ENDROOT
BRANCH   2   3
HETATM    3  C   UNL     1      -8.280   6.883  67.774  1.00  0.00    -0.117 A  
HETATM    4  C   UNL     1      -9.277   7.793  68.132  1.00  0.00    -0.138 A  
HETATM    5  O   UNL     1      -9.059   8.861  68.956  1.00  0.00    -0.136 OA 
HETATM    6  C   UNL     1     -10.595   7.607  67.723  1.00  0.00    -0.265 A  
HETATM    7  H   UNL     1      -9.737   9.480  69.200  1.00  0.00     0.000 HD 
HETATM    8  C   UNL     1     -10.948   6.476  66.989  1.00  0.00    -0.466 A  
HETATM    9  C   UNL     1      -9.975   5.531  66.640  1.00  0.00    -0.213 A  
HETATM   10  C   UNL     1      -8.644   5.748  67.039  1.00  0.00    -0.110 A  
BRANCH   9  11
HETATM   11  C   UNL     1     -10.366   4.288  65.875  1.00  0.00    -0.152 C  
BRANCH  11  12
HETATM   12  C   UNL     1      -9.852   4.295  64.461  1.00  0.00    -0.133 C  
HETATM   13  C   UNL     1     -10.459   3.691  63.430  1.00  0.00    -0.250 C  
ENDBRANCH  11  12
ENDBRANCH   9  11
ENDBRANCH   2   3
TORSDOF 3
ENDMDL
MODEL      223
REMARK 921   NORMALIZED FREE ENERGY PREDICTED BY IDOCK:   -1.74 KCAL/MOL
REMARK 922        TOTAL FREE ENERGY PREDICTED BY IDOCK:   -2.24 KCAL/MOL
REMARK 923 INTER-LIGAND FREE ENERGY PREDICTED BY IDOCK:   -2.13 KCAL/MOL
REMARK 924 INTRA-LIGAND FREE ENERGY PREDICTED BY IDOCK:   -0.11 KCAL/MOL
REMARK 927      BINDING AFFINITY PREDICTED BY RF-SCORE:    0.00 PKD
ROOT
HETATM    1  C   UNL     1      -9.441   8.509  67.933  1.00  0.00    -0.139 C  
HETATM    2  O   UNL     1     -10.322   9.584  68.241  1.00  0.00    -0.189 OA 
ENDROOT
BRANCH   2   3
HETATM    3  C   UNL     1      -9.836  10.855  68.087  1.00  0.00    -0.175 A  
HETATM    4  C   UNL     1     -10.579  12.013  67.850  1.00  0.00    -0.202 A  
HETATM    5  O   UNL     1     -11.934  12.014  67.672  1.00  0.00    -0.547 OA 
HETATM    6  C   UNL     1      -9.951  13.247  67.699  1.00  0.00    -0.229 A  
HETATM    7  H   UNL     1     -12.439  12.802  67.511  1.00  0.00     0.000 HD 
HETATM    8  C   UNL     1      -8.560  13.334  67.731  1.00  0.00    -0.184 A  
HETATM    9  C   UNL     1      -7.787  12.185  67.938  1.00  0.00    -0.147 A  
HETATM   10  C   UNL     1      -8.439  10.951  68.115  1.00  0.00    -0.131 A  
BRANCH   9  11
HETATM   11  C   UNL     1      -6.279  12.274  67.937  1.00  0.00    -0.089 C  
BRANCH  11  12
HETATM   12  C   UNL     1      -5.681  11.931  66.600  1.00  0.00     0.025 C  
HETATM   13  C   UNL     1      -5.719  10.714  66.041  1.00  0.00    -0.122 C  
ENDBRANCH  11  12
ENDBRANCH   9  11
ENDBRANCH   2   3
TORSDOF 3
ENDMDL
MODEL      224
REMARK 921   NORMALIZED FREE ENERGY PREDICTED BY IDOCK:   -1.72 KCAL/MOL
REMARK 922        TOTAL FREE ENERGY PREDICTED BY IDOCK:   -2.22 KCAL/MOL
REMARK 923 INTER-LIGAND FREE ENERGY PREDICTED BY IDOCK:   -2.00 KCAL/MOL
REMARK 924 INTRA-LIGAND FREE ENERGY PREDICTED BY IDOCK:   -0.22 KCAL/MOL
REMARK 927      BINDING AFFINITY PREDICTED BY RF-SCORE:    0.00 PKD
ROOT
HETATM    1  C   UNL     1      -9.469   6.337  69.256  1.00  0.00    -0.134 C  
HETATM    2  O   UNL     1      -9.249   7.620  69.833  1.00  0.00    -0.148 OA 
ENDROOT
BRANCH   2   3
HETATM    3  C   UNL     1      -9.304   8.701  68.993  1.00  0.00    -0.146 A  
HETATM    4  C   UNL     1     -10.358   9.608  68.863  1.00  0.00    -0.203 A  
HETATM    5  O   UNL     1     -11.540   9.489  69.539  1.00  0.00    -0.442 OA 
HETATM    6  C   UNL     1     -10.288  10.660  67.953  1.00  0.00    -0.231 A  
HETATM    7  H   UNL     1     -12.257  10.105  69.450  1.00  0.00     0.000 HD 
HETATM    8  C   UNL     1      -9.178  10.792  67.120  1.00  0.00    -0.160 A  
HETATM    9  C   UNL     1      -8.118   9.881  67.207  1.00  0.00    -0.113 A  
HETATM   10  C   UNL     1      -8.194   8.840  68.150  1.00  0.00    -0.114 A  
BRANCH   9  11
HETATM   11  C   UNL     1      -6.933  10.005  66.279  1.00  0.00    -0.104 C  
BRANCH  11  12
HETATM   12  C   UNL     1      -6.237  11.333  66.405  1.00  0.00    -0.106 C  
HETATM   13  C   UNL     1      -5.900  11.905  67.569  1.00  0.00    -0.099 C  
ENDBRANCH  11  12
ENDBRANCH   9  11
ENDBRANCH   2   3
TORSDOF 3
ENDMDL
MODEL      225
REMARK 921   NORMALIZED FREE ENERGY PREDICTED BY IDOCK:   -1.71 KCAL/MOL
REMARK 922        TOTAL FREE ENERGY PREDICTED BY IDOCK:   -2.20 KCAL/MOL
REMARK 923 INTER-LIGAND FREE ENERGY PREDICTED BY IDOCK:   -2.07 KCAL/MOL
REMARK 924 INTRA-LIGAND FREE ENERGY PREDICTED BY IDOCK:   -0.13 KCAL/MOL
REMARK 927      BINDING AFFINITY PREDICTED BY RF-SCORE:    0.00 PKD
ROOT
HETATM    1  C   UNL     1      -9.243   7.771  70.124  1.00  0.00    -0.153 C  
HETATM    2  O   UNL     1      -8.231   8.492  69.428  1.00  0.00    -0.110 OA 
ENDROOT
BRANCH   2   3
HETATM    3  C   UNL     1      -8.419   8.698  68.088  1.00  0.00    -0.131 A  
HETATM    4  C   UNL     1      -7.748   8.062  67.041  1.00  0.00    -0.100 A  
HETATM    5  O   UNL     1      -6.735   7.165  67.231  1.00  0.00    -0.059 OA 
HETATM    6  C   UNL     1      -8.030   8.379  65.714  1.00  0.00    -0.108 A  
HETATM    7  H   UNL     1      -6.279   6.732  66.519  1.00  0.00     0.000 HD 
HETATM    8  C   UNL     1      -8.954   9.378  65.414  1.00  0.00    -0.251 A  
HETATM    9  C   UNL     1      -9.621  10.054  66.444  1.00  0.00    -0.248 A  
HETATM   10  C   UNL     1      -9.343   9.702  67.777  1.00  0.00    -0.142 A  
BRANCH   9  11
HETATM   11  C   UNL     1     -10.596  11.161  66.118  1.00  0.00    -0.305 C  
BRANCH  11  12
HETATM   12  C   UNL     1     -10.531  12.296  67.103  1.00  0.00    -0.238 C  
HETATM   13  C   UNL     1      -9.473  13.101  67.266  1.00  0.00    -0.225 C  
ENDBRANCH  11  12
ENDBRANCH   9  11
ENDBRANCH   2   3
TORSDOF 3
ENDMDL
MODEL      226
REMARK 921   NORMALIZED FREE ENERGY PREDICTED BY IDOCK:   -1.69 KCAL/MOL
REMARK 922        TOTAL FREE ENERGY PREDICTED BY IDOCK:   -2.18 KCAL/MOL
REMARK 923 INTER-LIGAND FREE ENERGY PREDICTED BY IDOCK:   -1.98 KCAL/MOL
REMARK 924 INTRA-LIGAND FREE ENERGY PREDICTED BY IDOCK:   -0.20 KCAL/MOL
REMARK 927      BINDING AFFINITY PREDICTED BY RF-SCORE:    0.00 PKD
ROOT
HETATM    1  C   UNL     1     -10.014   8.019  68.316  1.00  0.00    -0.185 C  
HETATM    2  O   UNL     1      -8.696   7.974  68.853  1.00  0.00    -0.130 OA 
ENDROOT
BRANCH   2   3
HETATM    3  C   UNL     1      -8.390   6.920  69.671  1.00  0.00    -0.133 A  
HETATM    4  C   UNL     1      -7.176   6.232  69.733  1.00  0.00    -0.074 A  
HETATM    5  O   UNL     1      -6.120   6.494  68.906  1.00  0.00    -0.023 OA 
HETATM    6  C   UNL     1      -7.004   5.162  70.608  1.00  0.00    -0.052 A  
HETATM    7  H   UNL     1      -5.295   6.027  68.947  1.00  0.00     0.000 HD 
HETATM    8  C   UNL     1      -8.065   4.730  71.402  1.00  0.00    -0.102 A  
HETATM    9  C   UNL     1      -9.303   5.381  71.341  1.00  0.00    -0.179 A  
HETATM   10  C   UNL     1      -9.451   6.477  70.471  1.00  0.00    -0.173 A  
BRANCH   9  11
HETATM   11  C   UNL     1     -10.462   4.889  72.175  1.00  0.00    -0.257 C  
BRANCH  11  12
HETATM   12  C   UNL     1     -10.983   5.939  73.117  1.00  0.00    -0.286 C  
HETATM   13  C   UNL     1     -10.214   6.683  73.924  1.00  0.00    -0.379 C  
ENDBRANCH  11  12
ENDBRANCH   9  11
ENDBRANCH   2   3
TORSDOF 3
ENDMDL
MODEL      227
REMARK 921   NORMALIZED FREE ENERGY PREDICTED BY IDOCK:   -1.69 KCAL/MOL
REMARK 922        TOTAL FREE ENERGY PREDICTED BY IDOCK:   -2.18 KCAL/MOL
REMARK 923 INTER-LIGAND FREE ENERGY PREDICTED BY IDOCK:   -1.92 KCAL/MOL
REMARK 924 INTRA-LIGAND FREE ENERGY PREDICTED BY IDOCK:   -0.26 KCAL/MOL
REMARK 927      BINDING AFFINITY PREDICTED BY RF-SCORE:    0.00 PKD
ROOT
HETATM    1  C   UNL     1      -9.374   1.668  68.178  1.00  0.00    -0.187 C  
HETATM    2  O   UNL     1      -9.384   1.662  69.601  1.00  0.00    -0.098 OA 
ENDROOT
BRANCH   2   3
HETATM    3  C   UNL     1      -8.880   2.766  70.235  1.00  0.00    -0.085 A  
HETATM    4  C   UNL     1      -7.559   2.969  70.639  1.00  0.00    -0.040 A  
HETATM    5  O   UNL     1      -6.577   2.028  70.504  1.00  0.00    -0.027 OA 
HETATM    6  C   UNL     1      -7.183   4.142  71.291  1.00  0.00    -0.040 A  
HETATM    7  H   UNL     1      -5.679   2.167  70.778  1.00  0.00     0.000 HD 
HETATM    8  C   UNL     1      -8.138   5.110  71.596  1.00  0.00    -0.115 A  
HETATM    9  C   UNL     1      -9.476   4.921  71.230  1.00  0.00    -0.214 A  
HETATM   10  C   UNL     1      -9.833   3.743  70.548  1.00  0.00    -0.147 A  
BRANCH   9  11
HETATM   11  C   UNL     1     -10.516   5.955  71.593  1.00  0.00    -0.285 C  
BRANCH  11  12
HETATM   12  C   UNL     1     -11.319   6.407  70.404  1.00  0.00    -0.453 C  
HETATM   13  C   UNL     1     -10.836   7.150  69.399  1.00  0.00    -0.225 C  
ENDBRANCH  11  12
ENDBRANCH   9  11
ENDBRANCH   2   3
TORSDOF 3
ENDMDL
MODEL      228
REMARK 921   NORMALIZED FREE ENERGY PREDICTED BY IDOCK:   -1.66 KCAL/MOL
REMARK 922        TOTAL FREE ENERGY PREDICTED BY IDOCK:   -2.14 KCAL/MOL
REMARK 923 INTER-LIGAND FREE ENERGY PREDICTED BY IDOCK:   -2.01 KCAL/MOL
REMARK 924 INTRA-LIGAND FREE ENERGY PREDICTED BY IDOCK:   -0.13 KCAL/MOL
REMARK 927      BINDING AFFINITY PREDICTED BY RF-SCORE:    0.00 PKD
ROOT
HETATM    1  C   UNL     1     -10.269   8.582  66.751  1.00  0.00    -0.300 C  
HETATM    2  O   UNL     1     -10.856   8.388  68.033  1.00  0.00    -0.101 OA 
ENDROOT
BRANCH   2   3
HETATM    3  C   UNL     1     -10.204   7.551  68.899  1.00  0.00    -0.208 A  
HETATM    4  C   UNL     1      -9.990   6.181  68.739  1.00  0.00    -0.145 A  
HETATM    5  O   UNL     1     -10.480   5.461  67.686  1.00  0.00    -0.196 OA 
HETATM    6  C   UNL     1      -9.318   5.443  69.711  1.00  0.00    -0.186 A  
HETATM    7  H   UNL     1     -10.335   4.529  67.576  1.00  0.00     0.000 HD 
HETATM    8  C   UNL     1      -8.894   6.058  70.888  1.00  0.00    -0.136 A  
HETATM    9  C   UNL     1      -9.120   7.425  71.090  1.00  0.00    -0.148 A  
HETATM   10  C   UNL     1      -9.776   8.160  70.086  1.00  0.00    -0.175 A  
BRANCH   9  11
HETATM   11  C   UNL     1      -8.691   8.082  72.381  1.00  0.00    -0.224 C  
BRANCH  11  12
HETATM   12  C   UNL     1      -7.805   7.196  73.213  1.00  0.00    -0.111 C  
HETATM   13  C   UNL     1      -6.623   7.568  73.723  1.00  0.00    -0.081 C  
ENDBRANCH  11  12
ENDBRANCH   9  11
ENDBRANCH   2   3
TORSDOF 3
ENDMDL
MODEL      229
REMARK 921   NORMALIZED FREE ENERGY PREDICTED BY IDOCK:   -1.66 KCAL/MOL
REMARK 922        TOTAL FREE ENERGY PREDICTED BY IDOCK:   -2.14 KCAL/MOL
REMARK 923 INTER-LIGAND FREE ENERGY PREDICTED BY IDOCK:   -1.94 KCAL/MOL
REMARK 924 INTRA-LIGAND FREE ENERGY PREDICTED BY IDOCK:   -0.20 KCAL/MOL
REMARK 927      BINDING AFFINITY PREDICTED BY RF-SCORE:    0.00 PKD
ROOT
HETATM    1  C   UNL     1     -10.564   9.244  67.765  1.00  0.00    -0.246 C  
HETATM    2  O   UNL     1     -10.525   7.988  68.435  1.00  0.00    -0.206 OA 
ENDROOT
BRANCH   2   3
HETATM    3  C   UNL     1      -9.644   7.054  67.961  1.00  0.00    -0.128 A  
HETATM    4  C   UNL     1      -9.869   6.135  66.934  1.00  0.00    -0.159 A  
HETATM    5  O   UNL     1     -11.067   6.006  66.289  1.00  0.00    -0.692 OA 
HETATM    6  C   UNL     1      -8.882   5.225  66.560  1.00  0.00    -0.116 A  
HETATM    7  H   UNL     1     -11.220   5.381  65.591  1.00  0.00     0.000 HD 
HETATM    8  C   UNL     1      -7.669   5.186  67.245  1.00  0.00    -0.092 A  
HETATM    9  C   UNL     1      -7.426   6.076  68.299  1.00  0.00    -0.086 A  
HETATM   10  C   UNL     1      -8.423   7.006  68.646  1.00  0.00    -0.121 A  
BRANCH   9  11
HETATM   11  C   UNL     1      -6.125   6.008  69.064  1.00  0.00    -0.032 C  
BRANCH  11  12
HETATM   12  C   UNL     1      -6.276   6.433  70.499  1.00  0.00    -0.039 C  
HETATM   13  C   UNL     1      -5.257   6.605  71.351  1.00  0.00    -0.026 C  
ENDBRANCH  11  12
ENDBRANCH   9  11
ENDBRANCH   2   3
TORSDOF 3
ENDMDL
MODEL      230
REMARK 921   NORMALIZED FREE ENERGY PREDICTED BY IDOCK:   -1.63 KCAL/MOL
REMARK 922        TOTAL FREE ENERGY PREDICTED BY IDOCK:   -2.11 KCAL/MOL
REMARK 923 INTER-LIGAND FREE ENERGY PREDICTED BY IDOCK:   -1.93 KCAL/MOL
REMARK 924 INTRA-LIGAND FREE ENERGY PREDICTED BY IDOCK:   -0.18 KCAL/MOL
REMARK 927      BINDING AFFINITY PREDICTED BY RF-SCORE:    0.00 PKD
ROOT
HETATM    1  C   UNL     1     -10.090   9.081  69.317  1.00  0.00    -0.195 C  
HETATM    2  O   UNL     1      -8.877   8.340  69.405  1.00  0.00    -0.143 OA 
ENDROOT
BRANCH   2   3
HETATM    3  C   UNL     1      -8.767   7.440  70.430  1.00  0.00    -0.145 A  
HETATM    4  C   UNL     1      -8.615   7.731  71.788  1.00  0.00    -0.116 A  
HETATM    5  O   UNL     1      -8.487   9.002  72.274  1.00  0.00    -0.356 OA 
HETATM    6  C   UNL     1      -8.500   6.711  72.730  1.00  0.00    -0.122 A  
HETATM    7  H   UNL     1      -8.383   9.200  73.197  1.00  0.00     0.000 HD 
HETATM    8  C   UNL     1      -8.484   5.379  72.320  1.00  0.00    -0.122 A  
HETATM    9  C   UNL     1      -8.606   5.057  70.963  1.00  0.00    -0.130 A  
HETATM   10  C   UNL     1      -8.748   6.099  70.028  1.00  0.00    -0.137 A  
BRANCH   9  11
HETATM   11  C   UNL     1      -8.553   3.614  70.518  1.00  0.00    -0.112 C  
BRANCH  11  12
HETATM   12  C   UNL     1      -9.736   2.818  70.998  1.00  0.00    -0.160 C  
HETATM   13  C   UNL     1      -9.660   1.776  71.836  1.00  0.00    -0.187 C  
ENDBRANCH  11  12
ENDBRANCH   9  11
ENDBRANCH   2   3
TORSDOF 3
ENDMDL
MODEL      231
REMARK 921   NORMALIZED FREE ENERGY PREDICTED BY IDOCK:   -1.61 KCAL/MOL
REMARK 922        TOTAL FREE ENERGY PREDICTED BY IDOCK:   -2.09 KCAL/MOL
REMARK 923 INTER-LIGAND FREE ENERGY PREDICTED BY IDOCK:   -1.86 KCAL/MOL
REMARK 924 INTRA-LIGAND FREE ENERGY PREDICTED BY IDOCK:   -0.23 KCAL/MOL
REMARK 927      BINDING AFFINITY PREDICTED BY RF-SCORE:    0.00 PKD
ROOT
HETATM    1  C   UNL     1      -9.713   7.940  70.268  1.00  0.00    -0.183 C  
HETATM    2  O   UNL     1      -8.541   8.266  69.527  1.00  0.00    -0.131 OA 
ENDROOT
BRANCH   2   3
HETATM    3  C   UNL     1      -8.470   7.810  68.238  1.00  0.00    -0.124 A  
HETATM    4  C   UNL     1      -7.760   8.388  67.183  1.00  0.00    -0.097 A  
HETATM    5  O   UNL     1      -7.073   9.563  67.294  1.00  0.00    -0.084 OA 
HETATM    6  C   UNL     1      -7.786   7.823  65.910  1.00  0.00    -0.094 A  
HETATM    7  H   UNL     1      -6.590   9.956  66.577  1.00  0.00     0.000 HD 
HETATM    8  C   UNL     1      -8.566   6.695  65.660  1.00  0.00    -0.130 A  
HETATM    9  C   UNL     1      -9.311   6.111  66.691  1.00  0.00    -0.161 A  
HETATM   10  C   UNL     1      -9.253   6.679  67.977  1.00  0.00    -0.112 A  
BRANCH   9  11
HETATM   11  C   UNL     1     -10.185   4.910  66.410  1.00  0.00    -0.313 C  
BRANCH  11  12
HETATM   12  C   UNL     1      -9.441   3.610  66.550  1.00  0.00    -0.188 C  
HETATM   13  C   UNL     1      -9.224   2.981  67.713  1.00  0.00    -0.244 C  
ENDBRANCH  11  12
ENDBRANCH   9  11
ENDBRANCH   2   3
TORSDOF 3
ENDMDL
MODEL      232
REMARK 921   NORMALIZED FREE ENERGY PREDICTED BY IDOCK:   -1.61 KCAL/MOL
REMARK 922        TOTAL FREE ENERGY PREDICTED BY IDOCK:   -2.08 KCAL/MOL
REMARK 923 INTER-LIGAND FREE ENERGY PREDICTED BY IDOCK:   -2.63 KCAL/MOL
REMARK 924 INTRA-LIGAND FREE ENERGY PREDICTED BY IDOCK:    0.55 KCAL/MOL
REMARK 927      BINDING AFFINITY PREDICTED BY RF-SCORE:    0.00 PKD
ROOT
HETATM    1  C   UNL     1      -9.454   7.520  69.357  1.00  0.00    -0.155 C  
HETATM    2  O   UNL     1      -9.030   8.857  69.602  1.00  0.00    -0.140 OA 
ENDROOT
BRANCH   2   3
HETATM    3  C   UNL     1      -9.441   9.816  68.716  1.00  0.00    -0.154 A  
HETATM    4  C   UNL     1     -10.307   9.641  67.634  1.00  0.00    -0.237 A  
HETATM    5  O   UNL     1     -10.823   8.428  67.272  1.00  0.00    -0.461 OA 
HETATM    6  C   UNL     1     -10.632  10.707  66.798  1.00  0.00    -0.297 A  
HETATM    7  H   UNL     1     -11.411   8.309  66.537  1.00  0.00     0.000 HD 
HETATM    8  C   UNL     1     -10.053  11.958  67.002  1.00  0.00    -0.226 A  
HETATM    9  C   UNL     1      -9.159  12.157  68.061  1.00  0.00    -0.190 A  
HETATM   10  C   UNL     1      -8.862  11.076  68.911  1.00  0.00    -0.120 A  
BRANCH   9  11
HETATM   11  C   UNL     1      -8.505  13.505  68.259  1.00  0.00    -0.168 C  
BRANCH  11  12
HETATM   12  C   UNL     1      -9.505  14.625  68.344  1.00  0.00    -0.209 C  
HETATM   13  C   UNL     1      -9.591  15.491  69.362  1.00  0.00    -0.279 C  
ENDBRANCH  11  12
ENDBRANCH   9  11
ENDBRANCH   2   3
TORSDOF 3
ENDMDL
MODEL      233
REMARK 921   NORMALIZED FREE ENERGY PREDICTED BY IDOCK:   -1.61 KCAL/MOL
REMARK 922        TOTAL FREE ENERGY PREDICTED BY IDOCK:   -2.08 KCAL/MOL
REMARK 923 INTER-LIGAND FREE ENERGY PREDICTED BY IDOCK:   -1.99 KCAL/MOL
REMARK 924 INTRA-LIGAND FREE ENERGY PREDICTED BY IDOCK:   -0.09 KCAL/MOL
REMARK 927      BINDING AFFINITY PREDICTED BY RF-SCORE:    0.00 PKD
ROOT
HETATM    1  C   UNL     1     -12.857   5.890  72.495  1.00  0.00     0.520 C  
HETATM    2  O   UNL     1     -12.794   7.172  71.880  1.00  0.00    -0.318 OA 
ENDROOT
BRANCH   2   3
HETATM    3  C   UNL     1     -11.618   7.514  71.266  1.00  0.00    -0.281 A  
HETATM    4  C   UNL     1     -11.355   8.685  70.552  1.00  0.00    -0.218 A  
HETATM    5  O   UNL     1     -12.296   9.646  70.312  1.00  0.00    -0.475 OA 
HETATM    6  C   UNL     1     -10.111   8.899  69.963  1.00  0.00    -0.207 A  
HETATM    7  H   UNL     1     -12.117  10.443  69.827  1.00  0.00     0.000 HD 
HETATM    8  C   UNL     1      -9.123   7.918  70.037  1.00  0.00    -0.152 A  
HETATM    9  C   UNL     1      -9.368   6.722  70.722  1.00  0.00    -0.161 A  
HETATM   10  C   UNL     1     -10.621   6.533  71.333  1.00  0.00    -0.266 A  
BRANCH   9  11
HETATM   11  C   UNL     1      -8.308   5.645  70.770  1.00  0.00    -0.123 C  
BRANCH  11  12
HETATM   12  C   UNL     1      -8.561   4.542  69.779  1.00  0.00    -0.095 C  
HETATM   13  C   UNL     1      -9.428   4.621  68.760  1.00  0.00    -0.214 C  
ENDBRANCH  11  12
ENDBRANCH   9  11
ENDBRANCH   2   3
TORSDOF 3
ENDMDL
MODEL      234
REMARK 921   NORMALIZED FREE ENERGY PREDICTED BY IDOCK:   -1.58 KCAL/MOL
REMARK 922        TOTAL FREE ENERGY PREDICTED BY IDOCK:   -2.05 KCAL/MOL
REMARK 923 INTER-LIGAND FREE ENERGY PREDICTED BY IDOCK:   -1.99 KCAL/MOL
REMARK 924 INTRA-LIGAND FREE ENERGY PREDICTED BY IDOCK:   -0.06 KCAL/MOL
REMARK 927      BINDING AFFINITY PREDICTED BY RF-SCORE:    0.00 PKD
ROOT
HETATM    1  C   UNL     1      -9.507   6.446  71.987  1.00  0.00    -0.151 C  
HETATM    2  O   UNL     1      -8.813   7.378  71.164  1.00  0.00    -0.140 OA 
ENDROOT
BRANCH   2   3
HETATM    3  C   UNL     1      -9.099   7.364  69.825  1.00  0.00    -0.141 A  
HETATM    4  C   UNL     1     -10.339   7.611  69.231  1.00  0.00    -0.217 A  
HETATM    5  O   UNL     1     -11.481   7.844  69.944  1.00  0.00    -0.461 OA 
HETATM    6  C   UNL     1     -10.494   7.549  67.848  1.00  0.00    -0.266 A  
HETATM    7  H   UNL     1     -12.324   8.012  69.540  1.00  0.00     0.000 HD 
HETATM    8  C   UNL     1      -9.418   7.188  67.039  1.00  0.00    -0.192 A  
HETATM    9  C   UNL     1      -8.171   6.906  67.608  1.00  0.00    -0.117 A  
HETATM   10  C   UNL     1      -8.025   6.999  69.004  1.00  0.00    -0.116 A  
BRANCH   9  11
HETATM   11  C   UNL     1      -7.015   6.480  66.732  1.00  0.00    -0.067 C  
BRANCH  11  12
HETATM   12  C   UNL     1      -7.405   5.420  65.739  1.00  0.00    -0.073 C  
HETATM   13  C   UNL     1      -7.066   5.433  64.443  1.00  0.00    -0.050 C  
ENDBRANCH  11  12
ENDBRANCH   9  11
ENDBRANCH   2   3
TORSDOF 3
ENDMDL
MODEL      235
REMARK 921   NORMALIZED FREE ENERGY PREDICTED BY IDOCK:   -1.45 KCAL/MOL
REMARK 922        TOTAL FREE ENERGY PREDICTED BY IDOCK:   -1.89 KCAL/MOL
REMARK 923 INTER-LIGAND FREE ENERGY PREDICTED BY IDOCK:   -1.75 KCAL/MOL
REMARK 924 INTRA-LIGAND FREE ENERGY PREDICTED BY IDOCK:   -0.15 KCAL/MOL
REMARK 927      BINDING AFFINITY PREDICTED BY RF-SCORE:    0.00 PKD
ROOT
HETATM    1  C   UNL     1      -7.533   5.606  71.672  1.00  0.00    -0.093 C  
HETATM    2  O   UNL     1      -6.966   5.992  70.424  1.00  0.00    -0.055 OA 
ENDROOT
BRANCH   2   3
HETATM    3  C   UNL     1      -7.708   5.749  69.299  1.00  0.00    -0.089 A  
HETATM    4  C   UNL     1      -7.958   4.506  68.714  1.00  0.00    -0.078 A  
HETATM    5  O   UNL     1      -7.420   3.337  69.172  1.00  0.00    -0.048 OA 
HETATM    6  C   UNL     1      -8.722   4.403  67.554  1.00  0.00    -0.112 A  
HETATM    7  H   UNL     1      -7.589   2.491  68.774  1.00  0.00     0.000 HD 
HETATM    8  C   UNL     1      -9.207   5.552  66.931  1.00  0.00    -0.119 A  
HETATM    9  C   UNL     1      -8.948   6.814  67.479  1.00  0.00    -0.115 A  
HETATM   10  C   UNL     1      -8.197   6.898  68.665  1.00  0.00    -0.121 A  
BRANCH   9  11
HETATM   11  C   UNL     1      -9.445   8.060  66.783  1.00  0.00    -0.259 C  
BRANCH  11  12
HETATM   12  C   UNL     1     -10.460   8.811  67.599  1.00  0.00    -0.310 C  
HETATM   13  C   UNL     1     -10.732  10.116  67.459  1.00  0.00    -0.347 C  
ENDBRANCH  11  12
ENDBRANCH   9  11
ENDBRANCH   2   3
TORSDOF 3
ENDMDL
MODEL      236
REMARK 921   NORMALIZED FREE ENERGY PREDICTED BY IDOCK:   -1.45 KCAL/MOL
REMARK 922        TOTAL FREE ENERGY PREDICTED BY IDOCK:   -1.89 KCAL/MOL
REMARK 923 INTER-LIGAND FREE ENERGY PREDICTED BY IDOCK:   -1.68 KCAL/MOL
REMARK 924 INTRA-LIGAND FREE ENERGY PREDICTED BY IDOCK:   -0.22 KCAL/MOL
REMARK 927      BINDING AFFINITY PREDICTED BY RF-SCORE:    0.00 PKD
ROOT
HETATM    1  C   UNL     1      -6.365   6.753  69.831  1.00  0.00    -0.039 C  
HETATM    2  O   UNL     1      -6.679   8.016  70.409  1.00  0.00    -0.037 OA 
ENDROOT
BRANCH   2   3
HETATM    3  C   UNL     1      -7.225   8.010  71.665  1.00  0.00    -0.074 A  
HETATM    4  C   UNL     1      -6.830   8.789  72.754  1.00  0.00     0.105 A  
HETATM    5  O   UNL     1      -5.764   9.643  72.720  1.00  0.00    -0.298 OA 
HETATM    6  C   UNL     1      -7.468   8.671  73.987  1.00  0.00    -0.045 A  
HETATM    7  H   UNL     1      -5.495  10.173  73.461  1.00  0.00     0.000 HD 
HETATM    8  C   UNL     1      -8.482   7.731  74.163  1.00  0.00    -0.303 A  
HETATM    9  C   UNL     1      -8.880   6.915  73.097  1.00  0.00    -0.142 A  
HETATM   10  C   UNL     1      -8.243   7.066  71.852  1.00  0.00    -0.102 A  
BRANCH   9  11
HETATM   11  C   UNL     1      -9.955   5.872  73.300  1.00  0.00    -0.190 C  
BRANCH  11  12
HETATM   12  C   UNL     1     -10.843   5.718  72.096  1.00  0.00    -0.296 C  
HETATM   13  C   UNL     1     -12.115   6.134  72.033  1.00  0.00    -0.256 C  
ENDBRANCH  11  12
ENDBRANCH   9  11
ENDBRANCH   2   3
TORSDOF 3
ENDMDL
MODEL      237
REMARK 921   NORMALIZED FREE ENERGY PREDICTED BY IDOCK:   -1.37 KCAL/MOL
REMARK 922        TOTAL FREE ENERGY PREDICTED BY IDOCK:   -1.80 KCAL/MOL
REMARK 923 INTER-LIGAND FREE ENERGY PREDICTED BY IDOCK:   -1.52 KCAL/MOL
REMARK 924 INTRA-LIGAND FREE ENERGY PREDICTED BY IDOCK:   -0.29 KCAL/MOL
REMARK 927      BINDING AFFINITY PREDICTED BY RF-SCORE:    0.00 PKD
ROOT
HETATM    1  C   UNL     1      -9.073   1.707  67.953  1.00  0.00    -0.153 C  
HETATM    2  O   UNL     1      -8.444   2.845  68.533  1.00  0.00    -0.064 OA 
ENDROOT
BRANCH   2   3
HETATM    3  C   UNL     1      -8.821   4.075  68.063  1.00  0.00    -0.108 A  
HETATM    4  C   UNL     1      -9.616   5.015  68.723  1.00  0.00    -0.150 A  
HETATM    5  O   UNL     1     -10.192   4.791  69.941  1.00  0.00    -0.252 OA 
HETATM    6  C   UNL     1      -9.937   6.229  68.119  1.00  0.00    -0.149 A  
HETATM    7  H   UNL     1     -10.733   5.430  70.390  1.00  0.00     0.000 HD 
HETATM    8  C   UNL     1      -9.509   6.500  66.821  1.00  0.00    -0.188 A  
HETATM    9  C   UNL     1      -8.735   5.564  66.124  1.00  0.00    -0.133 A  
HETATM   10  C   UNL     1      -8.398   4.355  66.758  1.00  0.00    -0.105 A  
BRANCH   9  11
HETATM   11  C   UNL     1      -8.301   5.845  64.704  1.00  0.00    -0.086 C  
BRANCH  11  12
HETATM   12  C   UNL     1      -7.399   7.044  64.602  1.00  0.00    -0.090 C  
HETATM   13  C   UNL     1      -6.232   7.173  65.248  1.00  0.00    -0.037 C  
ENDBRANCH  11  12
ENDBRANCH   9  11
ENDBRANCH   2   3
TORSDOF 3
ENDMDL
MODEL      238
REMARK 921   NORMALIZED FREE ENERGY PREDICTED BY IDOCK:   -1.36 KCAL/MOL
REMARK 922        TOTAL FREE ENERGY PREDICTED BY IDOCK:   -1.79 KCAL/MOL
REMARK 923 INTER-LIGAND FREE ENERGY PREDICTED BY IDOCK:   -1.60 KCAL/MOL
REMARK 924 INTRA-LIGAND FREE ENERGY PREDICTED BY IDOCK:   -0.20 KCAL/MOL
REMARK 927      BINDING AFFINITY PREDICTED BY RF-SCORE:    0.00 PKD
ROOT
HETATM    1  C   UNL     1     -11.379   6.415  69.020  1.00  0.00    -0.255 C  
HETATM    2  O   UNL     1     -10.087   7.013  69.018  1.00  0.00    -0.170 OA 
ENDROOT
BRANCH   2   3
HETATM    3  C   UNL     1      -9.028   6.212  68.685  1.00  0.00    -0.126 A  
HETATM    4  C   UNL     1      -7.750   6.234  69.249  1.00  0.00    -0.100 A  
HETATM    5  O   UNL     1      -7.363   7.138  70.199  1.00  0.00    -0.076 OA 
HETATM    6  C   UNL     1      -6.756   5.367  68.803  1.00  0.00    -0.053 A  
HETATM    7  H   UNL     1      -6.494   7.153  70.582  1.00  0.00     0.000 HD 
HETATM    8  C   UNL     1      -7.010   4.495  67.745  1.00  0.00    -0.060 A  
HETATM    9  C   UNL     1      -8.273   4.471  67.140  1.00  0.00    -0.101 A  
HETATM   10  C   UNL     1      -9.273   5.335  67.621  1.00  0.00    -0.121 A  
BRANCH   9  11
HETATM   11  C   UNL     1      -8.536   3.550  65.971  1.00  0.00    -0.117 C  
BRANCH  11  12
HETATM   12  C   UNL     1      -9.322   4.219  64.876  1.00  0.00    -0.165 C  
HETATM   13  C   UNL     1     -10.437   3.718  64.328  1.00  0.00    -0.252 C  
ENDBRANCH  11  12
ENDBRANCH   9  11
ENDBRANCH   2   3
TORSDOF 3
ENDMDL
MODEL      239
REMARK 921   NORMALIZED FREE ENERGY PREDICTED BY IDOCK:   -1.33 KCAL/MOL
REMARK 922        TOTAL FREE ENERGY PREDICTED BY IDOCK:   -1.76 KCAL/MOL
REMARK 923 INTER-LIGAND FREE ENERGY PREDICTED BY IDOCK:   -1.91 KCAL/MOL
REMARK 924 INTRA-LIGAND FREE ENERGY PREDICTED BY IDOCK:    0.16 KCAL/MOL
REMARK 927      BINDING AFFINITY PREDICTED BY RF-SCORE:    0.00 PKD
ROOT
HETATM    1  C   UNL     1      -7.684   5.001  66.885  1.00  0.00    -0.092 C  
HETATM    2  O   UNL     1      -7.344   6.325  67.286  1.00  0.00    -0.080 OA 
ENDROOT
BRANCH   2   3
HETATM    3  C   UNL     1      -8.315   7.283  67.169  1.00  0.00    -0.118 A  
HETATM    4  C   UNL     1      -9.671   7.141  67.471  1.00  0.00    -0.142 A  
HETATM    5  O   UNL     1     -10.233   5.963  67.876  1.00  0.00    -0.151 OA 
HETATM    6  C   UNL     1     -10.558   8.201  67.292  1.00  0.00    -0.344 A  
HETATM    7  H   UNL     1     -11.155   5.867  68.081  1.00  0.00     0.000 HD 
HETATM    8  C   UNL     1     -10.108   9.407  66.757  1.00  0.00    -0.325 A  
HETATM    9  C   UNL     1      -8.760   9.568  66.417  1.00  0.00    -0.149 A  
HETATM   10  C   UNL     1      -7.873   8.497  66.630  1.00  0.00    -0.090 A  
BRANCH   9  11
HETATM   11  C   UNL     1      -8.281  10.864  65.804  1.00  0.00    -0.113 C  
BRANCH  11  12
HETATM   12  C   UNL     1      -8.771  12.072  66.554  1.00  0.00    -0.138 C  
HETATM   13  C   UNL     1      -8.206  12.554  67.669  1.00  0.00    -0.172 C  
ENDBRANCH  11  12
ENDBRANCH   9  11
ENDBRANCH   2   3
TORSDOF 3
ENDMDL
MODEL      240
REMARK 921   NORMALIZED FREE ENERGY PREDICTED BY IDOCK:   -1.31 KCAL/MOL
REMARK 922        TOTAL FREE ENERGY PREDICTED BY IDOCK:   -1.73 KCAL/MOL
REMARK 923 INTER-LIGAND FREE ENERGY PREDICTED BY IDOCK:   -1.53 KCAL/MOL
REMARK 924 INTRA-LIGAND FREE ENERGY PREDICTED BY IDOCK:   -0.20 KCAL/MOL
REMARK 927      BINDING AFFINITY PREDICTED BY RF-SCORE:    0.00 PKD
ROOT
HETATM    1  C   UNL     1      -8.901   1.597  67.814  1.00  0.00    -0.117 C  
HETATM    2  O   UNL     1      -8.463   2.902  68.177  1.00  0.00    -0.076 OA 
ENDROOT
BRANCH   2   3
HETATM    3  C   UNL     1      -9.223   3.958  67.751  1.00  0.00    -0.166 A  
HETATM    4  C   UNL     1      -9.613   5.068  68.504  1.00  0.00    -0.146 A  
HETATM    5  O   UNL     1      -9.325   5.214  69.832  1.00  0.00    -0.129 OA 
HETATM    6  C   UNL     1     -10.404   6.069  67.945  1.00  0.00    -0.255 A  
HETATM    7  H   UNL     1      -9.590   5.969  70.344  1.00  0.00     0.000 HD 
HETATM    8  C   UNL     1     -10.862   5.950  66.634  1.00  0.00    -0.292 A  
HETATM    9  C   UNL     1     -10.512   4.834  65.864  1.00  0.00    -0.313 A  
HETATM   10  C   UNL     1      -9.691   3.845  66.435  1.00  0.00    -0.181 A  
BRANCH   9  11
HETATM   11  C   UNL     1     -11.039   4.689  64.455  1.00  0.00     0.451 C  
BRANCH  11  12
HETATM   12  C   UNL     1     -10.744   3.337  63.865  1.00  0.00    -0.188 C  
HETATM   13  C   UNL     1     -10.074   3.137  62.722  1.00  0.00    -0.113 C  
ENDBRANCH  11  12
ENDBRANCH   9  11
ENDBRANCH   2   3
TORSDOF 3
ENDMDL
MODEL      241
REMARK 921   NORMALIZED FREE ENERGY PREDICTED BY IDOCK:   -1.26 KCAL/MOL
REMARK 922        TOTAL FREE ENERGY PREDICTED BY IDOCK:   -1.68 KCAL/MOL
REMARK 923 INTER-LIGAND FREE ENERGY PREDICTED BY IDOCK:   -1.54 KCAL/MOL
REMARK 924 INTRA-LIGAND FREE ENERGY PREDICTED BY IDOCK:   -0.13 KCAL/MOL
REMARK 927      BINDING AFFINITY PREDICTED BY RF-SCORE:    0.00 PKD
ROOT
HETATM    1  C   UNL     1     -10.964   8.669  68.782  1.00  0.00     0.150 C  
HETATM    2  O   UNL     1      -9.716   8.129  68.361  1.00  0.00    -0.155 OA 
ENDROOT
BRANCH   2   3
HETATM    3  C   UNL     1      -9.548   6.775  68.483  1.00  0.00    -0.130 A  
HETATM    4  C   UNL     1     -10.192   5.781  67.743  1.00  0.00    -0.192 A  
HETATM    5  O   UNL     1     -11.155   6.043  66.810  1.00  0.00    -0.579 OA 
HETATM    6  C   UNL     1      -9.936   4.433  67.983  1.00  0.00    -0.076 A  
HETATM    7  H   UNL     1     -11.593   5.366  66.307  1.00  0.00     0.000 HD 
HETATM    8  C   UNL     1      -9.067   4.056  69.005  1.00  0.00    -0.193 A  
HETATM    9  C   UNL     1      -8.430   5.030  69.784  1.00  0.00    -0.092 A  
HETATM   10  C   UNL     1      -8.679   6.387  69.511  1.00  0.00    -0.133 A  
BRANCH   9  11
HETATM   11  C   UNL     1      -7.516   4.619  70.915  1.00  0.00    -0.056 C  
BRANCH  11  12
HETATM   12  C   UNL     1      -7.931   3.320  71.549  1.00  0.00    -0.057 C  
HETATM   13  C   UNL     1      -7.210   2.191  71.510  1.00  0.00    -0.032 C  
ENDBRANCH  11  12
ENDBRANCH   9  11
ENDBRANCH   2   3
TORSDOF 3
ENDMDL
MODEL      242
REMARK 921   NORMALIZED FREE ENERGY PREDICTED BY IDOCK:   -0.98 KCAL/MOL
REMARK 922        TOTAL FREE ENERGY PREDICTED BY IDOCK:   -1.34 KCAL/MOL
REMARK 923 INTER-LIGAND FREE ENERGY PREDICTED BY IDOCK:   -1.41 KCAL/MOL
REMARK 924 INTRA-LIGAND FREE ENERGY PREDICTED BY IDOCK:    0.06 KCAL/MOL
REMARK 927      BINDING AFFINITY PREDICTED BY RF-SCORE:    0.00 PKD
ROOT
HETATM    1  C   UNL     1      -7.182   3.535  65.766  1.00  0.00    -0.068 C  
HETATM    2  O   UNL     1      -6.902   3.813  67.134  1.00  0.00    -0.049 OA 
ENDROOT
BRANCH   2   3
HETATM    3  C   UNL     1      -7.908   4.370  67.877  1.00  0.00    -0.080 A  
HETATM    4  C   UNL     1      -9.206   3.880  68.030  1.00  0.00    -0.163 A  
HETATM    5  O   UNL     1      -9.674   2.773  67.381  1.00  0.00    -0.383 OA 
HETATM    6  C   UNL     1     -10.140   4.560  68.809  1.00  0.00    -0.033 A  
HETATM    7  H   UNL     1     -10.557   2.440  67.485  1.00  0.00     0.000 HD 
HETATM    8  C   UNL     1      -9.802   5.773  69.408  1.00  0.00    -0.219 A  
HETATM    9  C   UNL     1      -8.516   6.303  69.248  1.00  0.00    -0.124 A  
HETATM   10  C   UNL     1      -7.578   5.591  68.480  1.00  0.00    -0.084 A  
BRANCH   9  11
HETATM   11  C   UNL     1      -8.162   7.635  69.869  1.00  0.00    -0.130 C  
BRANCH  11  12
HETATM   12  C   UNL     1      -6.723   8.011  69.648  1.00  0.00    -0.038 C  
HETATM   13  C   UNL     1      -6.139   9.107  70.149  1.00  0.00    -0.035 C  
ENDBRANCH  11  12
ENDBRANCH   9  11
ENDBRANCH   2   3
TORSDOF 3
ENDMDL
MODEL      243
REMARK 921   NORMALIZED FREE ENERGY PREDICTED BY IDOCK:   -0.94 KCAL/MOL
REMARK 922        TOTAL FREE ENERGY PREDICTED BY IDOCK:   -1.29 KCAL/MOL
REMARK 923 INTER-LIGAND FREE ENERGY PREDICTED BY IDOCK:   -1.05 KCAL/MOL
REMARK 924 INTRA-LIGAND FREE ENERGY PREDICTED BY IDOCK:   -0.24 KCAL/MOL
REMARK 927      BINDING AFFINITY PREDICTED BY RF-SCORE:    0.00 PKD
ROOT
HETATM    1  C   UNL     1      -7.287   5.380  71.885  1.00  0.00    -0.091 C  
HETATM    2  O   UNL     1      -6.390   5.176  70.798  1.00  0.00    -0.022 OA 
ENDROOT
BRANCH   2   3
HETATM    3  C   UNL     1      -6.783   4.304  69.819  1.00  0.00    -0.034 A  
HETATM    4  C   UNL     1      -6.696   2.910  69.854  1.00  0.00    -0.033 A  
HETATM    5  O   UNL     1      -6.126   2.219  70.886  1.00  0.00    -0.017 OA 
HETATM    6  C   UNL     1      -7.122   2.139  68.776  1.00  0.00    -0.043 A  
HETATM    7  H   UNL     1      -6.067   1.271  70.911  1.00  0.00     0.000 HD 
HETATM    8  C   UNL     1      -7.596   2.755  67.619  1.00  0.00    -0.057 A  
HETATM    9  C   UNL     1      -7.668   4.151  67.542  1.00  0.00    -0.080 A  
HETATM   10  C   UNL     1      -7.258   4.914  68.651  1.00  0.00    -0.058 A  
BRANCH   9  11
HETATM   11  C   UNL     1      -8.149   4.818  66.274  1.00  0.00    -0.107 C  
BRANCH  11  12
HETATM   12  C   UNL     1      -9.338   5.709  66.506  1.00  0.00    -0.159 C  
HETATM   13  C   UNL     1     -10.612   5.294  66.487  1.00  0.00    -0.348 C  
ENDBRANCH  11  12
ENDBRANCH   9  11
ENDBRANCH   2   3
TORSDOF 3
ENDMDL
