MODEL        1
REMARK 921   NORMALIZED FREE ENERGY PREDICTED BY IDOCK:   -8.35 KCAL/MOL
REMARK 922        TOTAL FREE ENERGY PREDICTED BY IDOCK:  -13.09 KCAL/MOL
REMARK 923 INTER-LIGAND FREE ENERGY PREDICTED BY IDOCK:  -11.29 KCAL/MOL
REMARK 924 INTRA-LIGAND FREE ENERGY PREDICTED BY IDOCK:   -1.81 KCAL/MOL
REMARK 927      BINDING AFFINITY PREDICTED BY RF-SCORE:    0.00 PKD
ROOT
HETATM    1  O   UNL     1      -9.244  10.518  68.192  1.00  0.00    -0.142 OA 
HETATM    2  H   UNL     1      -8.675  10.314  68.924  1.00  0.00     0.000 HD 
HETATM    3  C   UNL     1     -10.355  11.289  68.645  1.00  0.00    -0.201 C  
ENDROOT
BRANCH   3   4
HETATM    4  C   UNL     1     -11.065  10.579  69.778  1.00  0.00    -0.354 A  
HETATM    5  C   UNL     1     -10.563   9.385  70.321  1.00  0.00    -0.297 A  
HETATM    6  C   UNL     1     -12.255  11.114  70.303  1.00  0.00    -0.436 A  
HETATM    7  C   UNL     1     -11.214   8.755  71.381  1.00  0.00    -0.362 A  
HETATM    8  F   UNL     1     -12.988   8.724  72.931  1.00  0.00    -0.449 F  
HETATM    9  C   UNL     1     -12.904  10.485  71.367  1.00  0.00    -0.551 A  
HETATM   10  C   UNL     1     -12.374   9.316  71.899  1.00  0.00    -0.382 A  
ENDBRANCH   3   4
BRANCH   3  11
HETATM   11  C   UNL     1     -11.273  11.617  67.465  1.00  0.00    -0.355 C  
BRANCH  11  12
HETATM   12  C   UNL     1     -11.404  13.115  67.138  1.00  0.00    -0.354 C  
BRANCH  12  13
HETATM   13  C   UNL     1     -11.096  13.918  68.400  1.00  0.00    -0.278 C  
HETATM   14  N   UNL     1     -10.721  15.950  68.243  1.00  0.00    -0.279 N  
HETATM   15  O   UNL     1      -8.719  14.723  68.016  1.00  0.00    -0.158 OA 
HETATM   16  C   UNL     1      -9.900  14.871  68.220  1.00  0.00    -0.218 C  
HETATM   17  C   UNL     1     -11.907  15.231  68.727  1.00  0.00    -0.307 C  
BRANCH  17  18
HETATM   18  C   UNL     1     -12.278  15.352  70.285  1.00  0.00    -0.414 A  
HETATM   19  H   UNL     1     -12.814  16.711  74.800  1.00  0.00     0.000 HD 
HETATM   20  C   UNL     1     -13.905  15.193  72.125  1.00  0.00    -0.607 A  
HETATM   21  C   UNL     1     -13.517  14.924  70.808  1.00  0.00    -0.279 A  
HETATM   22  C   UNL     1     -11.420  16.020  71.185  1.00  0.00    -0.470 A  
HETATM   23  C   UNL     1     -13.045  15.894  72.958  1.00  0.00    -0.541 A  
HETATM   24  O   UNL     1     -13.402  16.230  74.230  1.00  0.00    -0.385 OA 
HETATM   25  C   UNL     1     -11.798  16.292  72.506  1.00  0.00    -0.608 A  
ENDBRANCH  17  18
BRANCH  14  26
HETATM   26  C   UNL     1     -10.516  17.270  67.855  1.00  0.00    -0.382 A  
HETATM   27  C   UNL     1      -9.945  19.562  68.443  1.00  0.00    -0.540 A  
HETATM   28  F   UNL     1      -9.878  21.204  66.759  1.00  0.00    -0.409 F  
HETATM   29  C   UNL     1     -10.166  18.234  68.812  1.00  0.00    -0.342 A  
HETATM   30  C   UNL     1     -10.412  18.988  66.145  1.00  0.00    -0.541 A  
HETATM   31  C   UNL     1     -10.077  19.928  67.114  1.00  0.00    -0.438 A  
HETATM   32  C   UNL     1     -10.625  17.655  66.514  1.00  0.00    -0.207 A  
ENDBRANCH  14  26
ENDBRANCH  12  13
ENDBRANCH  11  12
ENDBRANCH   3  11
TORSDOF 6
ENDMDL
MODEL        2
REMARK 921   NORMALIZED FREE ENERGY PREDICTED BY IDOCK:   -7.99 KCAL/MOL
REMARK 922        TOTAL FREE ENERGY PREDICTED BY IDOCK:  -12.60 KCAL/MOL
REMARK 923 INTER-LIGAND FREE ENERGY PREDICTED BY IDOCK:  -10.47 KCAL/MOL
REMARK 924 INTRA-LIGAND FREE ENERGY PREDICTED BY IDOCK:   -2.13 KCAL/MOL
REMARK 927      BINDING AFFINITY PREDICTED BY RF-SCORE:    0.00 PKD
ROOT
HETATM    1  O   UNL     1     -10.118   9.688  67.221  1.00  0.00    -0.185 OA 
HETATM    2  H   UNL     1     -11.002   9.374  67.069  1.00  0.00     0.000 HD 
HETATM    3  C   UNL     1     -10.116  11.113  67.279  1.00  0.00    -0.188 C  
ENDROOT
BRANCH   3   4
HETATM    4  C   UNL     1     -10.752  11.694  66.034  1.00  0.00    -0.328 A  
HETATM    5  C   UNL     1     -11.869  12.543  66.113  1.00  0.00    -0.459 A  
HETATM    6  C   UNL     1     -10.227  11.382  64.767  1.00  0.00    -0.338 A  
HETATM    7  C   UNL     1     -12.429  13.091  64.960  1.00  0.00    -0.534 A  
HETATM    8  F   UNL     1     -12.402  13.331  62.617  1.00  0.00    -0.352 F  
HETATM    9  C   UNL     1     -10.787  11.934  63.614  1.00  0.00    -0.510 A  
HETATM   10  C   UNL     1     -11.878  12.788  63.722  1.00  0.00    -0.499 A  
ENDBRANCH   3   4
BRANCH   3  11
HETATM   11  C   UNL     1      -8.692  11.618  67.525  1.00  0.00    -0.156 C  
BRANCH  11  12
HETATM   12  C   UNL     1      -8.503  13.137  67.365  1.00  0.00    -0.201 C  
BRANCH  12  13
HETATM   13  C   UNL     1      -9.205  13.840  68.524  1.00  0.00    -0.138 C  
HETATM   14  N   UNL     1      -9.585  15.873  68.397  1.00  0.00    -0.204 N  
HETATM   15  O   UNL     1      -7.461  15.490  69.350  1.00  0.00    -0.194 OA 
HETATM   16  C   UNL     1      -8.536  15.176  68.901  1.00  0.00    -0.200 C  
HETATM   17  C   UNL     1     -10.486  14.721  68.264  1.00  0.00    -0.241 C  
BRANCH  17  18
HETATM   18  C   UNL     1     -11.615  14.513  69.388  1.00  0.00    -0.343 A  
HETATM   19  H   UNL     1     -14.265  13.029  73.033  1.00  0.00     0.000 HD 
HETATM   20  C   UNL     1     -13.106  15.411  71.128  1.00  0.00    -0.565 A  
HETATM   21  C   UNL     1     -12.259  15.592  70.029  1.00  0.00    -0.380 A  
HETATM   22  C   UNL     1     -11.918  13.226  69.881  1.00  0.00    -0.400 A  
HETATM   23  C   UNL     1     -13.337  14.129  71.605  1.00  0.00    -0.364 A  
HETATM   24  O   UNL     1     -14.108  13.907  72.707  1.00  0.00    -0.668 OA 
HETATM   25  C   UNL     1     -12.767  13.033  70.979  1.00  0.00    -0.347 A  
ENDBRANCH  17  18
BRANCH  14  26
HETATM   26  C   UNL     1      -9.715  17.214  68.052  1.00  0.00    -0.274 A  
HETATM   27  C   UNL     1      -9.830  18.934  66.333  1.00  0.00    -0.412 A  
HETATM   28  F   UNL     1     -10.113  21.183  66.966  1.00  0.00    -0.473 F  
HETATM   29  C   UNL     1      -9.690  17.595  66.702  1.00  0.00    -0.304 A  
HETATM   30  C   UNL     1     -10.031  19.541  68.661  1.00  0.00    -0.538 A  
HETATM   31  C   UNL     1      -9.992  19.896  67.316  1.00  0.00    -0.421 A  
HETATM   32  C   UNL     1      -9.899  18.198  69.030  1.00  0.00    -0.259 A  
ENDBRANCH  14  26
ENDBRANCH  12  13
ENDBRANCH  11  12
ENDBRANCH   3  11
TORSDOF 6
ENDMDL
MODEL        3
REMARK 921   NORMALIZED FREE ENERGY PREDICTED BY IDOCK:   -7.99 KCAL/MOL
REMARK 922        TOTAL FREE ENERGY PREDICTED BY IDOCK:  -12.60 KCAL/MOL
REMARK 923 INTER-LIGAND FREE ENERGY PREDICTED BY IDOCK:  -11.27 KCAL/MOL
REMARK 924 INTRA-LIGAND FREE ENERGY PREDICTED BY IDOCK:   -1.32 KCAL/MOL
REMARK 927      BINDING AFFINITY PREDICTED BY RF-SCORE:    0.00 PKD
ROOT
HETATM    1  O   UNL     1     -11.183  16.477  63.991  1.00  0.00    -1.409 OA 
HETATM    2  H   UNL     1     -11.341  17.399  63.822  1.00  0.00     0.000 HD 
HETATM    3  C   UNL     1     -11.100  16.252  65.396  1.00  0.00    -0.087 C  
ENDROOT
BRANCH   3   4
HETATM    4  C   UNL     1     -10.061  17.162  66.018  1.00  0.00    -0.303 A  
HETATM    5  C   UNL     1      -8.695  16.839  65.987  1.00  0.00    -0.218 A  
HETATM    6  C   UNL     1     -10.461  18.355  66.646  1.00  0.00    -0.415 A  
HETATM    7  C   UNL     1      -7.747  17.698  66.541  1.00  0.00    -0.305 A  
HETATM    8  F   UNL     1      -7.252  19.719  67.648  1.00  0.00    -0.260 F  
HETATM    9  C   UNL     1      -9.511  19.216  67.197  1.00  0.00    -0.367 A  
HETATM   10  C   UNL     1      -8.163  18.883  67.134  1.00  0.00    -0.269 A  
ENDBRANCH   3   4
BRANCH   3  11
HETATM   11  C   UNL     1     -10.845  14.768  65.669  1.00  0.00    -0.344 C  
BRANCH  11  12
HETATM   12  C   UNL     1     -11.927  14.065  66.509  1.00  0.00    -0.470 C  
BRANCH  12  13
HETATM   13  C   UNL     1     -11.241  13.257  67.608  1.00  0.00    -0.307 C  
HETATM   14  N   UNL     1     -11.584  13.747  69.592  1.00  0.00    -0.282 N  
HETATM   15  O   UNL     1      -9.749  14.966  68.747  1.00  0.00    -0.213 OA 
HETATM   16  C   UNL     1     -10.635  14.147  68.709  1.00  0.00    -0.253 C  
HETATM   17  C   UNL     1     -12.087  12.630  68.782  1.00  0.00    -0.114 C  
BRANCH  17  18
HETATM   18  C   UNL     1     -11.604  11.146  69.163  1.00  0.00    -0.393 A  
HETATM   19  H   UNL     1      -9.317   7.008  69.567  1.00  0.00     0.000 HD 
HETATM   20  C   UNL     1     -11.136   9.402  70.836  1.00  0.00    -0.389 A  
HETATM   21  C   UNL     1     -11.717  10.620  70.467  1.00  0.00    -0.451 A  
HETATM   22  C   UNL     1     -10.918  10.343  68.226  1.00  0.00    -0.321 A  
HETATM   23  C   UNL     1     -10.432   8.671  69.890  1.00  0.00    -0.218 A  
HETATM   24  O   UNL     1      -9.800   7.508  70.215  1.00  0.00    -0.183 OA 
HETATM   25  C   UNL     1     -10.335   9.121  68.583  1.00  0.00    -0.233 A  
ENDBRANCH  17  18
BRANCH  14  26
HETATM   26  C   UNL     1     -11.988  14.281  70.812  1.00  0.00    -0.320 A  
HETATM   27  C   UNL     1     -11.813  16.032  72.493  1.00  0.00    -0.630 A  
HETATM   28  F   UNL     1     -13.157  15.919  74.422  1.00  0.00    -0.487 F  
HETATM   29  C   UNL     1     -11.416  15.474  71.277  1.00  0.00    -0.462 A  
HETATM   30  C   UNL     1     -13.372  14.215  72.802  1.00  0.00    -0.618 A  
HETATM   31  C   UNL     1     -12.783  15.393  73.248  1.00  0.00    -0.508 A  
HETATM   32  C   UNL     1     -12.980  13.660  71.579  1.00  0.00    -0.443 A  
ENDBRANCH  14  26
ENDBRANCH  12  13
ENDBRANCH  11  12
ENDBRANCH   3  11
TORSDOF 6
ENDMDL
MODEL        4
REMARK 921   NORMALIZED FREE ENERGY PREDICTED BY IDOCK:   -7.93 KCAL/MOL
REMARK 922        TOTAL FREE ENERGY PREDICTED BY IDOCK:  -12.51 KCAL/MOL
REMARK 923 INTER-LIGAND FREE ENERGY PREDICTED BY IDOCK:  -10.23 KCAL/MOL
REMARK 924 INTRA-LIGAND FREE ENERGY PREDICTED BY IDOCK:   -2.29 KCAL/MOL
REMARK 927      BINDING AFFINITY PREDICTED BY RF-SCORE:    0.00 PKD
ROOT
HETATM    1  O   UNL     1     -10.000   9.632  65.085  1.00  0.00    -0.416 OA 
HETATM    2  H   UNL     1      -9.304   9.029  65.318  1.00  0.00     0.000 HD 
HETATM    3  C   UNL     1      -9.930  10.792  65.911  1.00  0.00    -0.250 C  
ENDROOT
BRANCH   3   4
HETATM    4  C   UNL     1      -9.938  10.403  67.374  1.00  0.00    -0.226 A  
HETATM    5  C   UNL     1      -8.768  10.452  68.149  1.00  0.00    -0.125 A  
HETATM    6  C   UNL     1     -11.134   9.976  67.978  1.00  0.00    -0.263 A  
HETATM    7  C   UNL     1      -8.795  10.115  69.502  1.00  0.00    -0.198 A  
HETATM    8  F   UNL     1     -10.025   9.416  71.386  1.00  0.00    -0.360 F  
HETATM    9  C   UNL     1     -11.161   9.641  69.333  1.00  0.00    -0.170 A  
HETATM   10  C   UNL     1      -9.993   9.720  70.083  1.00  0.00    -0.263 A  
ENDBRANCH   3   4
BRANCH   3  11
HETATM   11  C   UNL     1     -11.051  11.764  65.536  1.00  0.00    -0.336 C  
BRANCH  11  12
HETATM   12  C   UNL     1     -10.655  13.251  65.544  1.00  0.00    -0.295 C  
BRANCH  12  13
HETATM   13  C   UNL     1     -10.498  13.705  66.993  1.00  0.00    -0.270 C  
HETATM   14  N   UNL     1     -10.284  15.725  67.406  1.00  0.00    -0.265 N  
HETATM   15  O   UNL     1      -8.176  14.731  67.036  1.00  0.00    -0.210 OA 
HETATM   16  C   UNL     1      -9.375  14.745  67.171  1.00  0.00    -0.224 C  
HETATM   17  C   UNL     1     -11.434  14.829  67.582  1.00  0.00    -0.347 C  
BRANCH  17  18
HETATM   18  C   UNL     1     -11.915  14.506  69.081  1.00  0.00    -0.344 A  
HETATM   19  H   UNL     1     -14.115  14.366  73.282  1.00  0.00     0.000 HD 
HETATM   20  C   UNL     1     -12.518  12.898  70.845  1.00  0.00    -0.383 A  
HETATM   21  C   UNL     1     -11.934  13.198  69.609  1.00  0.00    -0.370 A  
HETATM   22  C   UNL     1     -12.469  15.515  69.898  1.00  0.00    -0.243 A  
HETATM   23  C   UNL     1     -13.091  13.918  71.590  1.00  0.00    -0.367 A  
HETATM   24  O   UNL     1     -13.723  13.668  72.772  1.00  0.00    -0.707 OA 
HETATM   25  C   UNL     1     -13.054  15.227  71.138  1.00  0.00    -0.546 A  
ENDBRANCH  17  18
BRANCH  14  26
HETATM   26  C   UNL     1     -10.163  17.110  67.396  1.00  0.00    -0.321 A  
HETATM   27  C   UNL     1     -10.328  19.219  66.192  1.00  0.00    -0.578 A  
HETATM   28  F   UNL     1      -9.837  21.230  67.312  1.00  0.00    -0.600 F  
HETATM   29  C   UNL     1     -10.432  17.828  66.221  1.00  0.00    -0.307 A  
HETATM   30  C   UNL     1      -9.689  19.207  68.520  1.00  0.00    -0.467 A  
HETATM   31  C   UNL     1      -9.950  19.896  67.340  1.00  0.00    -0.423 A  
HETATM   32  C   UNL     1      -9.802  17.812  68.551  1.00  0.00    -0.355 A  
ENDBRANCH  14  26
ENDBRANCH  12  13
ENDBRANCH  11  12
ENDBRANCH   3  11
TORSDOF 6
ENDMDL
MODEL        5
REMARK 921   NORMALIZED FREE ENERGY PREDICTED BY IDOCK:   -7.88 KCAL/MOL
REMARK 922        TOTAL FREE ENERGY PREDICTED BY IDOCK:  -12.45 KCAL/MOL
REMARK 923 INTER-LIGAND FREE ENERGY PREDICTED BY IDOCK:  -10.67 KCAL/MOL
REMARK 924 INTRA-LIGAND FREE ENERGY PREDICTED BY IDOCK:   -1.78 KCAL/MOL
REMARK 927      BINDING AFFINITY PREDICTED BY RF-SCORE:    0.00 PKD
ROOT
HETATM    1  O   UNL     1      -7.223  16.374  66.350  1.00  0.00    -0.174 OA 
HETATM    2  H   UNL     1      -6.726  17.184  66.348  1.00  0.00     0.000 HD 
HETATM    3  C   UNL     1      -8.574  16.636  65.979  1.00  0.00    -0.194 C  
ENDROOT
BRANCH   3   4
HETATM    4  C   UNL     1      -9.170  17.706  66.868  1.00  0.00    -0.270 A  
HETATM    5  C   UNL     1      -9.446  17.459  68.223  1.00  0.00    -0.290 A  
HETATM    6  C   UNL     1      -9.461  18.976  66.338  1.00  0.00    -0.375 A  
HETATM    7  C   UNL     1      -9.972  18.462  69.037  1.00  0.00    -0.304 A  
HETATM    8  F   UNL     1     -10.712  20.685  69.282  1.00  0.00    -0.335 F  
HETATM    9  C   UNL     1      -9.984  19.980  67.154  1.00  0.00    -0.580 A  
HETATM   10  C   UNL     1     -10.228  19.715  68.497  1.00  0.00    -0.421 A  
ENDBRANCH   3   4
BRANCH   3  11
HETATM   11  C   UNL     1      -9.374  15.330  65.982  1.00  0.00    -0.346 C  
BRANCH  11  12
HETATM   12  C   UNL     1     -10.870  15.482  65.655  1.00  0.00    -0.354 C  
BRANCH  12  13
HETATM   13  C   UNL     1     -11.672  14.630  66.635  1.00  0.00    -0.345 C  
HETATM   14  N   UNL     1     -11.286  12.598  66.765  1.00  0.00    -0.285 N  
HETATM   15  O   UNL     1     -12.926  13.022  65.123  1.00  0.00    -0.729 OA 
HETATM   16  C   UNL     1     -12.162  13.309  66.012  1.00  0.00    -0.424 C  
HETATM   17  C   UNL     1     -10.933  13.699  67.671  1.00  0.00    -0.267 C  
BRANCH  17  18
HETATM   18  C   UNL     1     -11.619  13.728  69.123  1.00  0.00    -0.363 A  
HETATM   19  H   UNL     1     -14.259  14.674  72.951  1.00  0.00     0.000 HD 
HETATM   20  C   UNL     1     -12.660  12.575  71.032  1.00  0.00    -0.350 A  
HETATM   21  C   UNL     1     -11.905  12.556  69.855  1.00  0.00    -0.373 A  
HETATM   22  C   UNL     1     -12.091  14.938  69.678  1.00  0.00    -0.334 A  
HETATM   23  C   UNL     1     -13.141  13.784  71.513  1.00  0.00    -0.357 A  
HETATM   24  O   UNL     1     -13.929  13.847  72.623  1.00  0.00    -0.684 OA 
HETATM   25  C   UNL     1     -12.846  14.968  70.858  1.00  0.00    -0.451 A  
ENDBRANCH  17  18
BRANCH  14  26
HETATM   26  C   UNL     1     -10.826  11.290  66.650  1.00  0.00    -0.273 A  
HETATM   27  C   UNL     1     -10.660   9.040  67.564  1.00  0.00    -0.306 A  
HETATM   28  F   UNL     1      -9.499   7.387  66.357  1.00  0.00    -0.199 F  
HETATM   29  C   UNL     1     -11.102  10.360  67.663  1.00  0.00    -0.361 A  
HETATM   30  C   UNL     1      -9.659   9.551  65.427  1.00  0.00    -0.342 A  
HETATM   31  C   UNL     1      -9.936   8.649  66.449  1.00  0.00    -0.260 A  
HETATM   32  C   UNL     1     -10.110  10.872  65.523  1.00  0.00    -0.325 A  
ENDBRANCH  14  26
ENDBRANCH  12  13
ENDBRANCH  11  12
ENDBRANCH   3  11
TORSDOF 6
ENDMDL
MODEL        6
REMARK 921   NORMALIZED FREE ENERGY PREDICTED BY IDOCK:   -7.85 KCAL/MOL
REMARK 922        TOTAL FREE ENERGY PREDICTED BY IDOCK:  -12.41 KCAL/MOL
REMARK 923 INTER-LIGAND FREE ENERGY PREDICTED BY IDOCK:  -10.75 KCAL/MOL
REMARK 924 INTRA-LIGAND FREE ENERGY PREDICTED BY IDOCK:   -1.66 KCAL/MOL
REMARK 927      BINDING AFFINITY PREDICTED BY RF-SCORE:    0.00 PKD
ROOT
HETATM    1  O   UNL     1     -13.309  14.528  72.725  1.00  0.00    -0.458 OA 
HETATM    2  H   UNL     1     -13.845  13.917  73.216  1.00  0.00     0.000 HD 
HETATM    3  C   UNL     1     -13.320  14.176  71.343  1.00  0.00    -0.331 C  
ENDROOT
BRANCH   3   4
HETATM    4  C   UNL     1     -12.901  12.732  71.161  1.00  0.00    -0.315 A  
HETATM    5  C   UNL     1     -13.284  11.740  72.080  1.00  0.00    -0.460 A  
HETATM    6  C   UNL     1     -12.110  12.365  70.058  1.00  0.00    -0.335 A  
HETATM    7  C   UNL     1     -12.912  10.410  71.887  1.00  0.00    -0.555 A  
HETATM    8  F   UNL     1     -11.813   8.788  70.579  1.00  0.00    -0.265 F  
HETATM    9  C   UNL     1     -11.742  11.033  69.864  1.00  0.00    -0.424 A  
HETATM   10  C   UNL     1     -12.152  10.068  70.776  1.00  0.00    -0.327 A  
ENDBRANCH   3   4
BRANCH   3  11
HETATM   11  C   UNL     1     -12.456  15.161  70.552  1.00  0.00    -0.429 C  
BRANCH  11  12
HETATM   12  C   UNL     1     -11.053  15.410  71.132  1.00  0.00    -0.362 C  
BRANCH  12  13
HETATM   13  C   UNL     1     -10.177  16.025  70.043  1.00  0.00    -0.130 C  
HETATM   14  N   UNL     1     -10.558  15.568  68.058  1.00  0.00    -0.263 N  
HETATM   15  O   UNL     1      -9.052  14.008  68.988  1.00  0.00    -0.016 OA 
HETATM   16  C   UNL     1      -9.742  14.998  68.980  1.00  0.00    -0.229 C  
HETATM   17  C   UNL     1     -10.834  16.787  68.828  1.00  0.00    -0.318 C  
BRANCH  17  18
HETATM   18  C   UNL     1     -10.035  18.124  68.436  1.00  0.00    -0.392 A  
HETATM   19  H   UNL     1      -6.754  21.389  67.393  1.00  0.00     0.000 HD 
HETATM   20  C   UNL     1      -9.726  20.102  67.003  1.00  0.00    -0.574 A  
HETATM   21  C   UNL     1     -10.506  19.037  67.470  1.00  0.00    -0.537 A  
HETATM   22  C   UNL     1      -8.746  18.376  68.954  1.00  0.00    -0.164 A  
HETATM   23  C   UNL     1      -8.447  20.281  67.510  1.00  0.00    -0.311 A  
HETATM   24  O   UNL     1      -7.629  21.267  67.046  1.00  0.00    -0.308 OA 
HETATM   25  C   UNL     1      -7.958  19.440  68.496  1.00  0.00    -0.395 A  
ENDBRANCH  17  18
BRANCH  14  26
HETATM   26  C   UNL     1     -11.028  15.101  66.835  1.00  0.00    -0.323 A  
HETATM   27  C   UNL     1     -12.363  13.502  65.575  1.00  0.00    -0.524 A  
HETATM   28  F   UNL     1     -12.469  13.679  63.231  1.00  0.00    -0.542 F  
HETATM   29  C   UNL     1     -11.871  13.981  66.790  1.00  0.00    -0.450 A  
HETATM   30  C   UNL     1     -11.184  15.263  64.419  1.00  0.00    -0.191 A  
HETATM   31  C   UNL     1     -12.009  14.144  64.400  1.00  0.00    -0.457 A  
HETATM   32  C   UNL     1     -10.697  15.748  65.639  1.00  0.00    -0.360 A  
ENDBRANCH  14  26
ENDBRANCH  12  13
ENDBRANCH  11  12
ENDBRANCH   3  11
TORSDOF 6
ENDMDL
MODEL        7
REMARK 921   NORMALIZED FREE ENERGY PREDICTED BY IDOCK:   -7.82 KCAL/MOL
REMARK 922        TOTAL FREE ENERGY PREDICTED BY IDOCK:  -12.36 KCAL/MOL
REMARK 923 INTER-LIGAND FREE ENERGY PREDICTED BY IDOCK:  -10.59 KCAL/MOL
REMARK 924 INTRA-LIGAND FREE ENERGY PREDICTED BY IDOCK:   -1.77 KCAL/MOL
REMARK 927      BINDING AFFINITY PREDICTED BY RF-SCORE:    0.00 PKD
ROOT
HETATM    1  O   UNL     1     -11.013  18.305  64.931  1.00  0.00    -0.660 OA 
HETATM    2  H   UNL     1     -11.344  19.101  65.330  1.00  0.00     0.000 HD 
HETATM    3  C   UNL     1     -10.707  17.349  65.943  1.00  0.00    -0.123 C  
ENDROOT
BRANCH   3   4
HETATM    4  C   UNL     1      -9.763  17.944  66.966  1.00  0.00    -0.298 A  
HETATM    5  C   UNL     1      -8.419  17.541  67.042  1.00  0.00    -0.252 A  
HETATM    6  C   UNL     1     -10.231  18.916  67.868  1.00  0.00    -0.459 A  
HETATM    7  C   UNL     1      -7.555  18.116  67.973  1.00  0.00    -0.245 A  
HETATM    8  F   UNL     1      -7.199  19.660  69.717  1.00  0.00    -0.357 F  
HETATM    9  C   UNL     1      -9.364  19.493  68.798  1.00  0.00    -0.423 A  
HETATM   10  C   UNL     1      -8.033  19.092  68.836  1.00  0.00    -0.305 A  
ENDBRANCH   3   4
BRANCH   3  11
HETATM   11  C   UNL     1     -10.172  16.067  65.299  1.00  0.00    -0.245 C  
BRANCH  11  12
HETATM   12  C   UNL     1     -11.251  15.110  64.760  1.00  0.00    -0.396 C  
BRANCH  12  13
HETATM   13  C   UNL     1     -11.927  14.423  65.944  1.00  0.00    -0.367 C  
HETATM   14  N   UNL     1     -11.426  12.466  66.403  1.00  0.00    -0.352 N  
HETATM   15  O   UNL     1     -13.211  12.519  64.861  1.00  0.00    -0.787 OA 
HETATM   16  C   UNL     1     -12.395  12.993  65.614  1.00  0.00    -0.446 C  
HETATM   17  C   UNL     1     -11.060  13.726  67.062  1.00  0.00    -0.302 C  
BRANCH  17  18
HETATM   18  C   UNL     1     -11.630  13.996  68.540  1.00  0.00    -0.357 A  
HETATM   19  H   UNL     1     -12.753  13.820  73.147  1.00  0.00     0.000 HD 
HETATM   20  C   UNL     1     -12.038  15.502  70.444  1.00  0.00    -0.426 A  
HETATM   21  C   UNL     1     -11.711  15.289  69.100  1.00  0.00    -0.355 A  
HETATM   22  C   UNL     1     -11.955  12.925  69.399  1.00  0.00    -0.327 A  
HETATM   23  C   UNL     1     -12.304  14.413  71.260  1.00  0.00    -0.359 A  
HETATM   24  O   UNL     1     -12.570  14.566  72.588  1.00  0.00    -0.339 OA 
HETATM   25  C   UNL     1     -12.286  13.127  70.745  1.00  0.00    -0.404 A  
ENDBRANCH  17  18
BRANCH  14  26
HETATM   26  C   UNL     1     -10.909  11.177  66.486  1.00  0.00    -0.245 A  
HETATM   27  C   UNL     1      -9.584   9.384  65.509  1.00  0.00    -0.328 A  
HETATM   28  F   UNL     1      -9.334   7.360  66.685  1.00  0.00    -0.158 F  
HETATM   29  C   UNL     1     -10.121  10.670  65.442  1.00  0.00    -0.356 A  
HETATM   30  C   UNL     1     -10.606   9.085  67.676  1.00  0.00    -0.298 A  
HETATM   31  C   UNL     1      -9.837   8.600  66.623  1.00  0.00    -0.266 A  
HETATM   32  C   UNL     1     -11.138  10.378  67.612  1.00  0.00    -0.361 A  
ENDBRANCH  14  26
ENDBRANCH  12  13
ENDBRANCH  11  12
ENDBRANCH   3  11
TORSDOF 6
ENDMDL
MODEL        8
REMARK 921   NORMALIZED FREE ENERGY PREDICTED BY IDOCK:   -7.80 KCAL/MOL
REMARK 922        TOTAL FREE ENERGY PREDICTED BY IDOCK:  -12.35 KCAL/MOL
REMARK 923 INTER-LIGAND FREE ENERGY PREDICTED BY IDOCK:  -10.72 KCAL/MOL
REMARK 924 INTRA-LIGAND FREE ENERGY PREDICTED BY IDOCK:   -1.62 KCAL/MOL
REMARK 927      BINDING AFFINITY PREDICTED BY RF-SCORE:    0.00 PKD
ROOT
HETATM    1  O   UNL     1     -11.547   6.222  67.361  1.00  0.00    -0.606 OA 
HETATM    2  H   UNL     1     -11.604   5.284  67.503  1.00  0.00     0.000 HD 
HETATM    3  C   UNL     1     -10.539   6.777  68.203  1.00  0.00    -0.230 C  
ENDROOT
BRANCH   3   4
HETATM    4  C   UNL     1     -10.791   6.403  69.648  1.00  0.00    -0.380 A  
HETATM    5  C   UNL     1     -11.774   7.056  70.411  1.00  0.00    -0.326 A  
HETATM    6  C   UNL     1     -10.029   5.387  70.253  1.00  0.00    -0.298 A  
HETATM    7  C   UNL     1     -12.013   6.684  71.733  1.00  0.00    -0.391 A  
HETATM    8  F   UNL     1     -11.507   5.290  73.564  1.00  0.00    -0.339 F  
HETATM    9  C   UNL     1     -10.271   5.014  71.575  1.00  0.00    -0.273 A  
HETATM   10  C   UNL     1     -11.265   5.661  72.301  1.00  0.00    -0.259 A  
ENDBRANCH   3   4
BRANCH   3  11
HETATM   11  C   UNL     1     -10.449   8.287  67.975  1.00  0.00    -0.239 C  
BRANCH  11  12
HETATM   12  C   UNL     1      -9.379   9.010  68.813  1.00  0.00    -0.140 C  
BRANCH  12  13
HETATM   13  C   UNL     1      -9.857  10.433  69.090  1.00  0.00    -0.237 C  
HETATM   14  N   UNL     1     -10.631  11.564  67.535  1.00  0.00    -0.198 N  
HETATM   15  O   UNL     1      -8.295  11.860  67.687  1.00  0.00    -0.137 OA 
HETATM   16  C   UNL     1      -9.373  11.440  68.030  1.00  0.00    -0.171 C  
HETATM   17  C   UNL     1     -11.303  10.887  68.652  1.00  0.00    -0.295 C  
BRANCH  17  18
HETATM   18  C   UNL     1     -12.023  11.799  69.762  1.00  0.00    -0.392 A  
HETATM   19  H   UNL     1     -13.807  13.653  73.749  1.00  0.00     0.000 HD 
HETATM   20  C   UNL     1     -12.434  13.989  70.808  1.00  0.00    -0.442 A  
HETATM   21  C   UNL     1     -11.960  13.208  69.748  1.00  0.00    -0.382 A  
HETATM   22  C   UNL     1     -12.648  11.216  70.886  1.00  0.00    -0.483 A  
HETATM   23  C   UNL     1     -12.998  13.366  71.912  1.00  0.00    -0.326 A  
HETATM   24  O   UNL     1     -13.421  14.079  72.993  1.00  0.00    -0.655 OA 
HETATM   25  C   UNL     1     -13.128  11.987  71.951  1.00  0.00    -0.475 A  
ENDBRANCH  17  18
BRANCH  14  26
HETATM   26  C   UNL     1     -11.098  12.086  66.334  1.00  0.00    -0.318 A  
HETATM   27  C   UNL     1     -11.199  11.986  63.904  1.00  0.00    -0.490 A  
HETATM   28  F   UNL     1     -12.469  13.585  62.734  1.00  0.00    -0.445 F  
HETATM   29  C   UNL     1     -10.733  11.485  65.120  1.00  0.00    -0.348 A  
HETATM   30  C   UNL     1     -12.415  13.701  65.091  1.00  0.00    -0.488 A  
HETATM   31  C   UNL     1     -12.030  13.094  63.900  1.00  0.00    -0.488 A  
HETATM   32  C   UNL     1     -11.954  13.193  66.311  1.00  0.00    -0.473 A  
ENDBRANCH  14  26
ENDBRANCH  12  13
ENDBRANCH  11  12
ENDBRANCH   3  11
TORSDOF 6
ENDMDL
MODEL        9
REMARK 921   NORMALIZED FREE ENERGY PREDICTED BY IDOCK:   -7.69 KCAL/MOL
REMARK 922        TOTAL FREE ENERGY PREDICTED BY IDOCK:  -12.19 KCAL/MOL
REMARK 923 INTER-LIGAND FREE ENERGY PREDICTED BY IDOCK:   -9.92 KCAL/MOL
REMARK 924 INTRA-LIGAND FREE ENERGY PREDICTED BY IDOCK:   -2.27 KCAL/MOL
REMARK 927      BINDING AFFINITY PREDICTED BY RF-SCORE:    0.00 PKD
ROOT
HETATM    1  O   UNL     1      -8.056   6.720  69.614  1.00  0.00    -0.122 OA 
HETATM    2  H   UNL     1      -8.312   5.845  69.880  1.00  0.00     0.000 HD 
HETATM    3  C   UNL     1      -8.367   7.649  70.649  1.00  0.00    -0.125 C  
ENDROOT
BRANCH   3   4
HETATM    4  C   UNL     1      -9.827   7.542  71.036  1.00  0.00    -0.182 A  
HETATM    5  C   UNL     1     -10.309   8.100  72.232  1.00  0.00    -0.361 A  
HETATM    6  C   UNL     1     -10.728   6.868  70.192  1.00  0.00    -0.270 A  
HETATM    7  C   UNL     1     -11.660   8.016  72.563  1.00  0.00    -0.464 A  
HETATM    8  F   UNL     1     -13.837   7.305  72.009  1.00  0.00    -0.359 F  
HETATM    9  C   UNL     1     -12.081   6.788  70.523  1.00  0.00    -0.332 A  
HETATM   10  C   UNL     1     -12.535   7.368  71.702  1.00  0.00    -0.349 A  
ENDBRANCH   3   4
BRANCH   3  11
HETATM   11  C   UNL     1      -7.955   9.059  70.220  1.00  0.00    -0.124 C  
BRANCH  11  12
HETATM   12  C   UNL     1      -8.547   9.531  68.880  1.00  0.00    -0.128 C  
BRANCH  12  13
HETATM   13  C   UNL     1      -9.351  10.806  69.124  1.00  0.00    -0.141 C  
HETATM   14  N   UNL     1     -10.329  11.708  67.536  1.00  0.00    -0.194 N  
HETATM   15  O   UNL     1      -8.131  12.543  67.731  1.00  0.00    -0.140 OA 
HETATM   16  C   UNL     1      -9.090  11.886  68.058  1.00  0.00    -0.189 C  
HETATM   17  C   UNL     1     -10.851  10.905  68.649  1.00  0.00    -0.217 C  
BRANCH  17  18
HETATM   18  C   UNL     1     -11.791  11.635  69.729  1.00  0.00    -0.428 A  
HETATM   19  H   UNL     1     -14.186  12.951  73.608  1.00  0.00     0.000 HD 
HETATM   20  C   UNL     1     -12.586  13.673  70.857  1.00  0.00    -0.421 A  
HETATM   21  C   UNL     1     -11.912  13.038  69.808  1.00  0.00    -0.377 A  
HETATM   22  C   UNL     1     -12.441  10.897  70.742  1.00  0.00    -0.489 A  
HETATM   23  C   UNL     1     -13.170  12.904  71.854  1.00  0.00    -0.423 A  
HETATM   24  O   UNL     1     -13.787  13.477  72.925  1.00  0.00    -0.645 OA 
HETATM   25  C   UNL     1     -13.121  11.522  71.795  1.00  0.00    -0.503 A  
ENDBRANCH  17  18
BRANCH  14  26
HETATM   26  C   UNL     1     -10.877  12.094  66.317  1.00  0.00    -0.282 A  
HETATM   27  C   UNL     1     -12.336  13.573  65.049  1.00  0.00    -0.468 A  
HETATM   28  F   UNL     1     -12.524  13.292  62.720  1.00  0.00    -0.451 F  
HETATM   29  C   UNL     1     -11.783  13.163  66.263  1.00  0.00    -0.424 A  
HETATM   30  C   UNL     1     -11.080  11.854  63.911  1.00  0.00    -0.483 A  
HETATM   31  C   UNL     1     -11.985  12.910  63.885  1.00  0.00    -0.480 A  
HETATM   32  C   UNL     1     -10.519  11.448  65.128  1.00  0.00    -0.351 A  
ENDBRANCH  14  26
ENDBRANCH  12  13
ENDBRANCH  11  12
ENDBRANCH   3  11
TORSDOF 6
ENDMDL
MODEL       10
REMARK 921   NORMALIZED FREE ENERGY PREDICTED BY IDOCK:   -7.68 KCAL/MOL
REMARK 922        TOTAL FREE ENERGY PREDICTED BY IDOCK:  -12.18 KCAL/MOL
REMARK 923 INTER-LIGAND FREE ENERGY PREDICTED BY IDOCK:  -10.42 KCAL/MOL
REMARK 924 INTRA-LIGAND FREE ENERGY PREDICTED BY IDOCK:   -1.76 KCAL/MOL
REMARK 927      BINDING AFFINITY PREDICTED BY RF-SCORE:    0.00 PKD
ROOT
HETATM    1  O   UNL     1      -7.623   7.021  69.092  1.00  0.00    -0.095 OA 
HETATM    2  H   UNL     1      -7.475   6.308  69.702  1.00  0.00     0.000 HD 
HETATM    3  C   UNL     1      -8.315   8.081  69.747  1.00  0.00    -0.122 C  
ENDROOT
BRANCH   3   4
HETATM    4  C   UNL     1      -9.586   7.568  70.389  1.00  0.00    -0.168 A  
HETATM    5  C   UNL     1      -9.800   7.676  71.774  1.00  0.00    -0.200 A  
HETATM    6  C   UNL     1     -10.577   6.964  69.596  1.00  0.00    -0.258 A  
HETATM    7  C   UNL     1     -10.986   7.221  72.348  1.00  0.00    -0.306 A  
HETATM    8  F   UNL     1     -13.109   6.233  72.089  1.00  0.00    -0.330 F  
HETATM    9  C   UNL     1     -11.766   6.512  70.172  1.00  0.00    -0.419 A  
HETATM   10  C   UNL     1     -11.961   6.651  71.541  1.00  0.00    -0.352 A  
ENDBRANCH   3   4
BRANCH   3  11
HETATM   11  C   UNL     1      -8.554   9.229  68.763  1.00  0.00    -0.131 C  
BRANCH  11  12
HETATM   12  C   UNL     1      -9.088  10.527  69.393  1.00  0.00    -0.123 C  
BRANCH  12  13
HETATM   13  C   UNL     1     -10.392  10.907  68.695  1.00  0.00    -0.206 C  
HETATM   14  N   UNL     1     -11.655  12.286  69.588  1.00  0.00    -0.295 N  
HETATM   15  O   UNL     1     -12.177  10.102  70.311  1.00  0.00    -0.248 OA 
HETATM   16  C   UNL     1     -11.595  10.932  69.657  1.00  0.00    -0.322 C  
HETATM   17  C   UNL     1     -10.748  12.422  68.441  1.00  0.00    -0.235 C  
BRANCH  17  18
HETATM   18  C   UNL     1     -11.396  12.667  66.992  1.00  0.00    -0.377 A  
HETATM   19  H   UNL     1     -13.031  14.485  62.926  1.00  0.00     0.000 HD 
HETATM   20  C   UNL     1     -11.636  12.068  64.616  1.00  0.00    -0.364 A  
HETATM   21  C   UNL     1     -11.223  11.767  65.919  1.00  0.00    -0.345 A  
HETATM   22  C   UNL     1     -12.064  13.873  66.690  1.00  0.00    -0.485 A  
HETATM   23  C   UNL     1     -12.247  13.288  64.362  1.00  0.00    -0.390 A  
HETATM   24  O   UNL     1     -12.613  13.651  63.100  1.00  0.00    -0.792 OA 
HETATM   25  C   UNL     1     -12.483  14.184  65.391  1.00  0.00    -0.488 A  
ENDBRANCH  17  18
BRANCH  14  26
HETATM   26  C   UNL     1     -12.301  13.219  70.393  1.00  0.00    -0.295 A  
HETATM   27  C   UNL     1     -13.686  13.711  72.333  1.00  0.00    -0.697 A  
HETATM   28  F   UNL     1     -14.225  15.948  72.829  1.00  0.00    -0.649 F  
HETATM   29  C   UNL     1     -13.039  12.792  71.506  1.00  0.00    -0.380 A  
HETATM   30  C   UNL     1     -12.860  15.512  70.953  1.00  0.00    -0.535 A  
HETATM   31  C   UNL     1     -13.596  15.063  72.045  1.00  0.00    -0.420 A  
HETATM   32  C   UNL     1     -12.205  14.590  70.129  1.00  0.00    -0.399 A  
ENDBRANCH  14  26
ENDBRANCH  12  13
ENDBRANCH  11  12
ENDBRANCH   3  11
TORSDOF 6
ENDMDL
MODEL       11
REMARK 921   NORMALIZED FREE ENERGY PREDICTED BY IDOCK:   -7.66 KCAL/MOL
REMARK 922        TOTAL FREE ENERGY PREDICTED BY IDOCK:  -12.15 KCAL/MOL
REMARK 923 INTER-LIGAND FREE ENERGY PREDICTED BY IDOCK:  -11.45 KCAL/MOL
REMARK 924 INTRA-LIGAND FREE ENERGY PREDICTED BY IDOCK:   -0.70 KCAL/MOL
REMARK 927      BINDING AFFINITY PREDICTED BY RF-SCORE:    0.00 PKD
ROOT
HETATM    1  O   UNL     1     -12.351  14.560  63.769  1.00  0.00    -1.013 OA 
HETATM    2  H   UNL     1     -11.832  14.625  62.976  1.00  0.00     0.000 HD 
HETATM    3  C   UNL     1     -11.534  14.104  64.844  1.00  0.00    -0.366 C  
ENDROOT
BRANCH   3   4
HETATM    4  C   UNL     1     -10.842  12.810  64.473  1.00  0.00    -0.373 A  
HETATM    5  C   UNL     1      -9.973  12.163  65.368  1.00  0.00    -0.269 A  
HETATM    6  C   UNL     1     -11.061  12.236  63.208  1.00  0.00    -0.389 A  
HETATM    7  C   UNL     1      -9.362  10.959  65.022  1.00  0.00    -0.260 A  
HETATM    8  F   UNL     1      -9.043   9.232  63.451  1.00  0.00    -0.239 F  
HETATM    9  C   UNL     1     -10.451  11.029  62.864  1.00  0.00     0.050 A  
HETATM   10  C   UNL     1      -9.613  10.399  63.776  1.00  0.00    -0.310 A  
ENDBRANCH   3   4
BRANCH   3  11
HETATM   11  C   UNL     1     -12.371  13.999  66.122  1.00  0.00    -0.491 C  
BRANCH  11  12
HETATM   12  C   UNL     1     -11.866  12.969  67.149  1.00  0.00    -0.431 C  
BRANCH  12  13
HETATM   13  C   UNL     1     -11.432  13.712  68.410  1.00  0.00    -0.346 C  
HETATM   14  N   UNL     1     -10.916  15.714  68.281  1.00  0.00    -0.300 N  
HETATM   15  O   UNL     1      -9.026  14.351  67.913  1.00  0.00    -0.174 OA 
HETATM   16  C   UNL     1     -10.179  14.579  68.187  1.00  0.00    -0.230 C  
HETATM   17  C   UNL     1     -12.124  15.070  68.812  1.00  0.00    -0.180 C  
BRANCH  17  18
HETATM   18  C   UNL     1     -12.400  15.175  70.391  1.00  0.00    -0.411 A  
HETATM   19  H   UNL     1     -12.292  16.167  75.030  1.00  0.00     0.000 HD 
HETATM   20  C   UNL     1     -13.934  15.517  72.287  1.00  0.00    -0.642 A  
HETATM   21  C   UNL     1     -13.701  15.247  70.934  1.00  0.00    -0.363 A  
HETATM   22  C   UNL     1     -11.336  15.334  71.305  1.00  0.00    -0.416 A  
HETATM   23  C   UNL     1     -12.854  15.712  73.136  1.00  0.00    -0.509 A  
HETATM   24  O   UNL     1     -13.031  16.034  74.449  1.00  0.00    -0.580 OA 
HETATM   25  C   UNL     1     -11.558  15.602  72.662  1.00  0.00    -0.484 A  
ENDBRANCH  17  18
BRANCH  14  26
HETATM   26  C   UNL     1     -10.633  17.026  67.913  1.00  0.00    -0.365 A  
HETATM   27  C   UNL     1     -10.386  18.707  66.171  1.00  0.00    -0.481 A  
HETATM   28  F   UNL     1      -9.817  20.912  66.765  1.00  0.00    -0.530 F  
HETATM   29  C   UNL     1     -10.656  17.395  66.560  1.00  0.00    -0.184 A  
HETATM   30  C   UNL     1     -10.071  19.315  68.486  1.00  0.00    -0.513 A  
HETATM   31  C   UNL     1     -10.089  19.654  67.137  1.00  0.00    -0.411 A  
HETATM   32  C   UNL     1     -10.350  18.001  68.877  1.00  0.00    -0.244 A  
ENDBRANCH  14  26
ENDBRANCH  12  13
ENDBRANCH  11  12
ENDBRANCH   3  11
TORSDOF 6
ENDMDL
MODEL       12
REMARK 921   NORMALIZED FREE ENERGY PREDICTED BY IDOCK:   -7.60 KCAL/MOL
REMARK 922        TOTAL FREE ENERGY PREDICTED BY IDOCK:  -12.07 KCAL/MOL
REMARK 923 INTER-LIGAND FREE ENERGY PREDICTED BY IDOCK:   -9.07 KCAL/MOL
REMARK 924 INTRA-LIGAND FREE ENERGY PREDICTED BY IDOCK:   -3.00 KCAL/MOL
REMARK 927      BINDING AFFINITY PREDICTED BY RF-SCORE:    0.00 PKD
ROOT
HETATM    1  O   UNL     1      -7.339  14.489  70.150  1.00  0.00    -0.392 OA 
HETATM    2  H   UNL     1      -7.633  15.269  70.605  1.00  0.00     0.000 HD 
HETATM    3  C   UNL     1      -6.930  14.827  68.827  1.00  0.00    -0.103 C  
ENDROOT
BRANCH   3   4
HETATM    4  C   UNL     1      -8.037  15.562  68.102  1.00  0.00    -0.132 A  
HETATM    5  C   UNL     1      -9.054  16.230  68.806  1.00  0.00    -0.245 A  
HETATM    6  C   UNL     1      -8.063  15.580  66.696  1.00  0.00    -0.189 A  
HETATM    7  C   UNL     1     -10.053  16.924  68.126  1.00  0.00    -0.299 A  
HETATM    8  F   UNL     1     -10.991  17.632  66.084  1.00  0.00    -0.207 F  
HETATM    9  C   UNL     1      -9.063  16.278  66.016  1.00  0.00    -0.332 A  
HETATM   10  C   UNL     1     -10.044  16.949  66.738  1.00  0.00    -0.294 A  
ENDBRANCH   3   4
BRANCH   3  11
HETATM   11  C   UNL     1      -6.457  13.569  68.094  1.00  0.00    -0.123 C  
BRANCH  11  12
HETATM   12  C   UNL     1      -6.991  12.243  68.664  1.00  0.00    -0.097 C  
BRANCH  12  13
HETATM   13  C   UNL     1      -8.246  11.850  67.888  1.00  0.00    -0.150 C  
HETATM   14  N   UNL     1      -9.893  11.132  68.921  1.00  0.00    -0.191 N  
HETATM   15  O   UNL     1      -8.452   9.359  68.332  1.00  0.00    -0.118 OA 
HETATM   16  C   UNL     1      -8.834  10.504  68.352  1.00  0.00    -0.140 C  
HETATM   17  C   UNL     1      -9.651  12.439  68.295  1.00  0.00    -0.211 C  
BRANCH  17  18
HETATM   18  C   UNL     1     -10.542  12.840  67.021  1.00  0.00    -0.253 A  
HETATM   19  H   UNL     1     -13.429  14.946  63.899  1.00  0.00     0.000 HD 
HETATM   20  C   UNL     1     -10.810  13.127  64.590  1.00  0.00    -0.383 A  
HETATM   21  C   UNL     1     -10.117  12.617  65.694  1.00  0.00    -0.285 A  
HETATM   22  C   UNL     1     -11.745  13.563  67.175  1.00  0.00    -0.419 A  
HETATM   23  C   UNL     1     -11.963  13.871  64.796  1.00  0.00    -0.406 A  
HETATM   24  O   UNL     1     -12.640  14.437  63.758  1.00  0.00    -0.829 OA 
HETATM   25  C   UNL     1     -12.448  14.076  66.077  1.00  0.00    -0.489 A  
ENDBRANCH  17  18
BRANCH  14  26
HETATM   26  C   UNL     1     -10.833  10.692  69.847  1.00  0.00    -0.241 A  
HETATM   27  C   UNL     1     -11.484   9.118  71.585  1.00  0.00    -0.451 A  
HETATM   28  F   UNL     1     -13.582   9.350  72.626  1.00  0.00    -0.473 F  
HETATM   29  C   UNL     1     -10.560   9.570  70.642  1.00  0.00    -0.374 A  
HETATM   30  C   UNL     1     -12.976  10.911  70.962  1.00  0.00    -0.396 A  
HETATM   31  C   UNL     1     -12.687   9.788  71.732  1.00  0.00    -0.426 A  
HETATM   32  C   UNL     1     -12.045  11.369  70.023  1.00  0.00    -0.417 A  
ENDBRANCH  14  26
ENDBRANCH  12  13
ENDBRANCH  11  12
ENDBRANCH   3  11
TORSDOF 6
ENDMDL
MODEL       13
REMARK 921   NORMALIZED FREE ENERGY PREDICTED BY IDOCK:   -7.59 KCAL/MOL
REMARK 922        TOTAL FREE ENERGY PREDICTED BY IDOCK:  -12.06 KCAL/MOL
REMARK 923 INTER-LIGAND FREE ENERGY PREDICTED BY IDOCK:  -10.33 KCAL/MOL
REMARK 924 INTRA-LIGAND FREE ENERGY PREDICTED BY IDOCK:   -1.73 KCAL/MOL
REMARK 927      BINDING AFFINITY PREDICTED BY RF-SCORE:    0.00 PKD
ROOT
HETATM    1  O   UNL     1      -7.686  15.740  66.506  1.00  0.00    -0.224 OA 
HETATM    2  H   UNL     1      -7.016  16.399  66.641  1.00  0.00     0.000 HD 
HETATM    3  C   UNL     1      -8.859  16.349  65.970  1.00  0.00    -0.261 C  
ENDROOT
BRANCH   3   4
HETATM    4  C   UNL     1      -9.312  17.493  66.851  1.00  0.00    -0.275 A  
HETATM    5  C   UNL     1     -10.309  18.389  66.429  1.00  0.00    -0.430 A  
HETATM    6  C   UNL     1      -8.728  17.677  68.117  1.00  0.00    -0.265 A  
HETATM    7  C   UNL     1     -10.734  19.424  67.262  1.00  0.00    -0.603 A  
HETATM    8  F   UNL     1     -10.583  20.550  69.325  1.00  0.00    -0.416 F  
HETATM    9  C   UNL     1      -9.158  18.711  68.950  1.00  0.00    -0.225 A  
HETATM   10  C   UNL     1     -10.161  19.570  68.517  1.00  0.00    -0.445 A  
ENDBRANCH   3   4
BRANCH   3  11
HETATM   11  C   UNL     1      -9.939  15.286  65.752  1.00  0.00    -0.391 C  
BRANCH  11  12
HETATM   12  C   UNL     1      -9.784  14.014  66.605  1.00  0.00    -0.296 C  
BRANCH  12  13
HETATM   13  C   UNL     1     -10.956  13.937  67.581  1.00  0.00    -0.278 C  
HETATM   14  N   UNL     1     -11.253  12.201  68.673  1.00  0.00    -0.247 N  
HETATM   15  O   UNL     1     -12.401  12.087  66.616  1.00  0.00    -0.354 OA 
HETATM   16  C   UNL     1     -11.733  12.612  67.473  1.00  0.00    -0.368 C  
HETATM   17  C   UNL     1     -10.717  13.506  69.080  1.00  0.00    -0.149 C  
BRANCH  17  18
HETATM   18  C   UNL     1     -11.575  14.384  70.116  1.00  0.00    -0.327 A  
HETATM   19  H   UNL     1     -14.492  15.944  73.518  1.00  0.00     0.000 HD 
HETATM   20  C   UNL     1     -11.743  16.192  71.777  1.00  0.00    -0.568 A  
HETATM   21  C   UNL     1     -11.061  15.536  70.746  1.00  0.00    -0.383 A  
HETATM   22  C   UNL     1     -12.851  13.957  70.544  1.00  0.00    -0.250 A  
HETATM   23  C   UNL     1     -12.974  15.707  72.194  1.00  0.00    -0.449 A  
HETATM   24  O   UNL     1     -13.649  16.277  73.232  1.00  0.00    -0.530 OA 
HETATM   25  C   UNL     1     -13.544  14.608  71.573  1.00  0.00    -0.481 A  
ENDBRANCH  17  18
BRANCH  14  26
HETATM   26  C   UNL     1     -11.216  10.943  69.266  1.00  0.00    -0.265 A  
HETATM   27  C   UNL     1     -11.862   9.467  71.091  1.00  0.00    -0.436 A  
HETATM   28  F   UNL     1     -11.153   7.223  71.067  1.00  0.00    -0.250 F  
HETATM   29  C   UNL     1     -11.878  10.723  70.483  1.00  0.00    -0.453 A  
HETATM   30  C   UNL     1     -10.526   8.617  69.268  1.00  0.00    -0.226 A  
HETATM   31  C   UNL     1     -11.180   8.427  70.481  1.00  0.00    -0.238 A  
HETATM   32  C   UNL     1     -10.548   9.875  68.655  1.00  0.00    -0.244 A  
ENDBRANCH  14  26
ENDBRANCH  12  13
ENDBRANCH  11  12
ENDBRANCH   3  11
TORSDOF 6
ENDMDL
MODEL       14
REMARK 921   NORMALIZED FREE ENERGY PREDICTED BY IDOCK:   -7.53 KCAL/MOL
REMARK 922        TOTAL FREE ENERGY PREDICTED BY IDOCK:  -11.98 KCAL/MOL
REMARK 923 INTER-LIGAND FREE ENERGY PREDICTED BY IDOCK:  -10.55 KCAL/MOL
REMARK 924 INTRA-LIGAND FREE ENERGY PREDICTED BY IDOCK:   -1.44 KCAL/MOL
REMARK 927      BINDING AFFINITY PREDICTED BY RF-SCORE:    0.00 PKD
ROOT
HETATM    1  O   UNL     1     -11.602   7.286  69.433  1.00  0.00    -0.473 OA 
HETATM    2  H   UNL     1     -12.277   6.927  68.868  1.00  0.00     0.000 HD 
HETATM    3  C   UNL     1     -10.635   7.980  68.648  1.00  0.00    -0.109 C  
ENDROOT
BRANCH   3   4
HETATM    4  C   UNL     1     -10.091   7.078  67.560  1.00  0.00    -0.236 A  
HETATM    5  C   UNL     1      -8.916   7.405  66.861  1.00  0.00    -0.150 A  
HETATM    6  C   UNL     1     -10.768   5.891  67.229  1.00  0.00    -0.380 A  
HETATM    7  C   UNL     1      -8.412   6.553  65.879  1.00  0.00    -0.147 A  
HETATM    8  F   UNL     1      -8.590   4.545  64.659  1.00  0.00    -0.116 F  
HETATM    9  C   UNL     1     -10.260   5.038  66.248  1.00  0.00    -0.306 A  
HETATM   10  C   UNL     1      -9.084   5.374  65.587  1.00  0.00    -0.140 A  
ENDBRANCH   3   4
BRANCH   3  11
HETATM   11  C   UNL     1      -9.548   8.557  69.557  1.00  0.00    -0.170 C  
BRANCH  11  12
HETATM   12  C   UNL     1      -9.532  10.093  69.660  1.00  0.00    -0.226 C  
BRANCH  12  13
HETATM   13  C   UNL     1     -10.757  10.642  68.932  1.00  0.00    -0.254 C  
HETATM   14  N   UNL     1     -11.839  12.187  69.791  1.00  0.00    -0.332 N  
HETATM   15  O   UNL     1     -12.669  10.099  70.510  1.00  0.00    -0.280 OA 
HETATM   16  C   UNL     1     -11.965  10.838  69.867  1.00  0.00    -0.342 C  
HETATM   17  C   UNL     1     -10.896  12.191  68.665  1.00  0.00    -0.235 C  
BRANCH  17  18
HETATM   18  C   UNL     1     -11.473  12.512  67.201  1.00  0.00    -0.414 A  
HETATM   19  H   UNL     1     -12.982  14.552  63.191  1.00  0.00     0.000 HD 
HETATM   20  C   UNL     1     -11.535  12.094  64.776  1.00  0.00    -0.377 A  
HETATM   21  C   UNL     1     -11.181  11.714  66.075  1.00  0.00    -0.299 A  
HETATM   22  C   UNL     1     -12.199  13.697  66.951  1.00  0.00    -0.398 A  
HETATM   23  C   UNL     1     -12.207  13.291  64.577  1.00  0.00    -0.400 A  
HETATM   24  O   UNL     1     -12.522  13.732  63.327  1.00  0.00    -0.819 OA 
HETATM   25  C   UNL     1     -12.561  14.086  65.655  1.00  0.00    -0.542 A  
ENDBRANCH  17  18
BRANCH  14  26
HETATM   26  C   UNL     1     -12.368  13.204  70.579  1.00  0.00    -0.304 A  
HETATM   27  C   UNL     1     -13.710  13.893  72.489  1.00  0.00    -0.665 A  
HETATM   28  F   UNL     1     -13.954  16.185  72.962  1.00  0.00    -0.671 F  
HETATM   29  C   UNL     1     -13.177  12.889  71.680  1.00  0.00    -0.416 A  
HETATM   30  C   UNL     1     -12.625  15.556  71.115  1.00  0.00    -0.509 A  
HETATM   31  C   UNL     1     -13.435  15.218  72.195  1.00  0.00    -0.446 A  
HETATM   32  C   UNL     1     -12.085  14.548  70.309  1.00  0.00    -0.386 A  
ENDBRANCH  14  26
ENDBRANCH  12  13
ENDBRANCH  11  12
ENDBRANCH   3  11
TORSDOF 6
ENDMDL
MODEL       15
REMARK 921   NORMALIZED FREE ENERGY PREDICTED BY IDOCK:   -7.49 KCAL/MOL
REMARK 922        TOTAL FREE ENERGY PREDICTED BY IDOCK:  -11.92 KCAL/MOL
REMARK 923 INTER-LIGAND FREE ENERGY PREDICTED BY IDOCK:   -9.99 KCAL/MOL
REMARK 924 INTRA-LIGAND FREE ENERGY PREDICTED BY IDOCK:   -1.93 KCAL/MOL
REMARK 927      BINDING AFFINITY PREDICTED BY RF-SCORE:    0.00 PKD
ROOT
HETATM    1  O   UNL     1      -6.080  18.024  69.880  1.00  0.00    -0.231 OA 
HETATM    2  H   UNL     1      -5.703  18.832  69.552  1.00  0.00     0.000 HD 
HETATM    3  C   UNL     1      -6.727  17.328  68.818  1.00  0.00    -0.203 C  
ENDROOT
BRANCH   3   4
HETATM    4  C   UNL     1      -7.737  18.225  68.135  1.00  0.00    -0.288 A  
HETATM    5  C   UNL     1      -8.867  18.705  68.817  1.00  0.00    -0.287 A  
HETATM    6  C   UNL     1      -7.553  18.588  66.788  1.00  0.00    -0.246 A  
HETATM    7  C   UNL     1      -9.776  19.551  68.182  1.00  0.00    -0.483 A  
HETATM    8  F   UNL     1     -10.421  20.745  66.256  1.00  0.00    -0.294 F  
HETATM    9  C   UNL     1      -8.462  19.438  66.155  1.00  0.00    -0.303 A  
HETATM   10  C   UNL     1      -9.560  19.916  66.860  1.00  0.00    -0.394 A  
ENDBRANCH   3   4
BRANCH   3  11
HETATM   11  C   UNL     1      -7.334  16.026  69.348  1.00  0.00    -0.212 C  
BRANCH  11  12
HETATM   12  C   UNL     1      -7.937  15.103  68.273  1.00  0.00    -0.129 C  
BRANCH  12  13
HETATM   13  C   UNL     1      -9.457  15.116  68.417  1.00  0.00    -0.208 C  
HETATM   14  N   UNL     1     -10.620  14.209  66.962  1.00  0.00    -0.275 N  
HETATM   15  O   UNL     1     -10.224  16.468  66.409  1.00  0.00    -0.292 OA 
HETATM   16  C   UNL     1     -10.174  15.482  67.104  1.00  0.00    -0.260 C  
HETATM   17  C   UNL     1     -10.277  13.772  68.321  1.00  0.00    -0.245 C  
BRANCH  17  18
HETATM   18  C   UNL     1     -11.457  13.694  69.408  1.00  0.00    -0.343 A  
HETATM   19  H   UNL     1     -14.334  12.568  73.010  1.00  0.00     0.000 HD 
HETATM   20  C   UNL     1     -12.946  14.773  71.045  1.00  0.00    -0.423 A  
HETATM   21  C   UNL     1     -12.048  14.843  69.974  1.00  0.00    -0.387 A  
HETATM   22  C   UNL     1     -11.865  12.455  69.948  1.00  0.00    -0.376 A  
HETATM   23  C   UNL     1     -13.281  13.533  71.571  1.00  0.00    -0.322 A  
HETATM   24  O   UNL     1     -14.105  13.416  72.650  1.00  0.00    -0.767 OA 
HETATM   25  C   UNL     1     -12.765  12.373  71.018  1.00  0.00    -0.315 A  
ENDBRANCH  17  18
BRANCH  14  26
HETATM   26  C   UNL     1     -11.147  13.537  65.863  1.00  0.00    -0.284 A  
HETATM   27  C   UNL     1     -10.795  12.341  63.773  1.00  0.00    -0.495 A  
HETATM   28  F   UNL     1     -12.653  11.519  62.586  1.00  0.00    -0.318 F  
HETATM   29  C   UNL     1     -10.289  13.027  64.877  1.00  0.00    -0.343 A  
HETATM   30  C   UNL     1     -13.033  12.652  64.622  1.00  0.00    -0.225 A  
HETATM   31  C   UNL     1     -12.163  12.166  63.651  1.00  0.00    -0.562 A  
HETATM   32  C   UNL     1     -12.525  13.333  65.734  1.00  0.00    -0.480 A  
ENDBRANCH  14  26
ENDBRANCH  12  13
ENDBRANCH  11  12
ENDBRANCH   3  11
TORSDOF 6
ENDMDL
MODEL       16
REMARK 921   NORMALIZED FREE ENERGY PREDICTED BY IDOCK:   -7.48 KCAL/MOL
REMARK 922        TOTAL FREE ENERGY PREDICTED BY IDOCK:  -11.92 KCAL/MOL
REMARK 923 INTER-LIGAND FREE ENERGY PREDICTED BY IDOCK:  -10.17 KCAL/MOL
REMARK 924 INTRA-LIGAND FREE ENERGY PREDICTED BY IDOCK:   -1.75 KCAL/MOL
REMARK 927      BINDING AFFINITY PREDICTED BY RF-SCORE:    0.00 PKD
ROOT
HETATM    1  O   UNL     1     -11.742  11.210  67.372  1.00  0.00    -0.564 OA 
HETATM    2  H   UNL     1     -12.289  10.434  67.393  1.00  0.00     0.000 HD 
HETATM    3  C   UNL     1     -10.435  10.892  67.844  1.00  0.00    -0.195 C  
ENDROOT
BRANCH   3   4
HETATM    4  C   UNL     1     -10.507  10.246  69.211  1.00  0.00    -0.250 A  
HETATM    5  C   UNL     1     -11.701  10.238  69.952  1.00  0.00    -0.298 A  
HETATM    6  C   UNL     1      -9.363   9.644  69.763  1.00  0.00    -0.238 A  
HETATM    7  C   UNL     1     -11.760   9.618  71.200  1.00  0.00    -0.450 A  
HETATM    8  F   UNL     1     -10.684   8.393  72.901  1.00  0.00    -0.400 F  
HETATM    9  C   UNL     1      -9.424   9.020  71.010  1.00  0.00    -0.342 A  
HETATM   10  C   UNL     1     -10.623   9.007  71.713  1.00  0.00    -0.356 A  
ENDBRANCH   3   4
BRANCH   3  11
HETATM   11  C   UNL     1      -9.553  12.143  67.810  1.00  0.00    -0.195 C  
BRANCH  11  12
HETATM   12  C   UNL     1      -9.526  12.884  66.462  1.00  0.00    -0.251 C  
BRANCH  12  13
HETATM   13  C   UNL     1      -9.993  14.320  66.686  1.00  0.00    -0.279 C  
HETATM   14  N   UNL     1     -10.960  14.808  68.453  1.00  0.00    -0.244 N  
HETATM   15  O   UNL     1     -12.518  14.098  66.830  1.00  0.00    -0.396 OA 
HETATM   16  C   UNL     1     -11.426  14.398  67.247  1.00  0.00    -0.359 C  
HETATM   17  C   UNL     1      -9.592  15.093  68.001  1.00  0.00    -0.204 C  
BRANCH  17  18
HETATM   18  C   UNL     1      -9.196  16.623  67.718  1.00  0.00    -0.214 A  
HETATM   19  H   UNL     1      -9.122  21.221  66.547  1.00  0.00     0.000 HD 
HETATM   20  C   UNL     1      -8.141  18.735  68.418  1.00  0.00    -0.371 A  
HETATM   21  C   UNL     1      -8.341  17.358  68.567  1.00  0.00    -0.271 A  
HETATM   22  C   UNL     1      -9.799  17.347  66.667  1.00  0.00    -0.300 A  
HETATM   23  C   UNL     1      -8.793  19.410  67.396  1.00  0.00    -0.301 A  
HETATM   24  O   UNL     1      -8.676  20.759  67.246  1.00  0.00    -0.296 OA 
HETATM   25  C   UNL     1      -9.604  18.725  66.507  1.00  0.00    -0.369 A  
ENDBRANCH  17  18
BRANCH  14  26
HETATM   26  C   UNL     1     -11.567  14.856  69.704  1.00  0.00    -0.303 A  
HETATM   27  C   UNL     1     -12.878  13.765  71.440  1.00  0.00    -0.449 A  
HETATM   28  F   UNL     1     -13.376  14.937  73.419  1.00  0.00    -0.539 F  
HETATM   29  C   UNL     1     -12.271  13.742  70.184  1.00  0.00    -0.425 A  
HETATM   30  C   UNL     1     -12.081  16.020  71.769  1.00  0.00    -0.570 A  
HETATM   31  C   UNL     1     -12.783  14.906  72.219  1.00  0.00    -0.332 A  
HETATM   32  C   UNL     1     -11.465  15.993  70.513  1.00  0.00    -0.409 A  
ENDBRANCH  14  26
ENDBRANCH  12  13
ENDBRANCH  11  12
ENDBRANCH   3  11
TORSDOF 6
ENDMDL
MODEL       17
REMARK 921   NORMALIZED FREE ENERGY PREDICTED BY IDOCK:   -7.47 KCAL/MOL
REMARK 922        TOTAL FREE ENERGY PREDICTED BY IDOCK:  -11.89 KCAL/MOL
REMARK 923 INTER-LIGAND FREE ENERGY PREDICTED BY IDOCK:   -9.78 KCAL/MOL
REMARK 924 INTRA-LIGAND FREE ENERGY PREDICTED BY IDOCK:   -2.11 KCAL/MOL
REMARK 927      BINDING AFFINITY PREDICTED BY RF-SCORE:    0.00 PKD
ROOT
HETATM    1  O   UNL     1     -12.650  15.951  68.318  1.00  0.00     0.130 OA 
HETATM    2  H   UNL     1     -13.582  15.931  68.502  1.00  0.00     0.000 HD 
HETATM    3  C   UNL     1     -11.976  15.001  69.141  1.00  0.00    -0.275 C  
ENDROOT
BRANCH   3   4
HETATM    4  C   UNL     1     -12.305  15.237  70.600  1.00  0.00    -0.427 A  
HETATM    5  C   UNL     1     -11.293  15.446  71.552  1.00  0.00    -0.461 A  
HETATM    6  C   UNL     1     -13.646  15.243  71.024  1.00  0.00    -0.486 A  
HETATM    7  C   UNL     1     -11.612  15.687  72.888  1.00  0.00    -0.408 A  
HETATM    8  F   UNL     1     -13.252  15.965  74.557  1.00  0.00    -0.287 F  
HETATM    9  C   UNL     1     -13.963  15.487  72.361  1.00  0.00    -0.653 A  
HETATM   10  C   UNL     1     -12.944  15.713  73.279  1.00  0.00    -0.550 A  
ENDBRANCH   3   4
BRANCH   3  11
HETATM   11  C   UNL     1     -10.475  15.034  68.846  1.00  0.00    -0.241 C  
BRANCH  11  12
HETATM   12  C   UNL     1      -9.882  13.708  68.335  1.00  0.00    -0.223 C  
BRANCH  12  13
HETATM   13  C   UNL     1     -10.887  12.590  68.604  1.00  0.00    -0.280 C  
HETATM   14  N   UNL     1     -10.556  10.713  67.790  1.00  0.00    -0.217 N  
HETATM   15  O   UNL     1     -11.795  12.053  66.295  1.00  0.00    -0.563 OA 
HETATM   16  C   UNL     1     -11.240  11.792  67.335  1.00  0.00    -0.297 C  
HETATM   17  C   UNL     1     -10.400  11.200  69.167  1.00  0.00    -0.161 C  
BRANCH  17  18
HETATM   18  C   UNL     1     -11.386  10.613  70.291  1.00  0.00    -0.401 A  
HETATM   19  H   UNL     1     -15.036   9.642  73.163  1.00  0.00     0.000 HD 
HETATM   20  C   UNL     1     -12.404   8.710  71.475  1.00  0.00    -0.370 A  
HETATM   21  C   UNL     1     -11.425   9.244  70.629  1.00  0.00    -0.327 A  
HETATM   22  C   UNL     1     -12.361  11.432  70.900  1.00  0.00    -0.483 A  
HETATM   23  C   UNL     1     -13.368   9.549  72.013  1.00  0.00    -0.452 A  
HETATM   24  O   UNL     1     -14.376   9.067  72.795  1.00  0.00    -0.596 OA 
HETATM   25  C   UNL     1     -13.343  10.909  71.750  1.00  0.00    -0.413 A  
ENDBRANCH  17  18
BRANCH  14  26
HETATM   26  C   UNL     1     -10.095   9.575  67.137  1.00  0.00    -0.229 A  
HETATM   27  C   UNL     1     -10.151   7.159  66.844  1.00  0.00    -0.308 A  
HETATM   28  F   UNL     1      -8.771   6.160  65.221  1.00  0.00    -0.153 F  
HETATM   29  C   UNL     1     -10.593   8.313  67.494  1.00  0.00    -0.291 A  
HETATM   30  C   UNL     1      -8.706   8.508  65.458  1.00  0.00    -0.208 A  
HETATM   31  C   UNL     1      -9.207   7.266  65.837  1.00  0.00     0.047 A  
HETATM   32  C   UNL     1      -9.155   9.666  66.104  1.00  0.00    -0.201 A  
ENDBRANCH  14  26
ENDBRANCH  12  13
ENDBRANCH  11  12
ENDBRANCH   3  11
TORSDOF 6
ENDMDL
MODEL       18
REMARK 921   NORMALIZED FREE ENERGY PREDICTED BY IDOCK:   -7.45 KCAL/MOL
REMARK 922        TOTAL FREE ENERGY PREDICTED BY IDOCK:  -11.87 KCAL/MOL
REMARK 923 INTER-LIGAND FREE ENERGY PREDICTED BY IDOCK:   -9.44 KCAL/MOL
REMARK 924 INTRA-LIGAND FREE ENERGY PREDICTED BY IDOCK:   -2.43 KCAL/MOL
REMARK 927      BINDING AFFINITY PREDICTED BY RF-SCORE:    0.00 PKD
ROOT
HETATM    1  O   UNL     1      -7.435  14.685  70.076  1.00  0.00    -0.397 OA 
HETATM    2  H   UNL     1      -7.646  15.386  70.681  1.00  0.00     0.000 HD 
HETATM    3  C   UNL     1      -7.035  15.235  68.823  1.00  0.00    -0.111 C  
ENDROOT
BRANCH   3   4
HETATM    4  C   UNL     1      -8.093  16.183  68.298  1.00  0.00    -0.153 A  
HETATM    5  C   UNL     1      -7.895  16.917  67.117  1.00  0.00    -0.207 A  
HETATM    6  C   UNL     1      -9.300  16.344  69.001  1.00  0.00    -0.248 A  
HETATM    7  C   UNL     1      -8.888  17.767  66.632  1.00  0.00    -0.282 A  
HETATM    8  F   UNL     1     -11.044  18.691  66.854  1.00  0.00    -0.377 F  
HETATM    9  C   UNL     1     -10.295  17.193  68.512  1.00  0.00    -0.364 A  
HETATM   10  C   UNL     1     -10.082  17.891  67.330  1.00  0.00    -0.343 A  
ENDBRANCH   3   4
BRANCH   3  11
HETATM   11  C   UNL     1      -6.695  14.106  67.847  1.00  0.00    -0.176 C  
BRANCH  11  12
HETATM   12  C   UNL     1      -7.097  12.696  68.316  1.00  0.00    -0.105 C  
BRANCH  12  13
HETATM   13  C   UNL     1      -8.361  12.277  67.570  1.00  0.00    -0.170 C  
HETATM   14  N   UNL     1      -9.982  11.560  68.645  1.00  0.00    -0.213 N  
HETATM   15  O   UNL     1      -8.534   9.792  68.062  1.00  0.00    -0.117 OA 
HETATM   16  C   UNL     1      -8.926  10.933  68.068  1.00  0.00    -0.145 C  
HETATM   17  C   UNL     1      -9.765  12.858  67.992  1.00  0.00    -0.224 C  
BRANCH  17  18
HETATM   18  C   UNL     1     -10.683  13.228  66.727  1.00  0.00    -0.279 A  
HETATM   19  H   UNL     1     -12.402  14.719  62.563  1.00  0.00     0.000 HD 
HETATM   20  C   UNL     1     -12.398  12.626  65.067  1.00  0.00    -0.561 A  
HETATM   21  C   UNL     1     -11.721  12.390  66.269  1.00  0.00    -0.457 A  
HETATM   22  C   UNL     1     -10.399  14.359  65.931  1.00  0.00    -0.327 A  
HETATM   23  C   UNL     1     -12.051  13.726  64.296  1.00  0.00    -0.440 A  
HETATM   24  O   UNL     1     -12.640  13.966  63.091  1.00  0.00    -0.775 OA 
HETATM   25  C   UNL     1     -11.072  14.606  64.727  1.00  0.00    -0.394 A  
ENDBRANCH  17  18
BRANCH  14  26
HETATM   26  C   UNL     1     -10.900  11.128  69.596  1.00  0.00    -0.142 A  
HETATM   27  C   UNL     1     -11.706   9.382  71.089  1.00  0.00    -0.418 A  
HETATM   28  F   UNL     1     -13.591   9.794  72.435  1.00  0.00    -0.467 F  
HETATM   29  C   UNL     1     -10.802   9.833  70.126  1.00  0.00    -0.340 A  
HETATM   30  C   UNL     1     -12.826  11.520  71.019  1.00  0.00    -0.358 A  
HETATM   31  C   UNL     1     -12.714  10.227  71.521  1.00  0.00    -0.452 A  
HETATM   32  C   UNL     1     -11.914  11.974  70.059  1.00  0.00    -0.400 A  
ENDBRANCH  14  26
ENDBRANCH  12  13
ENDBRANCH  11  12
ENDBRANCH   3  11
TORSDOF 6
ENDMDL
MODEL       19
REMARK 921   NORMALIZED FREE ENERGY PREDICTED BY IDOCK:   -7.39 KCAL/MOL
REMARK 922        TOTAL FREE ENERGY PREDICTED BY IDOCK:  -11.79 KCAL/MOL
REMARK 923 INTER-LIGAND FREE ENERGY PREDICTED BY IDOCK:  -10.35 KCAL/MOL
REMARK 924 INTRA-LIGAND FREE ENERGY PREDICTED BY IDOCK:   -1.45 KCAL/MOL
REMARK 927      BINDING AFFINITY PREDICTED BY RF-SCORE:    0.00 PKD
ROOT
HETATM    1  O   UNL     1      -9.406  12.283  63.613  1.00  0.00    -0.591 OA 
HETATM    2  H   UNL     1      -9.458  12.860  62.860  1.00  0.00     0.000 HD 
HETATM    3  C   UNL     1     -10.540  12.486  64.454  1.00  0.00    -0.350 C  
ENDROOT
BRANCH   3   4
HETATM    4  C   UNL     1     -10.668  13.948  64.826  1.00  0.00    -0.437 A  
HETATM    5  C   UNL     1      -9.687  14.594  65.597  1.00  0.00    -0.302 A  
HETATM    6  C   UNL     1     -11.790  14.683  64.402  1.00  0.00    -0.405 A  
HETATM    7  C   UNL     1      -9.807  15.948  65.911  1.00  0.00    -0.383 A  
HETATM    8  F   UNL     1     -11.015  17.963  65.743  1.00  0.00    -0.289 F  
HETATM    9  C   UNL     1     -11.906  16.038  64.715  1.00  0.00     0.139 A  
HETATM   10  C   UNL     1     -10.911  16.658  65.460  1.00  0.00    -0.163 A  
ENDBRANCH   3   4
BRANCH   3  11
HETATM   11  C   UNL     1     -10.456  11.557  65.667  1.00  0.00    -0.317 C  
BRANCH  11  12
HETATM   12  C   UNL     1     -11.615  11.691  66.672  1.00  0.00    -0.194 C  
BRANCH  12  13
HETATM   13  C   UNL     1     -11.079  11.412  68.074  1.00  0.00    -0.317 C  
HETATM   14  N   UNL     1     -11.745  12.565  69.662  1.00  0.00    -0.311 N  
HETATM   15  O   UNL     1      -9.848  13.553  68.666  1.00  0.00    -0.209 OA 
HETATM   16  C   UNL     1     -10.685  12.698  68.825  1.00  0.00    -0.207 C  
HETATM   17  C   UNL     1     -12.074  11.187  69.277  1.00  0.00    -0.308 C  
BRANCH  17  18
HETATM   18  C   UNL     1     -11.601  10.000  70.250  1.00  0.00    -0.354 A  
HETATM   19  H   UNL     1      -9.230   7.101  73.165  1.00  0.00     0.000 HD 
HETATM   20  C   UNL     1     -12.003   8.496  72.158  1.00  0.00    -0.451 A  
HETATM   21  C   UNL     1     -12.462   9.401  71.194  1.00  0.00    -0.370 A  
HETATM   22  C   UNL     1     -10.251   9.591  70.294  1.00  0.00    -0.312 A  
HETATM   23  C   UNL     1     -10.657   8.161  72.189  1.00  0.00    -0.290 A  
HETATM   24  O   UNL     1     -10.151   7.331  73.144  1.00  0.00    -0.215 OA 
HETATM   25  C   UNL     1      -9.780   8.684  71.252  1.00  0.00    -0.305 A  
ENDBRANCH  17  18
BRANCH  14  26
HETATM   26  C   UNL     1     -12.353  13.471  70.526  1.00  0.00    -0.342 A  
HETATM   27  C   UNL     1     -13.807  13.896  72.431  1.00  0.00    -0.668 A  
HETATM   28  F   UNL     1     -14.173  16.113  73.131  1.00  0.00    -0.673 F  
HETATM   29  C   UNL     1     -13.195  13.007  71.547  1.00  0.00    -0.360 A  
HETATM   30  C   UNL     1     -12.738  15.739  71.295  1.00  0.00    -0.498 A  
HETATM   31  C   UNL     1     -13.578  15.255  72.292  1.00  0.00    -0.481 A  
HETATM   32  C   UNL     1     -12.118  14.846  70.413  1.00  0.00    -0.386 A  
ENDBRANCH  14  26
ENDBRANCH  12  13
ENDBRANCH  11  12
ENDBRANCH   3  11
TORSDOF 6
ENDMDL
MODEL       20
REMARK 921   NORMALIZED FREE ENERGY PREDICTED BY IDOCK:   -7.38 KCAL/MOL
REMARK 922        TOTAL FREE ENERGY PREDICTED BY IDOCK:  -11.78 KCAL/MOL
REMARK 923 INTER-LIGAND FREE ENERGY PREDICTED BY IDOCK:   -8.76 KCAL/MOL
REMARK 924 INTRA-LIGAND FREE ENERGY PREDICTED BY IDOCK:   -3.02 KCAL/MOL
REMARK 927      BINDING AFFINITY PREDICTED BY RF-SCORE:    0.00 PKD
ROOT
HETATM    1  O   UNL     1     -10.430   6.001  71.584  1.00  0.00    -0.214 OA 
HETATM    2  H   UNL     1      -9.800   5.298  71.474  1.00  0.00     0.000 HD 
HETATM    3  C   UNL     1     -11.270   6.080  70.435  1.00  0.00    -0.310 C  
ENDROOT
BRANCH   3   4
HETATM    4  C   UNL     1     -10.437   6.212  69.177  1.00  0.00    -0.310 A  
HETATM    5  C   UNL     1     -11.023   6.137  67.902  1.00  0.00    -0.399 A  
HETATM    6  C   UNL     1      -9.048   6.408  69.274  1.00  0.00    -0.136 A  
HETATM    7  C   UNL     1     -10.248   6.285  66.753  1.00  0.00    -0.262 A  
HETATM    8  F   UNL     1      -8.140   6.667  65.772  1.00  0.00    -0.097 F  
HETATM    9  C   UNL     1      -8.274   6.560  68.122  1.00  0.00    -0.117 A  
HETATM   10  C   UNL     1      -8.882   6.504  66.874  1.00  0.00    -0.120 A  
ENDBRANCH   3   4
BRANCH   3  11
HETATM   11  C   UNL     1     -12.284   7.213  70.612  1.00  0.00    -0.245 C  
BRANCH  11  12
HETATM   12  C   UNL     1     -12.288   7.872  72.003  1.00  0.00    -0.346 C  
BRANCH  12  13
HETATM   13  C   UNL     1     -11.759   9.298  71.867  1.00  0.00    -0.420 C  
HETATM   14  N   UNL     1     -10.761   9.849  70.137  1.00  0.00    -0.286 N  
HETATM   15  O   UNL     1      -9.245   8.979  71.722  1.00  0.00    -0.329 OA 
HETATM   16  C   UNL     1     -10.321   9.349  71.319  1.00  0.00    -0.292 C  
HETATM   17  C   UNL     1     -12.119  10.163  70.598  1.00  0.00    -0.319 C  
BRANCH  17  18
HETATM   18  C   UNL     1     -12.453  11.690  70.970  1.00  0.00    -0.436 A  
HETATM   19  H   UNL     1     -13.474  16.324  70.925  1.00  0.00     0.000 HD 
HETATM   20  C   UNL     1     -13.716  13.359  72.266  1.00  0.00    -0.705 A  
HETATM   21  C   UNL     1     -13.284  12.045  72.054  1.00  0.00    -0.481 A  
HETATM   22  C   UNL     1     -12.031  12.749  70.138  1.00  0.00    -0.371 A  
HETATM   23  C   UNL     1     -13.311  14.357  71.393  1.00  0.00    -0.349 A  
HETATM   24  O   UNL     1     -13.752  15.640  71.524  1.00  0.00    -0.484 OA 
HETATM   25  C   UNL     1     -12.456  14.068  70.342  1.00  0.00    -0.418 A  
ENDBRANCH  17  18
BRANCH  14  26
HETATM   26  C   UNL     1     -10.144   9.946  68.894  1.00  0.00    -0.184 A  
HETATM   27  C   UNL     1      -8.118  10.241  67.577  1.00  0.00    -0.110 A  
HETATM   28  F   UNL     1      -8.255  10.228  65.228  1.00  0.00    -0.138 F  
HETATM   29  C   UNL     1      -8.758  10.151  68.814  1.00  0.00    -0.138 A  
HETATM   30  C   UNL     1     -10.238   9.914  66.470  1.00  0.00    -0.292 A  
HETATM   31  C   UNL     1      -8.864  10.129  66.416  1.00  0.00    -0.143 A  
HETATM   32  C   UNL     1     -10.879   9.816  67.710  1.00  0.00    -0.306 A  
ENDBRANCH  14  26
ENDBRANCH  12  13
ENDBRANCH  11  12
ENDBRANCH   3  11
TORSDOF 6
ENDMDL
MODEL       21
REMARK 921   NORMALIZED FREE ENERGY PREDICTED BY IDOCK:   -7.37 KCAL/MOL
REMARK 922        TOTAL FREE ENERGY PREDICTED BY IDOCK:  -11.76 KCAL/MOL
REMARK 923 INTER-LIGAND FREE ENERGY PREDICTED BY IDOCK:   -9.93 KCAL/MOL
REMARK 924 INTRA-LIGAND FREE ENERGY PREDICTED BY IDOCK:   -1.83 KCAL/MOL
REMARK 927      BINDING AFFINITY PREDICTED BY RF-SCORE:    0.00 PKD
ROOT
HETATM    1  O   UNL     1     -10.583  16.021  68.558  1.00  0.00    -0.245 OA 
HETATM    2  H   UNL     1     -10.479  16.814  69.070  1.00  0.00     0.000 HD 
HETATM    3  C   UNL     1     -11.886  15.480  68.766  1.00  0.00    -0.317 C  
ENDROOT
BRANCH   3   4
HETATM    4  C   UNL     1     -12.145  15.278  70.244  1.00  0.00    -0.388 A  
HETATM    5  C   UNL     1     -12.875  14.173  70.714  1.00  0.00    -0.378 A  
HETATM    6  C   UNL     1     -11.656  16.211  71.175  1.00  0.00    -0.453 A  
HETATM    7  C   UNL     1     -13.085  13.987  72.079  1.00  0.00    -0.487 A  
HETATM    8  F   UNL     1     -12.753  14.719  74.294  1.00  0.00    -0.524 F  
HETATM    9  C   UNL     1     -11.864  16.022  72.542  1.00  0.00    -0.630 A  
HETATM   10  C   UNL     1     -12.570  14.908  72.981  1.00  0.00    -0.426 A  
ENDBRANCH   3   4
BRANCH   3  11
HETATM   11  C   UNL     1     -12.053  14.201  67.942  1.00  0.00    -0.309 C  
BRANCH  11  12
HETATM   12  C   UNL     1     -11.388  14.229  66.554  1.00  0.00    -0.351 C  
BRANCH  12  13
HETATM   13  C   UNL     1     -10.387  13.079  66.470  1.00  0.00    -0.278 C  
HETATM   14  N   UNL     1     -10.325  11.676  67.994  1.00  0.00    -0.186 N  
HETATM   15  O   UNL     1      -8.873  13.474  68.470  1.00  0.00    -0.166 OA 
HETATM   16  C   UNL     1      -9.649  12.836  67.800  1.00  0.00    -0.204 C  
HETATM   17  C   UNL     1     -10.872  11.587  66.634  1.00  0.00    -0.287 C  
BRANCH  17  18
HETATM   18  C   UNL     1     -10.156  10.591  65.597  1.00  0.00    -0.333 A  
HETATM   19  H   UNL     1      -7.769   8.628  61.996  1.00  0.00     0.000 HD 
HETATM   20  C   UNL     1      -8.693   8.668  65.126  1.00  0.00    -0.179 A  
HETATM   21  C   UNL     1      -9.463   9.433  66.009  1.00  0.00    -0.304 A  
HETATM   22  C   UNL     1     -10.077  10.907  64.224  1.00  0.00    -0.413 A  
HETATM   23  C   UNL     1      -8.609   9.047  63.794  1.00  0.00    -0.130 A  
HETATM   24  O   UNL     1      -7.826   8.368  62.908  1.00  0.00    -0.133 OA 
HETATM   25  C   UNL     1      -9.311  10.147  63.330  1.00  0.00    -0.334 A  
ENDBRANCH  17  18
BRANCH  14  26
HETATM   26  C   UNL     1     -10.497  10.892  69.130  1.00  0.00    -0.221 A  
HETATM   27  C   UNL     1     -11.915  10.138  70.960  1.00  0.00    -0.474 A  
HETATM   28  F   UNL     1     -11.073   8.574  72.503  1.00  0.00    -0.399 F  
HETATM   29  C   UNL     1     -11.716  10.924  69.824  1.00  0.00    -0.413 A  
HETATM   30  C   UNL     1      -9.677   9.263  70.729  1.00  0.00    -0.348 A  
HETATM   31  C   UNL     1     -10.890   9.320  71.406  1.00  0.00    -0.364 A  
HETATM   32  C   UNL     1      -9.481  10.045  69.585  1.00  0.00    -0.247 A  
ENDBRANCH  14  26
ENDBRANCH  12  13
ENDBRANCH  11  12
ENDBRANCH   3  11
TORSDOF 6
ENDMDL
MODEL       22
REMARK 921   NORMALIZED FREE ENERGY PREDICTED BY IDOCK:   -7.36 KCAL/MOL
REMARK 922        TOTAL FREE ENERGY PREDICTED BY IDOCK:  -11.75 KCAL/MOL
REMARK 923 INTER-LIGAND FREE ENERGY PREDICTED BY IDOCK:  -10.43 KCAL/MOL
REMARK 924 INTRA-LIGAND FREE ENERGY PREDICTED BY IDOCK:   -1.32 KCAL/MOL
REMARK 927      BINDING AFFINITY PREDICTED BY RF-SCORE:    0.00 PKD
ROOT
HETATM    1  O   UNL     1     -10.161  13.773  64.068  1.00  0.00    -0.652 OA 
HETATM    2  H   UNL     1     -10.407  14.564  63.603  1.00  0.00     0.000 HD 
HETATM    3  C   UNL     1     -10.728  13.788  65.376  1.00  0.00    -0.317 C  
ENDROOT
BRANCH   3   4
HETATM    4  C   UNL     1     -10.344  15.058  66.106  1.00  0.00    -0.310 A  
HETATM    5  C   UNL     1     -11.215  15.663  67.027  1.00  0.00    -0.127 A  
HETATM    6  C   UNL     1      -9.095  15.656  65.861  1.00  0.00    -0.277 A  
HETATM    7  C   UNL     1     -10.838  16.819  67.710  1.00  0.00    -0.285 A  
HETATM    8  F   UNL     1      -9.219  18.475  68.141  1.00  0.00    -0.283 F  
HETATM    9  C   UNL     1      -8.718  16.811  66.548  1.00  0.00    -0.310 A  
HETATM   10  C   UNL     1      -9.590  17.377  67.471  1.00  0.00    -0.257 A  
ENDBRANCH   3   4
BRANCH   3  11
HETATM   11  C   UNL     1     -10.330  12.514  66.127  1.00  0.00    -0.274 C  
BRANCH  11  12
HETATM   12  C   UNL     1     -11.475  11.825  66.891  1.00  0.00    -0.364 C  
BRANCH  12  13
HETATM   13  C   UNL     1     -11.002  11.529  68.313  1.00  0.00    -0.272 C  
HETATM   14  N   UNL     1     -11.694  12.702  69.875  1.00  0.00    -0.285 N  
HETATM   15  O   UNL     1      -9.730  13.630  68.955  1.00  0.00    -0.090 OA 
HETATM   16  C   UNL     1     -10.599  12.802  69.081  1.00  0.00     0.054 C  
HETATM   17  C   UNL     1     -12.049  11.334  69.476  1.00  0.00    -0.317 C  
BRANCH  17  18
HETATM   18  C   UNL     1     -11.652  10.133  70.465  1.00  0.00    -0.411 A  
HETATM   19  H   UNL     1      -9.466   7.132  73.420  1.00  0.00     0.000 HD 
HETATM   20  C   UNL     1     -12.147   8.683  72.392  1.00  0.00    -0.415 A  
HETATM   21  C   UNL     1     -12.549   9.602  71.416  1.00  0.00    -0.463 A  
HETATM   22  C   UNL     1     -10.329   9.642  70.516  1.00  0.00    -0.359 A  
HETATM   23  C   UNL     1     -10.824   8.265  72.429  1.00  0.00    -0.351 A  
HETATM   24  O   UNL     1     -10.372   7.418  73.395  1.00  0.00    -0.312 OA 
HETATM   25  C   UNL     1      -9.917   8.721  71.487  1.00  0.00    -0.370 A  
ENDBRANCH  17  18
BRANCH  14  26
HETATM   26  C   UNL     1     -12.306  13.626  70.716  1.00  0.00    -0.371 A  
HETATM   27  C   UNL     1     -12.526  15.918  71.504  1.00  0.00    -0.483 A  
HETATM   28  F   UNL     1     -14.101  16.416  73.180  1.00  0.00    -0.627 F  
HETATM   29  C   UNL     1     -11.918  14.973  70.677  1.00  0.00    -0.370 A  
HETATM   30  C   UNL     1     -13.934  14.186  72.424  1.00  0.00    -0.613 A  
HETATM   31  C   UNL     1     -13.524  15.515  72.376  1.00  0.00    -0.509 A  
HETATM   32  C   UNL     1     -13.330  13.240  71.589  1.00  0.00    -0.406 A  
ENDBRANCH  14  26
ENDBRANCH  12  13
ENDBRANCH  11  12
ENDBRANCH   3  11
TORSDOF 6
ENDMDL
MODEL       23
REMARK 921   NORMALIZED FREE ENERGY PREDICTED BY IDOCK:   -7.34 KCAL/MOL
REMARK 922        TOTAL FREE ENERGY PREDICTED BY IDOCK:  -11.73 KCAL/MOL
REMARK 923 INTER-LIGAND FREE ENERGY PREDICTED BY IDOCK:   -9.57 KCAL/MOL
REMARK 924 INTRA-LIGAND FREE ENERGY PREDICTED BY IDOCK:   -2.15 KCAL/MOL
REMARK 927      BINDING AFFINITY PREDICTED BY RF-SCORE:    0.00 PKD
ROOT
HETATM    1  O   UNL     1      -9.930   9.724  63.725  1.00  0.00    -0.425 OA 
HETATM    2  H   UNL     1      -9.150   9.183  63.756  1.00  0.00     0.000 HD 
HETATM    3  C   UNL     1      -9.809  10.798  64.655  1.00  0.00    -0.307 C  
ENDROOT
BRANCH   3   4
HETATM    4  C   UNL     1      -9.500  10.268  66.039  1.00  0.00    -0.234 A  
HETATM    5  C   UNL     1     -10.044   9.056  66.495  1.00  0.00    -0.354 A  
HETATM    6  C   UNL     1      -8.658  10.998  66.897  1.00  0.00    -0.143 A  
HETATM    7  C   UNL     1      -9.731   8.567  67.763  1.00  0.00    -0.199 A  
HETATM    8  F   UNL     1      -8.559   8.815  69.792  1.00  0.00    -0.118 F  
HETATM    9  C   UNL     1      -8.343  10.506  68.165  1.00  0.00    -0.119 A  
HETATM   10  C   UNL     1      -8.877   9.293  68.583  1.00  0.00    -0.132 A  
ENDBRANCH   3   4
BRANCH   3  11
HETATM   11  C   UNL     1     -11.067  11.669  64.606  1.00  0.00    -0.342 C  
BRANCH  11  12
HETATM   12  C   UNL     1     -10.910  12.999  63.847  1.00  0.00    -0.347 C  
BRANCH  12  13
HETATM   13  C   UNL     1     -11.109  14.148  64.832  1.00  0.00    -0.389 C  
HETATM   14  N   UNL     1     -11.524  13.722  66.817  1.00  0.00    -0.333 N  
HETATM   15  O   UNL     1     -13.522  13.873  65.572  1.00  0.00    -0.657 OA 
HETATM   16  C   UNL     1     -12.330  13.941  65.748  1.00  0.00    -0.486 C  
HETATM   17  C   UNL     1     -10.289  14.195  66.178  1.00  0.00    -0.300 C  
BRANCH  17  18
HETATM   18  C   UNL     1      -9.776  15.675  66.534  1.00  0.00    -0.286 A  
HETATM   19  H   UNL     1      -9.043  19.965  68.424  1.00  0.00     0.000 HD 
HETATM   20  C   UNL     1      -7.952  17.282  66.923  1.00  0.00    -0.257 A  
HETATM   21  C   UNL     1      -8.420  16.053  66.444  1.00  0.00    -0.363 A  
HETATM   22  C   UNL     1     -10.653  16.634  67.085  1.00  0.00    -0.264 A  
HETATM   23  C   UNL     1      -8.847  18.173  67.498  1.00  0.00    -0.256 A  
HETATM   24  O   UNL     1      -8.430  19.356  68.030  1.00  0.00    -0.302 OA 
HETATM   25  C   UNL     1     -10.196  17.869  67.565  1.00  0.00    -0.366 A  
ENDBRANCH  17  18
BRANCH  14  26
HETATM   26  C   UNL     1     -11.783  13.161  68.063  1.00  0.00    -0.355 A  
HETATM   27  C   UNL     1     -12.280  13.448  70.429  1.00  0.00    -0.415 A  
HETATM   28  F   UNL     1     -12.571  11.548  71.787  1.00  0.00    -0.415 F  
HETATM   29  C   UNL     1     -12.008  13.990  69.172  1.00  0.00    -0.400 A  
HETATM   30  C   UNL     1     -12.114  11.229  69.492  1.00  0.00    -0.386 A  
HETATM   31  C   UNL     1     -12.323  12.072  70.579  1.00  0.00    -0.282 A  
HETATM   32  C   UNL     1     -11.850  11.773  68.230  1.00  0.00    -0.340 A  
ENDBRANCH  14  26
ENDBRANCH  12  13
ENDBRANCH  11  12
ENDBRANCH   3  11
TORSDOF 6
ENDMDL
MODEL       24
REMARK 921   NORMALIZED FREE ENERGY PREDICTED BY IDOCK:   -7.33 KCAL/MOL
REMARK 922        TOTAL FREE ENERGY PREDICTED BY IDOCK:  -11.71 KCAL/MOL
REMARK 923 INTER-LIGAND FREE ENERGY PREDICTED BY IDOCK:  -10.35 KCAL/MOL
REMARK 924 INTRA-LIGAND FREE ENERGY PREDICTED BY IDOCK:   -1.35 KCAL/MOL
REMARK 927      BINDING AFFINITY PREDICTED BY RF-SCORE:    0.00 PKD
ROOT
HETATM    1  O   UNL     1     -13.832   8.989  73.336  1.00  0.00    -1.173 OA 
HETATM    2  H   UNL     1     -14.104   8.104  73.550  1.00  0.00     0.000 HD 
HETATM    3  C   UNL     1     -13.252   9.012  72.034  1.00  0.00    -0.429 C  
ENDROOT
BRANCH   3   4
HETATM    4  C   UNL     1     -12.132   7.998  71.934  1.00  0.00    -0.359 A  
HETATM    5  C   UNL     1     -11.020   8.052  72.792  1.00  0.00    -0.449 A  
HETATM    6  C   UNL     1     -12.190   6.981  70.965  1.00  0.00    -0.419 A  
HETATM    7  C   UNL     1     -10.008   7.098  72.706  1.00  0.00    -0.219 A  
HETATM    8  F   UNL     1      -9.139   5.159  71.688  1.00  0.00    -0.138 F  
HETATM    9  C   UNL     1     -11.178   6.024  70.883  1.00  0.00    -0.335 A  
HETATM   10  C   UNL     1     -10.100   6.088  71.758  1.00  0.00    -0.188 A  
ENDBRANCH   3   4
BRANCH   3  11
HETATM   11  C   UNL     1     -12.813  10.437  71.688  1.00  0.00    -0.579 C  
BRANCH  11  12
HETATM   12  C   UNL     1     -12.973  10.827  70.208  1.00  0.00    -0.132 C  
BRANCH  12  13
HETATM   13  C   UNL     1     -11.808  11.733  69.814  1.00  0.00    -0.420 C  
HETATM   14  N   UNL     1     -11.048  11.629  67.889  1.00  0.00    -0.229 N  
HETATM   15  O   UNL     1      -9.940  10.094  69.297  1.00  0.00    -0.195 OA 
HETATM   16  C   UNL     1     -10.711  10.985  69.035  1.00  0.00    -0.219 C  
HETATM   17  C   UNL     1     -11.904  12.638  68.526  1.00  0.00    -0.300 C  
BRANCH  17  18
HETATM   18  C   UNL     1     -11.292  14.105  68.760  1.00  0.00    -0.308 A  
HETATM   19  H   UNL     1      -9.902  18.628  68.393  1.00  0.00     0.000 HD 
HETATM   20  C   UNL     1     -10.978  16.105  70.161  1.00  0.00    -0.359 A  
HETATM   21  C   UNL     1     -11.348  14.765  70.006  1.00  0.00    -0.306 A  
HETATM   22  C   UNL     1     -10.784  14.860  67.680  1.00  0.00    -0.270 A  
HETATM   23  C   UNL     1     -10.527  16.817  69.059  1.00  0.00    -0.336 A  
HETATM   24  O   UNL     1     -10.210  18.140  69.147  1.00  0.00    -0.344 OA 
HETATM   25  C   UNL     1     -10.408  16.201  67.824  1.00  0.00    -0.283 A  
ENDBRANCH  17  18
BRANCH  14  26
HETATM   26  C   UNL     1     -10.743  11.359  66.559  1.00  0.00    -0.277 A  
HETATM   27  C   UNL     1     -11.087  11.823  64.195  1.00  0.00    -0.442 A  
HETATM   28  F   UNL     1      -9.866  10.608  62.591  1.00  0.00    -0.301 F  
HETATM   29  C   UNL     1     -11.385  12.071  65.535  1.00  0.00    -0.381 A  
HETATM   30  C   UNL     1      -9.488  10.146  64.875  1.00  0.00    -0.349 A  
HETATM   31  C   UNL     1     -10.146  10.858  63.876  1.00  0.00    -0.361 A  
HETATM   32  C   UNL     1      -9.781  10.401  66.219  1.00  0.00    -0.256 A  
ENDBRANCH  14  26
ENDBRANCH  12  13
ENDBRANCH  11  12
ENDBRANCH   3  11
TORSDOF 6
ENDMDL
MODEL       25
REMARK 921   NORMALIZED FREE ENERGY PREDICTED BY IDOCK:   -7.31 KCAL/MOL
REMARK 922        TOTAL FREE ENERGY PREDICTED BY IDOCK:  -11.68 KCAL/MOL
REMARK 923 INTER-LIGAND FREE ENERGY PREDICTED BY IDOCK:  -10.38 KCAL/MOL
REMARK 924 INTRA-LIGAND FREE ENERGY PREDICTED BY IDOCK:   -1.30 KCAL/MOL
REMARK 927      BINDING AFFINITY PREDICTED BY RF-SCORE:    0.00 PKD
ROOT
HETATM    1  O   UNL     1     -13.314  11.599  72.292  1.00  0.00    -0.625 OA 
HETATM    2  H   UNL     1     -13.998  11.147  72.771  1.00  0.00     0.000 HD 
HETATM    3  C   UNL     1     -13.019  10.892  71.090  1.00  0.00    -0.352 C  
ENDROOT
BRANCH   3   4
HETATM    4  C   UNL     1     -12.684   9.447  71.394  1.00  0.00    -0.425 A  
HETATM    5  C   UNL     1     -11.369   9.049  71.687  1.00  0.00    -0.430 A  
HETATM    6  C   UNL     1     -13.699   8.474  71.380  1.00  0.00    -0.286 A  
HETATM    7  C   UNL     1     -11.079   7.719  71.990  1.00  0.00    -0.318 A  
HETATM    8  F   UNL     1     -11.829   5.508  72.306  1.00  0.00    -0.304 F  
HETATM    9  C   UNL     1     -13.408   7.144  71.687  1.00  0.00    -0.397 A  
HETATM   10  C   UNL     1     -12.102   6.781  71.995  1.00  0.00    -0.305 A  
ENDBRANCH   3   4
BRANCH   3  11
HETATM   11  C   UNL     1     -11.916  11.620  70.318  1.00  0.00    -0.445 C  
BRANCH  11  12
HETATM   12  C   UNL     1     -11.834  13.136  70.573  1.00  0.00    -0.184 C  
BRANCH  12  13
HETATM   13  C   UNL     1     -12.041  13.865  69.247  1.00  0.00    -0.383 C  
HETATM   14  N   UNL     1     -10.832  15.481  68.779  1.00  0.00    -0.244 N  
HETATM   15  O   UNL     1     -12.741  16.198  69.965  1.00  0.00    -0.090 OA 
HETATM   16  C   UNL     1     -12.033  15.397  69.404  1.00  0.00    -0.327 C  
HETATM   17  C   UNL     1     -10.826  14.103  68.271  1.00  0.00    -0.247 C  
BRANCH  17  18
HETATM   18  C   UNL     1     -11.219  13.866  66.731  1.00  0.00    -0.328 A  
HETATM   19  H   UNL     1     -13.346  12.739  62.642  1.00  0.00     0.000 HD 
HETATM   20  C   UNL     1     -11.396  14.667  64.410  1.00  0.00    -0.238 A  
HETATM   21  C   UNL     1     -10.900  14.788  65.713  1.00  0.00    -0.334 A  
HETATM   22  C   UNL     1     -12.027  12.773  66.349  1.00  0.00    -0.443 A  
HETATM   23  C   UNL     1     -12.224  13.599  64.095  1.00  0.00    -0.399 A  
HETATM   24  O   UNL     1     -12.779  13.469  62.857  1.00  0.00    -0.569 OA 
HETATM   25  C   UNL     1     -12.528  12.640  65.047  1.00  0.00    -0.556 A  
ENDBRANCH  17  18
BRANCH  14  26
HETATM   26  C   UNL     1      -9.896  16.509  68.719  1.00  0.00    -0.254 A  
HETATM   27  C   UNL     1      -9.404  18.886  68.549  1.00  0.00    -0.412 A  
HETATM   28  F   UNL     1      -7.163  19.605  68.554  1.00  0.00    -0.316 F  
HETATM   29  C   UNL     1     -10.325  17.839  68.599  1.00  0.00    -0.351 A  
HETATM   30  C   UNL     1      -7.601  17.293  68.746  1.00  0.00    -0.256 A  
HETATM   31  C   UNL     1      -8.050  18.603  68.615  1.00  0.00    -0.322 A  
HETATM   32  C   UNL     1      -8.525  16.243  68.805  1.00  0.00    -0.240 A  
ENDBRANCH  14  26
ENDBRANCH  12  13
ENDBRANCH  11  12
ENDBRANCH   3  11
TORSDOF 6
ENDMDL
MODEL       26
REMARK 921   NORMALIZED FREE ENERGY PREDICTED BY IDOCK:   -7.29 KCAL/MOL
REMARK 922        TOTAL FREE ENERGY PREDICTED BY IDOCK:  -11.65 KCAL/MOL
REMARK 923 INTER-LIGAND FREE ENERGY PREDICTED BY IDOCK:   -9.58 KCAL/MOL
REMARK 924 INTRA-LIGAND FREE ENERGY PREDICTED BY IDOCK:   -2.06 KCAL/MOL
REMARK 927      BINDING AFFINITY PREDICTED BY RF-SCORE:    0.00 PKD
ROOT
HETATM    1  O   UNL     1     -11.112  17.154  64.496  1.00  0.00    -1.105 OA 
HETATM    2  H   UNL     1     -11.499  18.012  64.626  1.00  0.00     0.000 HD 
HETATM    3  C   UNL     1     -10.886  16.530  65.758  1.00  0.00    -0.134 C  
ENDROOT
BRANCH   3   4
HETATM    4  C   UNL     1     -10.062  17.430  66.654  1.00  0.00    -0.317 A  
HETATM    5  C   UNL     1     -10.322  18.808  66.744  1.00  0.00    -0.464 A  
HETATM    6  C   UNL     1      -9.008  16.890  67.413  1.00  0.00    -0.215 A  
HETATM    7  C   UNL     1      -9.571  19.621  67.592  1.00  0.00    -0.454 A  
HETATM    8  F   UNL     1      -7.845  19.836  69.180  1.00  0.00    -0.376 F  
HETATM    9  C   UNL     1      -8.260  17.704  68.264  1.00  0.00    -0.276 A  
HETATM   10  C   UNL     1      -8.553  19.060  68.350  1.00  0.00    -0.348 A  
ENDBRANCH   3   4
BRANCH   3  11
HETATM   11  C   UNL     1     -10.262  15.148  65.548  1.00  0.00    -0.405 C  
BRANCH  11  12
HETATM   12  C   UNL     1     -11.270  14.001  65.355  1.00  0.00    -0.319 C  
BRANCH  12  13
HETATM   13  C   UNL     1     -11.699  13.493  66.729  1.00  0.00    -0.430 C  
HETATM   14  N   UNL     1     -10.368  12.375  67.858  1.00  0.00    -0.205 N  
HETATM   15  O   UNL     1     -11.648  10.969  66.462  1.00  0.00    -0.205 OA 
HETATM   16  C   UNL     1     -11.321  12.018  66.961  1.00  0.00    -0.336 C  
HETATM   17  C   UNL     1     -10.803  13.771  67.997  1.00  0.00    -0.249 C  
BRANCH  17  18
HETATM   18  C   UNL     1     -11.672  14.165  69.289  1.00  0.00    -0.368 A  
HETATM   19  H   UNL     1     -13.757  14.379  73.546  1.00  0.00     0.000 HD 
HETATM   20  C   UNL     1     -12.454  15.826  70.928  1.00  0.00    -0.451 A  
HETATM   21  C   UNL     1     -11.851  15.500  69.709  1.00  0.00    -0.376 A  
HETATM   22  C   UNL     1     -12.189  13.169  70.146  1.00  0.00    -0.360 A  
HETATM   23  C   UNL     1     -12.906  14.810  71.757  1.00  0.00    -0.325 A  
HETATM   24  O   UNL     1     -13.448  15.075  72.979  1.00  0.00    -0.462 OA 
HETATM   25  C   UNL     1     -12.798  13.485  71.367  1.00  0.00    -0.440 A  
ENDBRANCH  17  18
BRANCH  14  26
HETATM   26  C   UNL     1      -9.296  11.666  68.391  1.00  0.00    -0.191 A  
HETATM   27  C   UNL     1      -6.893  11.387  68.657  1.00  0.00    -0.078 A  
HETATM   28  F   UNL     1      -6.074   9.608  69.961  1.00  0.00    -0.039 F  
HETATM   29  C   UNL     1      -7.982  12.077  68.123  1.00  0.00    -0.152 A  
HETATM   30  C   UNL     1      -8.412   9.860  69.747  1.00  0.00    -0.206 A  
HETATM   31  C   UNL     1      -7.118  10.280  69.458  1.00  0.00    -0.107 A  
HETATM   32  C   UNL     1      -9.504  10.557  69.219  1.00  0.00    -0.191 A  
ENDBRANCH  14  26
ENDBRANCH  12  13
ENDBRANCH  11  12
ENDBRANCH   3  11
TORSDOF 6
ENDMDL
MODEL       27
REMARK 921   NORMALIZED FREE ENERGY PREDICTED BY IDOCK:   -7.25 KCAL/MOL
REMARK 922        TOTAL FREE ENERGY PREDICTED BY IDOCK:  -11.60 KCAL/MOL
REMARK 923 INTER-LIGAND FREE ENERGY PREDICTED BY IDOCK:  -10.27 KCAL/MOL
REMARK 924 INTRA-LIGAND FREE ENERGY PREDICTED BY IDOCK:   -1.33 KCAL/MOL
REMARK 927      BINDING AFFINITY PREDICTED BY RF-SCORE:    0.00 PKD
ROOT
HETATM    1  O   UNL     1     -13.558   8.993  73.240  1.00  0.00    -0.992 OA 
HETATM    2  H   UNL     1     -13.597   8.287  73.874  1.00  0.00     0.000 HD 
HETATM    3  C   UNL     1     -13.295   8.465  71.943  1.00  0.00    -0.357 C  
ENDROOT
BRANCH   3   4
HETATM    4  C   UNL     1     -12.047   7.608  71.963  1.00  0.00    -0.336 A  
HETATM    5  C   UNL     1     -11.883   6.535  71.071  1.00  0.00    -0.390 A  
HETATM    6  C   UNL     1     -11.026   7.878  72.893  1.00  0.00    -0.452 A  
HETATM    7  C   UNL     1     -10.717   5.769  71.085  1.00  0.00    -0.327 A  
HETATM    8  F   UNL     1      -8.585   5.350  71.994  1.00  0.00    -0.124 F  
HETATM    9  C   UNL     1      -9.859   7.113  72.903  1.00  0.00    -0.221 A  
HETATM   10  C   UNL     1      -9.713   6.071  71.995  1.00  0.00    -0.156 A  
ENDBRANCH   3   4
BRANCH   3  11
HETATM   11  C   UNL     1     -13.231   9.604  70.923  1.00  0.00    -0.214 C  
BRANCH  11  12
HETATM   12  C   UNL     1     -11.864   9.793  70.241  1.00  0.00    -0.208 C  
BRANCH  12  13
HETATM   13  C   UNL     1     -11.477  11.268  70.326  1.00  0.00    -0.286 C  
HETATM   14  N   UNL     1     -11.598  12.446  68.626  1.00  0.00    -0.296 N  
HETATM   15  O   UNL     1      -9.471  11.437  68.779  1.00  0.00    -0.186 OA 
HETATM   16  C   UNL     1     -10.584  11.716  69.154  1.00  0.00    -0.108 C  
HETATM   17  C   UNL     1     -12.466  12.381  69.808  1.00  0.00     0.134 C  
BRANCH  17  18
HETATM   18  C   UNL     1     -12.515  13.660  70.779  1.00  0.00    -0.432 A  
HETATM   19  H   UNL     1     -12.704  16.635  74.471  1.00  0.00     0.000 HD 
HETATM   20  C   UNL     1     -11.666  15.863  71.475  1.00  0.00    -0.545 A  
HETATM   21  C   UNL     1     -11.759  14.827  70.540  1.00  0.00    -0.350 A  
HETATM   22  C   UNL     1     -13.224  13.618  71.999  1.00  0.00    -0.522 A  
HETATM   23  C   UNL     1     -12.345  15.754  72.680  1.00  0.00    -0.461 A  
HETATM   24  O   UNL     1     -12.239  16.710  73.646  1.00  0.00    -0.461 OA 
HETATM   25  C   UNL     1     -13.140  14.651  72.942  1.00  0.00    -0.609 A  
ENDBRANCH  17  18
BRANCH  14  26
HETATM   26  C   UNL     1     -11.773  12.995  67.359  1.00  0.00    -0.374 A  
HETATM   27  C   UNL     1     -12.138  12.682  64.973  1.00  0.00    -0.497 A  
HETATM   28  F   UNL     1     -12.311  14.567  63.575  1.00  0.00    -0.361 F  
HETATM   29  C   UNL     1     -11.951  12.153  66.251  1.00  0.00    -0.213 A  
HETATM   30  C   UNL     1     -11.981  14.911  65.887  1.00  0.00    -0.054 A  
HETATM   31  C   UNL     1     -12.145  14.056  64.802  1.00  0.00    -0.437 A  
HETATM   32  C   UNL     1     -11.801  14.381  67.170  1.00  0.00    -0.437 A  
ENDBRANCH  14  26
ENDBRANCH  12  13
ENDBRANCH  11  12
ENDBRANCH   3  11
TORSDOF 6
ENDMDL
MODEL       28
REMARK 921   NORMALIZED FREE ENERGY PREDICTED BY IDOCK:   -7.23 KCAL/MOL
REMARK 922        TOTAL FREE ENERGY PREDICTED BY IDOCK:  -11.57 KCAL/MOL
REMARK 923 INTER-LIGAND FREE ENERGY PREDICTED BY IDOCK:   -9.44 KCAL/MOL
REMARK 924 INTRA-LIGAND FREE ENERGY PREDICTED BY IDOCK:   -2.12 KCAL/MOL
REMARK 927      BINDING AFFINITY PREDICTED BY RF-SCORE:    0.00 PKD
ROOT
HETATM    1  O   UNL     1      -8.347  10.729  64.114  1.00  0.00    -0.347 OA 
HETATM    2  H   UNL     1      -8.264  11.153  63.269  1.00  0.00     0.000 HD 
HETATM    3  C   UNL     1      -9.726  10.559  64.434  1.00  0.00    -0.328 C  
ENDROOT
BRANCH   3   4
HETATM    4  C   UNL     1     -10.456  11.883  64.352  1.00  0.00    -0.356 A  
HETATM    5  C   UNL     1      -9.931  13.044  64.943  1.00  0.00    -0.151 A  
HETATM    6  C   UNL     1     -11.688  11.964  63.679  1.00  0.00    -0.572 A  
HETATM    7  C   UNL     1     -10.601  14.262  64.838  1.00  0.00    -0.452 A  
HETATM    8  F   UNL     1     -12.437  15.495  64.027  1.00  0.00    -0.453 F  
HETATM    9  C   UNL     1     -12.356  13.184  63.571  1.00  0.00    -0.478 A  
HETATM   10  C   UNL     1     -11.803  14.323  64.146  1.00  0.00    -0.312 A  
ENDBRANCH   3   4
BRANCH   3  11
HETATM   11  C   UNL     1      -9.861   9.876  65.797  1.00  0.00    -0.356 C  
BRANCH  11  12
HETATM   12  C   UNL     1      -8.604   9.936  66.684  1.00  0.00    -0.130 C  
BRANCH  12  13
HETATM   13  C   UNL     1      -9.016  10.379  68.085  1.00  0.00    -0.132 C  
HETATM   14  N   UNL     1      -9.603  12.342  68.396  1.00  0.00    -0.208 N  
HETATM   15  O   UNL     1      -7.272  12.124  68.684  1.00  0.00    -0.100 OA 
HETATM   16  C   UNL     1      -8.396  11.730  68.487  1.00  0.00    -0.131 C  
HETATM   17  C   UNL     1     -10.395  11.108  68.316  1.00  0.00    -0.180 C  
BRANCH  17  18
HETATM   18  C   UNL     1     -11.141  10.605  69.647  1.00  0.00    -0.342 A  
HETATM   19  H   UNL     1     -14.262   9.602  73.078  1.00  0.00     0.000 HD 
HETATM   20  C   UNL     1     -11.626   8.853  71.307  1.00  0.00    -0.371 A  
HETATM   21  C   UNL     1     -10.855   9.366  70.258  1.00  0.00    -0.303 A  
HETATM   22  C   UNL     1     -12.222  11.331  70.192  1.00  0.00    -0.410 A  
HETATM   23  C   UNL     1     -12.707   9.584  71.777  1.00  0.00    -0.404 A  
HETATM   24  O   UNL     1     -13.522   9.101  72.756  1.00  0.00    -0.424 OA 
HETATM   25  C   UNL     1     -12.999  10.828  71.243  1.00  0.00    -0.502 A  
ENDBRANCH  17  18
BRANCH  14  26
HETATM   26  C   UNL     1      -9.948  13.688  68.320  1.00  0.00    -0.236 A  
HETATM   27  C   UNL     1     -11.658  15.419  68.375  1.00  0.00    -0.368 A  
HETATM   28  F   UNL     1     -11.030  17.672  68.119  1.00  0.00    -0.361 F  
HETATM   29  C   UNL     1     -11.291  14.074  68.437  1.00  0.00    -0.321 A  
HETATM   30  C   UNL     1      -9.339  16.024  68.085  1.00  0.00    -0.200 A  
HETATM   31  C   UNL     1     -10.680  16.381  68.192  1.00  0.00    -0.336 A  
HETATM   32  C   UNL     1      -8.971  14.676  68.156  1.00  0.00    -0.179 A  
ENDBRANCH  14  26
ENDBRANCH  12  13
ENDBRANCH  11  12
ENDBRANCH   3  11
TORSDOF 6
ENDMDL
MODEL       29
REMARK 921   NORMALIZED FREE ENERGY PREDICTED BY IDOCK:   -7.23 KCAL/MOL
REMARK 922        TOTAL FREE ENERGY PREDICTED BY IDOCK:  -11.57 KCAL/MOL
REMARK 923 INTER-LIGAND FREE ENERGY PREDICTED BY IDOCK:   -9.44 KCAL/MOL
REMARK 924 INTRA-LIGAND FREE ENERGY PREDICTED BY IDOCK:   -2.12 KCAL/MOL
REMARK 927      BINDING AFFINITY PREDICTED BY RF-SCORE:    0.00 PKD
ROOT
HETATM    1  O   UNL     1     -11.292  16.610  64.052  1.00  0.00    -1.486 OA 
HETATM    2  H   UNL     1     -11.166  17.532  64.243  1.00  0.00     0.000 HD 
HETATM    3  C   UNL     1     -11.520  15.892  65.262  1.00  0.00     0.078 C  
ENDROOT
BRANCH   3   4
HETATM    4  C   UNL     1     -10.403  16.152  66.251  1.00  0.00    -0.337 A  
HETATM    5  C   UNL     1      -9.085  15.741  65.989  1.00  0.00    -0.361 A  
HETATM    6  C   UNL     1     -10.678  16.813  67.461  1.00  0.00    -0.275 A  
HETATM    7  C   UNL     1      -8.062  16.009  66.897  1.00  0.00    -0.282 A  
HETATM    8  F   UNL     1      -7.367  16.962  68.936  1.00  0.00    -0.191 F  
HETATM    9  C   UNL     1      -9.652  17.084  68.368  1.00  0.00    -0.277 A  
HETATM   10  C   UNL     1      -8.353  16.685  68.074  1.00  0.00    -0.187 A  
ENDBRANCH   3   4
BRANCH   3  11
HETATM   11  C   UNL     1     -11.722  14.407  64.953  1.00  0.00    -0.408 C  
BRANCH  11  12
HETATM   12  C   UNL     1     -12.064  13.529  66.170  1.00  0.00    -0.482 C  
BRANCH  12  13
HETATM   13  C   UNL     1     -10.932  12.526  66.381  1.00  0.00    -0.309 C  
HETATM   14  N   UNL     1     -10.941  11.329  68.073  1.00  0.00    -0.228 N  
HETATM   15  O   UNL     1      -9.807  13.353  68.502  1.00  0.00    -0.230 OA 
HETATM   16  C   UNL     1     -10.387  12.542  67.822  1.00  0.00    -0.222 C  
HETATM   17  C   UNL     1     -11.254  11.011  66.674  1.00  0.00    -0.050 C  
BRANCH  17  18
HETATM   18  C   UNL     1     -10.271  10.011  65.890  1.00  0.00    -0.275 A  
HETATM   19  H   UNL     1      -6.853   8.038  63.256  1.00  0.00     0.000 HD 
HETATM   20  C   UNL     1      -8.864   7.992  65.824  1.00  0.00    -0.170 A  
HETATM   21  C   UNL     1      -9.856   8.774  66.427  1.00  0.00    -0.352 A  
HETATM   22  C   UNL     1      -9.669  10.393  64.671  1.00  0.00    -0.392 A  
HETATM   23  C   UNL     1      -8.270   8.433  64.651  1.00  0.00    -0.154 A  
HETATM   24  O   UNL     1      -7.260   7.736  64.059  1.00  0.00    -0.071 OA 
HETATM   25  C   UNL     1      -8.677   9.617  64.058  1.00  0.00    -0.240 A  
ENDBRANCH  17  18
BRANCH  14  26
HETATM   26  C   UNL     1     -11.193  10.664  69.268  1.00  0.00    -0.273 A  
HETATM   27  C   UNL     1     -10.403   9.257  71.091  1.00  0.00    -0.392 A  
HETATM   28  F   UNL     1     -11.882   8.679  72.827  1.00  0.00    -0.423 F  
HETATM   29  C   UNL     1     -10.175   9.923  69.886  1.00  0.00    -0.298 A  
HETATM   30  C   UNL     1     -12.678  10.065  71.090  1.00  0.00    -0.484 A  
HETATM   31  C   UNL     1     -11.656   9.328  71.678  1.00  0.00    -0.393 A  
HETATM   32  C   UNL     1     -12.446  10.740  69.886  1.00  0.00    -0.277 A  
ENDBRANCH  14  26
ENDBRANCH  12  13
ENDBRANCH  11  12
ENDBRANCH   3  11
TORSDOF 6
ENDMDL
MODEL       30
REMARK 921   NORMALIZED FREE ENERGY PREDICTED BY IDOCK:   -7.22 KCAL/MOL
REMARK 922        TOTAL FREE ENERGY PREDICTED BY IDOCK:  -11.56 KCAL/MOL
REMARK 923 INTER-LIGAND FREE ENERGY PREDICTED BY IDOCK:   -8.96 KCAL/MOL
REMARK 924 INTRA-LIGAND FREE ENERGY PREDICTED BY IDOCK:   -2.60 KCAL/MOL
REMARK 927      BINDING AFFINITY PREDICTED BY RF-SCORE:    0.00 PKD
ROOT
HETATM    1  O   UNL     1      -8.583  11.580  62.474  1.00  0.00    -0.595 OA 
HETATM    2  H   UNL     1      -8.859  12.294  61.911  1.00  0.00     0.000 HD 
HETATM    3  C   UNL     1      -9.727  10.895  62.979  1.00  0.00    -0.350 C  
ENDROOT
BRANCH   3   4
HETATM    4  C   UNL     1     -10.670  11.865  63.658  1.00  0.00    -0.502 A  
HETATM    5  C   UNL     1     -12.048  11.607  63.742  1.00  0.00    -0.339 A  
HETATM    6  C   UNL     1     -10.169  13.055  64.215  1.00  0.00    -0.316 A  
HETATM    7  C   UNL     1     -12.901  12.497  64.392  1.00  0.00    -0.366 A  
HETATM    8  F   UNL     1     -13.194  14.499  65.600  1.00  0.00    -0.418 F  
HETATM    9  C   UNL     1     -11.023  13.944  64.869  1.00  0.00    -0.391 A  
HETATM   10  C   UNL     1     -12.379  13.653  64.957  1.00  0.00    -0.427 A  
ENDBRANCH   3   4
BRANCH   3  11
HETATM   11  C   UNL     1      -9.282   9.745  63.887  1.00  0.00    -0.248 C  
BRANCH  11  12
HETATM   12  C   UNL     1      -8.063  10.052  64.776  1.00  0.00    -0.155 C  
BRANCH  12  13
HETATM   13  C   UNL     1      -8.441   9.780  66.230  1.00  0.00    -0.129 C  
HETATM   14  N   UNL     1      -9.432  11.244  67.311  1.00  0.00    -0.172 N  
HETATM   15  O   UNL     1      -7.097  11.507  67.517  1.00  0.00    -0.092 OA 
HETATM   16  C   UNL     1      -8.114  10.963  67.160  1.00  0.00    -0.127 C  
HETATM   17  C   UNL     1      -9.925   9.992  66.721  1.00  0.00    -0.210 C  
BRANCH  17  18
HETATM   18  C   UNL     1     -10.415   8.831  67.717  1.00  0.00    -0.292 A  
HETATM   19  H   UNL     1     -11.259   4.728  69.947  1.00  0.00     0.000 HD 
HETATM   20  C   UNL     1     -10.754   7.952  69.991  1.00  0.00    -0.244 A  
HETATM   21  C   UNL     1     -10.500   9.012  69.114  1.00  0.00    -0.239 A  
HETATM   22  C   UNL     1     -10.657   7.523  67.243  1.00  0.00    -0.394 A  
HETATM   23  C   UNL     1     -10.940   6.676  69.480  1.00  0.00    -0.313 A  
HETATM   24  O   UNL     1     -11.132   5.602  70.297  1.00  0.00    -0.278 OA 
HETATM   25  C   UNL     1     -10.914   6.455  68.112  1.00  0.00    -0.393 A  
ENDBRANCH  17  18
BRANCH  14  26
HETATM   26  C   UNL     1     -10.082  12.377  67.790  1.00  0.00    -0.203 A  
HETATM   27  C   UNL     1      -9.991  14.710  68.480  1.00  0.00    -0.235 A  
HETATM   28  F   UNL     1     -11.961  15.778  69.198  1.00  0.00    -0.357 F  
HETATM   29  C   UNL     1      -9.358  13.558  68.010  1.00  0.00    -0.213 A  
HETATM   30  C   UNL     1     -12.093  13.523  68.514  1.00  0.00    -0.303 A  
HETATM   31  C   UNL     1     -11.352  14.679  68.734  1.00  0.00    -0.281 A  
HETATM   32  C   UNL     1     -11.460  12.371  68.035  1.00  0.00    -0.377 A  
ENDBRANCH  14  26
ENDBRANCH  12  13
ENDBRANCH  11  12
ENDBRANCH   3  11
TORSDOF 6
ENDMDL
MODEL       31
REMARK 921   NORMALIZED FREE ENERGY PREDICTED BY IDOCK:   -7.18 KCAL/MOL
REMARK 922        TOTAL FREE ENERGY PREDICTED BY IDOCK:  -11.51 KCAL/MOL
REMARK 923 INTER-LIGAND FREE ENERGY PREDICTED BY IDOCK:   -9.48 KCAL/MOL
REMARK 924 INTRA-LIGAND FREE ENERGY PREDICTED BY IDOCK:   -2.03 KCAL/MOL
REMARK 927      BINDING AFFINITY PREDICTED BY RF-SCORE:    0.00 PKD
ROOT
HETATM    1  O   UNL     1      -7.271   9.845  69.130  1.00  0.00    -0.065 OA 
HETATM    2  H   UNL     1      -6.416   9.939  68.728  1.00  0.00     0.000 HD 
HETATM    3  C   UNL     1      -8.027   8.859  68.432  1.00  0.00    -0.105 C  
ENDROOT
BRANCH   3   4
HETATM    4  C   UNL     1      -8.091   9.188  66.955  1.00  0.00    -0.109 A  
HETATM    5  C   UNL     1      -9.187   8.798  66.168  1.00  0.00    -0.273 A  
HETATM    6  C   UNL     1      -7.036   9.892  66.348  1.00  0.00    -0.096 A  
HETATM    7  C   UNL     1      -9.245   9.130  64.814  1.00  0.00    -0.085 A  
HETATM    8  F   UNL     1      -8.267  10.184  62.948  1.00  0.00    -0.133 F  
HETATM    9  C   UNL     1      -7.097  10.226  64.994  1.00  0.00    -0.111 A  
HETATM   10  C   UNL     1      -8.203   9.847  64.242  1.00  0.00    -0.161 A  
ENDBRANCH   3   4
BRANCH   3  11
HETATM   11  C   UNL     1      -9.406   8.709  69.080  1.00  0.00    -0.153 C  
BRANCH  11  12
HETATM   12  C   UNL     1      -9.875   9.922  69.903  1.00  0.00    -0.285 C  
BRANCH  12  13
HETATM   13  C   UNL     1     -10.941  10.669  69.106  1.00  0.00    -0.296 C  
HETATM   14  N   UNL     1     -11.907  12.285  69.970  1.00  0.00    -0.325 N  
HETATM   15  O   UNL     1     -13.057  10.283  70.454  1.00  0.00    -0.258 OA 
HETATM   16  C   UNL     1     -12.205  10.962  69.934  1.00  0.00    -0.336 C  
HETATM   17  C   UNL     1     -10.861  12.235  68.941  1.00  0.00    -0.196 C  
BRANCH  17  18
HETATM   18  C   UNL     1     -11.241  12.717  67.457  1.00  0.00    -0.332 A  
HETATM   19  H   UNL     1     -12.470  13.011  62.883  1.00  0.00     0.000 HD 
HETATM   20  C   UNL     1     -12.496  14.183  65.928  1.00  0.00    -0.479 A  
HETATM   21  C   UNL     1     -12.018  13.867  67.205  1.00  0.00    -0.455 A  
HETATM   22  C   UNL     1     -10.919  11.926  66.332  1.00  0.00    -0.337 A  
HETATM   23  C   UNL     1     -12.190  13.349  64.863  1.00  0.00    -0.408 A  
HETATM   24  O   UNL     1     -12.679  13.583  63.612  1.00  0.00    -0.695 OA 
HETATM   25  C   UNL     1     -11.389  12.235  65.049  1.00  0.00    -0.376 A  
ENDBRANCH  17  18
BRANCH  14  26
HETATM   26  C   UNL     1     -12.384  13.313  70.777  1.00  0.00    -0.344 A  
HETATM   27  C   UNL     1     -13.862  14.064  72.559  1.00  0.00    -0.610 A  
HETATM   28  F   UNL     1     -13.829  16.325  73.211  1.00  0.00    -0.673 F  
HETATM   29  C   UNL     1     -13.377  13.050  71.732  1.00  0.00    -0.468 A  
HETATM   30  C   UNL     1     -12.363  15.630  71.496  1.00  0.00    -0.490 A  
HETATM   31  C   UNL     1     -13.356  15.347  72.428  1.00  0.00    -0.458 A  
HETATM   32  C   UNL     1     -11.871  14.611  70.673  1.00  0.00    -0.367 A  
ENDBRANCH  14  26
ENDBRANCH  12  13
ENDBRANCH  11  12
ENDBRANCH   3  11
TORSDOF 6
ENDMDL
MODEL       32
REMARK 921   NORMALIZED FREE ENERGY PREDICTED BY IDOCK:   -7.17 KCAL/MOL
REMARK 922        TOTAL FREE ENERGY PREDICTED BY IDOCK:  -11.49 KCAL/MOL
REMARK 923 INTER-LIGAND FREE ENERGY PREDICTED BY IDOCK:   -9.93 KCAL/MOL
REMARK 924 INTRA-LIGAND FREE ENERGY PREDICTED BY IDOCK:   -1.57 KCAL/MOL
REMARK 927      BINDING AFFINITY PREDICTED BY RF-SCORE:    0.00 PKD
ROOT
HETATM    1  O   UNL     1     -11.265  16.772  70.519  1.00  0.00    -0.469 OA 
HETATM    2  H   UNL     1     -10.597  17.169  71.067  1.00  0.00     0.000 HD 
HETATM    3  C   UNL     1     -10.706  16.421  69.256  1.00  0.00    -0.325 C  
ENDROOT
BRANCH   3   4
HETATM    4  C   UNL     1     -10.043  17.623  68.617  1.00  0.00    -0.377 A  
HETATM    5  C   UNL     1     -10.771  18.518  67.816  1.00  0.00    -0.378 A  
HETATM    6  C   UNL     1      -8.671  17.855  68.817  1.00  0.00    -0.206 A  
HETATM    7  C   UNL     1     -10.154  19.635  67.254  1.00  0.00    -0.534 A  
HETATM    8  F   UNL     1      -8.214  20.940  66.965  1.00  0.00    -0.335 F  
HETATM    9  C   UNL     1      -8.054  18.975  68.257  1.00  0.00    -0.359 A  
HETATM   10  C   UNL     1      -8.803  19.857  67.487  1.00  0.00    -0.338 A  
ENDBRANCH   3   4
BRANCH   3  11
HETATM   11  C   UNL     1     -11.781  15.781  68.374  1.00  0.00    -0.279 C  
BRANCH  11  12
HETATM   12  C   UNL     1     -11.260  14.757  67.350  1.00  0.00    -0.346 C  
BRANCH  12  13
HETATM   13  C   UNL     1     -11.716  13.364  67.779  1.00  0.00    -0.394 C  
HETATM   14  N   UNL     1     -10.681  11.704  67.096  1.00  0.00    -0.235 N  
HETATM   15  O   UNL     1     -12.407  12.275  65.592  1.00  0.00    -0.619 OA 
HETATM   16  C   UNL     1     -11.759  12.366  66.607  1.00  0.00    -0.372 C  
HETATM   17  C   UNL     1     -10.688  12.351  68.414  1.00  0.00    -0.235 C  
BRANCH  17  18
HETATM   18  C   UNL     1     -11.313  11.536  69.650  1.00  0.00    -0.329 A  
HETATM   19  H   UNL     1     -14.089   9.764  73.066  1.00  0.00     0.000 HD 
HETATM   20  C   UNL     1     -11.728   9.422  70.840  1.00  0.00    -0.378 A  
HETATM   21  C   UNL     1     -11.046  10.169  69.873  1.00  0.00    -0.346 A  
HETATM   22  C   UNL     1     -12.272  12.129  70.499  1.00  0.00    -0.392 A  
HETATM   23  C   UNL     1     -12.695  10.040  71.619  1.00  0.00    -0.435 A  
HETATM   24  O   UNL     1     -13.427   9.341  72.533  1.00  0.00    -0.464 OA 
HETATM   25  C   UNL     1     -12.959  11.391  71.472  1.00  0.00    -0.505 A  
ENDBRANCH  17  18
BRANCH  14  26
HETATM   26  C   UNL     1      -9.821  10.785  66.504  1.00  0.00    -0.203 A  
HETATM   27  C   UNL     1      -7.703  10.305  65.404  1.00  0.00    -0.146 A  
HETATM   28  F   UNL     1      -7.217   8.098  64.747  1.00  0.00    -0.073 F  
HETATM   29  C   UNL     1      -8.586  11.211  65.992  1.00  0.00    -0.154 A  
HETATM   30  C   UNL     1      -9.271   8.520  65.833  1.00  0.00    -0.245 A  
HETATM   31  C   UNL     1      -8.057   8.968  65.323  1.00  0.00    -0.126 A  
HETATM   32  C   UNL     1     -10.152   9.428  66.431  1.00  0.00    -0.332 A  
ENDBRANCH  14  26
ENDBRANCH  12  13
ENDBRANCH  11  12
ENDBRANCH   3  11
TORSDOF 6
ENDMDL
MODEL       33
REMARK 921   NORMALIZED FREE ENERGY PREDICTED BY IDOCK:   -7.13 KCAL/MOL
REMARK 922        TOTAL FREE ENERGY PREDICTED BY IDOCK:  -11.43 KCAL/MOL
REMARK 923 INTER-LIGAND FREE ENERGY PREDICTED BY IDOCK:  -10.04 KCAL/MOL
REMARK 924 INTRA-LIGAND FREE ENERGY PREDICTED BY IDOCK:   -1.39 KCAL/MOL
REMARK 927      BINDING AFFINITY PREDICTED BY RF-SCORE:    0.00 PKD
ROOT
HETATM    1  O   UNL     1     -11.963   7.399  70.137  1.00  0.00    -0.513 OA 
HETATM    2  H   UNL     1     -12.602   6.708  70.007  1.00  0.00     0.000 HD 
HETATM    3  C   UNL     1     -10.655   6.837  70.209  1.00  0.00    -0.215 C  
ENDROOT
BRANCH   3   4
HETATM    4  C   UNL     1     -10.598   5.760  71.270  1.00  0.00    -0.319 A  
HETATM    5  C   UNL     1     -11.453   5.786  72.385  1.00  0.00    -0.343 A  
HETATM    6  C   UNL     1      -9.671   4.708  71.153  1.00  0.00    -0.252 A  
HETATM    7  C   UNL     1     -11.407   4.774  73.342  1.00  0.00    -0.397 A  
HETATM    8  F   UNL     1     -10.470   2.749  74.100  1.00  0.00    -0.164 F  
HETATM    9  C   UNL     1      -9.628   3.694  72.111  1.00  0.00    -0.211 A  
HETATM   10  C   UNL     1     -10.501   3.733  73.192  1.00  0.00    -0.176 A  
ENDBRANCH   3   4
BRANCH   3  11
HETATM   11  C   UNL     1      -9.625   7.950  70.418  1.00  0.00    -0.171 C  
BRANCH  11  12
HETATM   12  C   UNL     1      -9.298   8.781  69.165  1.00  0.00    -0.149 C  
BRANCH  12  13
HETATM   13  C   UNL     1      -9.827  10.199  69.368  1.00  0.00    -0.247 C  
HETATM   14  N   UNL     1     -10.570  11.247  67.743  1.00  0.00    -0.192 N  
HETATM   15  O   UNL     1      -8.251  11.618  67.972  1.00  0.00    -0.131 OA 
HETATM   16  C   UNL     1      -9.330  11.179  68.289  1.00  0.00    -0.176 C  
HETATM   17  C   UNL     1     -11.266  10.593  68.858  1.00  0.00    -0.275 C  
BRANCH  17  18
HETATM   18  C   UNL     1     -12.056  11.523  69.903  1.00  0.00    -0.389 A  
HETATM   19  H   UNL     1     -14.159  13.407  73.716  1.00  0.00     0.000 HD 
HETATM   20  C   UNL     1     -12.470  13.716  70.941  1.00  0.00    -0.448 A  
HETATM   21  C   UNL     1     -11.925  12.927  69.922  1.00  0.00    -0.377 A  
HETATM   22  C   UNL     1     -12.822  10.955  70.944  1.00  0.00    -0.418 A  
HETATM   23  C   UNL     1     -13.176  13.106  71.968  1.00  0.00    -0.446 A  
HETATM   24  O   UNL     1     -13.676  13.824  73.013  1.00  0.00    -0.581 OA 
HETATM   25  C   UNL     1     -13.374  11.735  71.968  1.00  0.00    -0.417 A  
ENDBRANCH  17  18
BRANCH  14  26
HETATM   26  C   UNL     1     -11.004  11.710  66.505  1.00  0.00    -0.299 A  
HETATM   27  C   UNL     1     -12.408  13.215  65.205  1.00  0.00    -0.525 A  
HETATM   28  F   UNL     1     -12.320  13.134  62.855  1.00  0.00    -0.570 F  
HETATM   29  C   UNL     1     -11.966  12.729  66.436  1.00  0.00    -0.443 A  
HETATM   30  C   UNL     1     -10.926  11.676  64.080  1.00  0.00    -0.442 A  
HETATM   31  C   UNL     1     -11.889  12.679  64.038  1.00  0.00    -0.431 A  
HETATM   32  C   UNL     1     -10.477  11.194  65.315  1.00  0.00    -0.326 A  
ENDBRANCH  14  26
ENDBRANCH  12  13
ENDBRANCH  11  12
ENDBRANCH   3  11
TORSDOF 6
ENDMDL
MODEL       34
REMARK 921   NORMALIZED FREE ENERGY PREDICTED BY IDOCK:   -7.12 KCAL/MOL
REMARK 922        TOTAL FREE ENERGY PREDICTED BY IDOCK:  -11.43 KCAL/MOL
REMARK 923 INTER-LIGAND FREE ENERGY PREDICTED BY IDOCK:   -9.85 KCAL/MOL
REMARK 924 INTRA-LIGAND FREE ENERGY PREDICTED BY IDOCK:   -1.58 KCAL/MOL
REMARK 927      BINDING AFFINITY PREDICTED BY RF-SCORE:    0.00 PKD
ROOT
HETATM    1  O   UNL     1      -8.048   7.975  69.121  1.00  0.00    -0.115 OA 
HETATM    2  H   UNL     1      -7.965   7.105  69.493  1.00  0.00     0.000 HD 
HETATM    3  C   UNL     1      -8.605   8.861  70.089  1.00  0.00    -0.155 C  
ENDROOT
BRANCH   3   4
HETATM    4  C   UNL     1      -9.910   8.310  70.623  1.00  0.00    -0.203 A  
HETATM    5  C   UNL     1     -10.505   8.834  71.783  1.00  0.00    -0.417 A  
HETATM    6  C   UNL     1     -10.548   7.248  69.956  1.00  0.00    -0.247 A  
HETATM    7  C   UNL     1     -11.719   8.333  72.250  1.00  0.00    -0.453 A  
HETATM    8  F   UNL     1     -13.519   6.834  71.995  1.00  0.00    -0.357 F  
HETATM    9  C   UNL     1     -11.766   6.750  70.422  1.00  0.00    -0.418 A  
HETATM   10  C   UNL     1     -12.343   7.302  71.560  1.00  0.00    -0.362 A  
ENDBRANCH   3   4
BRANCH   3  11
HETATM   11  C   UNL     1      -8.739  10.264  69.491  1.00  0.00    -0.155 C  
BRANCH  11  12
HETATM   12  C   UNL     1      -8.622  10.332  67.957  1.00  0.00    -0.118 C  
BRANCH  12  13
HETATM   13  C   UNL     1      -9.665  11.315  67.432  1.00  0.00    -0.190 C  
HETATM   14  N   UNL     1     -10.948  12.243  68.769  1.00  0.00    -0.228 N  
HETATM   15  O   UNL     1     -11.868  10.202  68.026  1.00  0.00    -0.071 OA 
HETATM   16  C   UNL     1     -11.056  11.094  68.056  1.00  0.00    -0.276 C  
HETATM   17  C   UNL     1      -9.778  12.762  68.049  1.00  0.00    -0.220 C  
BRANCH  17  18
HETATM   18  C   UNL     1     -10.021  13.889  66.930  1.00  0.00    -0.264 A  
HETATM   19  H   UNL     1     -11.606  16.528  63.319  1.00  0.00     0.000 HD 
HETATM   20  C   UNL     1     -10.247  16.250  66.272  1.00  0.00    -0.339 A  
HETATM   21  C   UNL     1      -9.864  15.267  67.191  1.00  0.00    -0.225 A  
HETATM   22  C   UNL     1     -10.537  13.551  65.660  1.00  0.00    -0.284 A  
HETATM   23  C   UNL     1     -10.792  15.868  65.055  1.00  0.00    -0.426 A  
HETATM   24  O   UNL     1     -11.233  16.789  64.152  1.00  0.00    -1.155 OA 
HETATM   25  C   UNL     1     -10.921  14.528  64.732  1.00  0.00    -0.404 A  
ENDBRANCH  17  18
BRANCH  14  26
HETATM   26  C   UNL     1     -11.662  12.715  69.865  1.00  0.00    -0.250 A  
HETATM   27  C   UNL     1     -12.445  14.588  71.208  1.00  0.00    -0.416 A  
HETATM   28  F   UNL     1     -13.783  14.174  73.099  1.00  0.00    -0.480 F  
HETATM   29  C   UNL     1     -11.725  14.093  70.120  1.00  0.00    -0.350 A  
HETATM   30  C   UNL     1     -13.064  12.333  71.808  1.00  0.00    -0.449 A  
HETATM   31  C   UNL     1     -13.102  13.703  72.046  1.00  0.00    -0.393 A  
HETATM   32  C   UNL     1     -12.349  11.837  70.712  1.00  0.00    -0.433 A  
ENDBRANCH  14  26
ENDBRANCH  12  13
ENDBRANCH  11  12
ENDBRANCH   3  11
TORSDOF 6
ENDMDL
MODEL       35
REMARK 921   NORMALIZED FREE ENERGY PREDICTED BY IDOCK:   -7.06 KCAL/MOL
REMARK 922        TOTAL FREE ENERGY PREDICTED BY IDOCK:  -11.35 KCAL/MOL
REMARK 923 INTER-LIGAND FREE ENERGY PREDICTED BY IDOCK:   -9.45 KCAL/MOL
REMARK 924 INTRA-LIGAND FREE ENERGY PREDICTED BY IDOCK:   -1.90 KCAL/MOL
REMARK 927      BINDING AFFINITY PREDICTED BY RF-SCORE:    0.00 PKD
ROOT
HETATM    1  O   UNL     1     -11.553  12.768  62.966  1.00  0.00    -0.800 OA 
HETATM    2  H   UNL     1     -12.162  13.487  62.841  1.00  0.00     0.000 HD 
HETATM    3  C   UNL     1     -11.637  12.293  64.307  1.00  0.00    -0.371 C  
ENDROOT
BRANCH   3   4
HETATM    4  C   UNL     1     -11.432  13.430  65.286  1.00  0.00    -0.318 A  
HETATM    5  C   UNL     1     -11.978  13.386  66.580  1.00  0.00    -0.452 A  
HETATM    6  C   UNL     1     -10.688  14.560  64.903  1.00  0.00    -0.448 A  
HETATM    7  C   UNL     1     -11.761  14.429  67.480  1.00  0.00    -0.416 A  
HETATM    8  F   UNL     1     -10.776  16.515  67.957  1.00  0.00    -0.292 F  
HETATM    9  C   UNL     1     -10.469  15.601  65.806  1.00  0.00    -0.383 A  
HETATM   10  C   UNL     1     -11.002  15.523  67.087  1.00  0.00    -0.295 A  
ENDBRANCH   3   4
BRANCH   3  11
HETATM   11  C   UNL     1     -10.655  11.136  64.509  1.00  0.00    -0.397 C  
BRANCH  11  12
HETATM   12  C   UNL     1      -9.441  11.458  65.399  1.00  0.00    -0.240 C  
BRANCH  12  13
HETATM   13  C   UNL     1      -9.115  10.228  66.243  1.00  0.00    -0.178 C  
HETATM   14  N   UNL     1     -10.096   9.947  68.046  1.00  0.00    -0.163 N  
HETATM   15  O   UNL     1      -8.134  11.217  68.365  1.00  0.00    -0.128 OA 
HETATM   16  C   UNL     1      -8.929  10.563  67.734  1.00  0.00    -0.132 C  
HETATM   17  C   UNL     1     -10.270   9.281  66.749  1.00  0.00    -0.255 C  
BRANCH  17  18
HETATM   18  C   UNL     1      -9.881   7.726  66.642  1.00  0.00    -0.295 A  
HETATM   19  H   UNL     1      -9.852   3.014  66.086  1.00  0.00     0.000 HD 
HETATM   20  C   UNL     1      -8.412   5.930  65.820  1.00  0.00    -0.148 A  
HETATM   21  C   UNL     1      -8.669   7.282  66.074  1.00  0.00    -0.168 A  
HETATM   22  C   UNL     1     -10.807   6.721  66.996  1.00  0.00    -0.453 A  
HETATM   23  C   UNL     1      -9.373   4.983  66.145  1.00  0.00    -0.153 A  
HETATM   24  O   UNL     1      -9.194   3.662  65.864  1.00  0.00    -0.147 OA 
HETATM   25  C   UNL     1     -10.560   5.364  66.749  1.00  0.00    -0.339 A  
ENDBRANCH  17  18
BRANCH  14  26
HETATM   26  C   UNL     1     -10.889  10.005  69.188  1.00  0.00    -0.222 A  
HETATM   27  C   UNL     1     -11.732   8.943  71.210  1.00  0.00    -0.370 A  
HETATM   28  F   UNL     1     -13.217  10.125  72.601  1.00  0.00    -0.378 F  
HETATM   29  C   UNL     1     -10.951   8.903  70.054  1.00  0.00    -0.217 A  
HETATM   30  C   UNL     1     -12.403  11.197  70.662  1.00  0.00    -0.482 A  
HETATM   31  C   UNL     1     -12.457  10.087  71.499  1.00  0.00    -0.419 A  
HETATM   32  C   UNL     1     -11.613  11.159  69.507  1.00  0.00    -0.392 A  
ENDBRANCH  14  26
ENDBRANCH  12  13
ENDBRANCH  11  12
ENDBRANCH   3  11
TORSDOF 6
ENDMDL
MODEL       36
REMARK 921   NORMALIZED FREE ENERGY PREDICTED BY IDOCK:   -7.06 KCAL/MOL
REMARK 922        TOTAL FREE ENERGY PREDICTED BY IDOCK:  -11.34 KCAL/MOL
REMARK 923 INTER-LIGAND FREE ENERGY PREDICTED BY IDOCK:   -8.94 KCAL/MOL
REMARK 924 INTRA-LIGAND FREE ENERGY PREDICTED BY IDOCK:   -2.40 KCAL/MOL
REMARK 927      BINDING AFFINITY PREDICTED BY RF-SCORE:    0.00 PKD
ROOT
HETATM    1  O   UNL     1      -9.545  11.768  63.764  1.00  0.00    -0.454 OA 
HETATM    2  H   UNL     1     -10.198  12.293  63.317  1.00  0.00     0.000 HD 
HETATM    3  C   UNL     1     -10.059  11.326  65.018  1.00  0.00    -0.279 C  
ENDROOT
BRANCH   3   4
HETATM    4  C   UNL     1     -10.544  12.503  65.837  1.00  0.00    -0.292 A  
HETATM    5  C   UNL     1      -9.656  13.276  66.603  1.00  0.00    -0.262 A  
HETATM    6  C   UNL     1     -11.911  12.836  65.843  1.00  0.00    -0.490 A  
HETATM    7  C   UNL     1     -10.113  14.373  67.332  1.00  0.00    -0.243 A  
HETATM    8  F   UNL     1     -11.899  15.763  67.986  1.00  0.00    -0.316 F  
HETATM    9  C   UNL     1     -12.366  13.936  66.571  1.00  0.00    -0.447 A  
HETATM   10  C   UNL     1     -11.462  14.698  67.303  1.00  0.00    -0.372 A  
ENDBRANCH   3   4
BRANCH   3  11
HETATM   11  C   UNL     1      -9.006  10.479  65.739  1.00  0.00    -0.199 C  
BRANCH  11  12
HETATM   12  C   UNL     1      -9.376   8.996  65.921  1.00  0.00    -0.306 C  
BRANCH  12  13
HETATM   13  C   UNL     1     -10.415   8.886  67.035  1.00  0.00    -0.326 C  
HETATM   14  N   UNL     1     -10.090   7.564  68.597  1.00  0.00    -0.179 N  
HETATM   15  O   UNL     1     -11.236   6.492  66.835  1.00  0.00    -0.387 OA 
HETATM   16  C   UNL     1     -10.731   7.426  67.410  1.00  0.00    -0.278 C  
HETATM   17  C   UNL     1      -9.982   9.028  68.545  1.00  0.00    -0.176 C  
BRANCH  17  18
HETATM   18  C   UNL     1     -11.027   9.892  69.405  1.00  0.00    -0.263 A  
HETATM   19  H   UNL     1     -13.642  11.879  72.830  1.00  0.00     0.000 HD 
HETATM   20  C   UNL     1     -12.099  12.038  69.959  1.00  0.00    -0.355 A  
HETATM   21  C   UNL     1     -11.330  11.238  69.108  1.00  0.00    -0.349 A  
HETATM   22  C   UNL     1     -11.594   9.375  70.590  1.00  0.00    -0.330 A  
HETATM   23  C   UNL     1     -12.596  11.496  71.136  1.00  0.00    -0.359 A  
HETATM   24  O   UNL     1     -13.302  12.250  72.025  1.00  0.00    -0.506 OA 
HETATM   25  C   UNL     1     -12.368  10.166  71.449  1.00  0.00    -0.515 A  
ENDBRANCH  17  18
BRANCH  14  26
HETATM   26  C   UNL     1      -9.626   6.619  69.506  1.00  0.00    -0.146 A  
HETATM   27  C   UNL     1      -7.853   5.806  70.962  1.00  0.00    -0.106 A  
HETATM   28  F   UNL     1      -8.199   3.848  72.221  1.00  0.00    -0.083 F  
HETATM   29  C   UNL     1      -8.335   6.737  70.041  1.00  0.00    -0.135 A  
HETATM   30  C   UNL     1      -9.951   4.618  70.839  1.00  0.00    -0.273 A  
HETATM   31  C   UNL     1      -8.663   4.751  71.347  1.00  0.00    -0.127 A  
HETATM   32  C   UNL     1     -10.437   5.557  69.921  1.00  0.00    -0.386 A  
ENDBRANCH  14  26
ENDBRANCH  12  13
ENDBRANCH  11  12
ENDBRANCH   3  11
TORSDOF 6
ENDMDL
MODEL       37
REMARK 921   NORMALIZED FREE ENERGY PREDICTED BY IDOCK:   -7.04 KCAL/MOL
REMARK 922        TOTAL FREE ENERGY PREDICTED BY IDOCK:  -11.32 KCAL/MOL
REMARK 923 INTER-LIGAND FREE ENERGY PREDICTED BY IDOCK:  -10.12 KCAL/MOL
REMARK 924 INTRA-LIGAND FREE ENERGY PREDICTED BY IDOCK:   -1.20 KCAL/MOL
REMARK 927      BINDING AFFINITY PREDICTED BY RF-SCORE:    0.00 PKD
ROOT
HETATM    1  O   UNL     1     -10.480  17.911  69.008  1.00  0.00    -0.415 OA 
HETATM    2  H   UNL     1     -10.211  18.647  69.546  1.00  0.00     0.000 HD 
HETATM    3  C   UNL     1      -9.333  17.294  68.427  1.00  0.00    -0.275 C  
ENDROOT
BRANCH   3   4
HETATM    4  C   UNL     1      -8.506  18.316  67.676  1.00  0.00    -0.260 A  
HETATM    5  C   UNL     1      -8.425  19.650  68.108  1.00  0.00    -0.357 A  
HETATM    6  C   UNL     1      -7.805  17.935  66.518  1.00  0.00    -0.298 A  
HETATM    7  C   UNL     1      -7.639  20.575  67.421  1.00  0.00    -0.380 A  
HETATM    8  F   UNL     1      -6.165  21.051  65.646  1.00  0.00    -0.267 F  
HETATM    9  C   UNL     1      -7.016  18.861  65.833  1.00  0.00    -0.304 A  
HETATM   10  C   UNL     1      -6.936  20.169  66.294  1.00  0.00    -0.252 A  
ENDBRANCH   3   4
BRANCH   3  11
HETATM   11  C   UNL     1      -9.766  16.109  67.560  1.00  0.00    -0.233 C  
BRANCH  11  12
HETATM   12  C   UNL     1     -11.251  16.108  67.153  1.00  0.00     0.051 C  
BRANCH  12  13
HETATM   13  C   UNL     1     -11.857  14.757  67.527  1.00  0.00    -0.326 C  
HETATM   14  N   UNL     1     -11.288  13.065  66.473  1.00  0.00    -0.306 N  
HETATM   15  O   UNL     1     -13.142  14.095  65.439  1.00  0.00    -0.743 OA 
HETATM   16  C   UNL     1     -12.304  13.946  66.296  1.00  0.00    -0.449 C  
HETATM   17  C   UNL     1     -10.924  13.520  67.821  1.00  0.00    -0.266 C  
BRANCH  17  18
HETATM   18  C   UNL     1     -11.433  12.651  69.073  1.00  0.00    -0.354 A  
HETATM   19  H   UNL     1     -13.808  10.836  72.759  1.00  0.00     0.000 HD 
HETATM   20  C   UNL     1     -11.906  10.479  70.131  1.00  0.00    -0.404 A  
HETATM   21  C   UNL     1     -11.305  11.247  69.128  1.00  0.00    -0.349 A  
HETATM   22  C   UNL     1     -12.158  13.250  70.125  1.00  0.00    -0.403 A  
HETATM   23  C   UNL     1     -12.648  11.112  71.118  1.00  0.00    -0.409 A  
HETATM   24  O   UNL     1     -13.300  10.403  72.083  1.00  0.00    -0.441 OA 
HETATM   25  C   UNL     1     -12.762  12.492  71.136  1.00  0.00    -0.340 A  
ENDBRANCH  17  18
BRANCH  14  26
HETATM   26  C   UNL     1     -10.737  12.114  65.621  1.00  0.00    -0.275 A  
HETATM   27  C   UNL     1     -10.064  11.450  63.378  1.00  0.00    -0.444 A  
HETATM   28  F   UNL     1      -9.095   9.331  63.043  1.00  0.00    -0.249 F  
HETATM   29  C   UNL     1     -10.623  12.385  64.249  1.00  0.00    -0.391 A  
HETATM   30  C   UNL     1      -9.713   9.949  65.237  1.00  0.00    -0.383 A  
HETATM   31  C   UNL     1      -9.620  10.237  63.879  1.00  0.00    -0.293 A  
HETATM   32  C   UNL     1     -10.266  10.891  66.111  1.00  0.00    -0.304 A  
ENDBRANCH  14  26
ENDBRANCH  12  13
ENDBRANCH  11  12
ENDBRANCH   3  11
TORSDOF 6
ENDMDL
MODEL       38
REMARK 921   NORMALIZED FREE ENERGY PREDICTED BY IDOCK:   -7.03 KCAL/MOL
REMARK 922        TOTAL FREE ENERGY PREDICTED BY IDOCK:  -11.30 KCAL/MOL
REMARK 923 INTER-LIGAND FREE ENERGY PREDICTED BY IDOCK:   -9.88 KCAL/MOL
REMARK 924 INTRA-LIGAND FREE ENERGY PREDICTED BY IDOCK:   -1.42 KCAL/MOL
REMARK 927      BINDING AFFINITY PREDICTED BY RF-SCORE:    0.00 PKD
ROOT
HETATM    1  O   UNL     1     -11.031  16.573  69.704  1.00  0.00    -0.325 OA 
HETATM    2  H   UNL     1     -10.931  17.230  70.382  1.00  0.00     0.000 HD 
HETATM    3  C   UNL     1      -9.788  16.381  69.031  1.00  0.00    -0.266 C  
ENDROOT
BRANCH   3   4
HETATM    4  C   UNL     1      -9.257  17.701  68.513  1.00  0.00    -0.281 A  
HETATM    5  C   UNL     1     -10.121  18.764  68.202  1.00  0.00    -0.427 A  
HETATM    6  C   UNL     1      -7.874  17.876  68.329  1.00  0.00    -0.285 A  
HETATM    7  C   UNL     1      -9.616  19.982  67.749  1.00  0.00    -0.509 A  
HETATM    8  F   UNL     1      -7.758  21.316  67.186  1.00  0.00    -0.363 F  
HETATM    9  C   UNL     1      -7.370  19.097  67.879  1.00  0.00    -0.279 A  
HETATM   10  C   UNL     1      -8.245  20.140  67.600  1.00  0.00    -0.294 A  
ENDBRANCH   3   4
BRANCH   3  11
HETATM   11  C   UNL     1      -9.950  15.321  67.938  1.00  0.00    -0.228 C  
BRANCH  11  12
HETATM   12  C   UNL     1     -11.380  15.160  67.393  1.00  0.00    -0.309 C  
BRANCH  12  13
HETATM   13  C   UNL     1     -11.807  13.704  67.567  1.00  0.00    -0.416 C  
HETATM   14  N   UNL     1     -11.037  12.263  66.292  1.00  0.00    -0.287 N  
HETATM   15  O   UNL     1     -13.015  13.185  65.395  1.00  0.00    -0.617 OA 
HETATM   16  C   UNL     1     -12.158  13.025  66.230  1.00  0.00    -0.386 C  
HETATM   17  C   UNL     1     -10.722  12.567  67.694  1.00  0.00    -0.218 C  
BRANCH  17  18
HETATM   18  C   UNL     1     -11.106  11.473  68.806  1.00  0.00    -0.288 A  
HETATM   19  H   UNL     1     -11.106   8.243  72.282  1.00  0.00     0.000 HD 
HETATM   20  C   UNL     1     -12.508  10.718  70.683  1.00  0.00    -0.461 A  
HETATM   21  C   UNL     1     -12.269  11.570  69.600  1.00  0.00    -0.296 A  
HETATM   22  C   UNL     1     -10.217  10.426  69.131  1.00  0.00    -0.239 A  
HETATM   23  C   UNL     1     -11.581   9.733  70.991  1.00  0.00    -0.376 A  
HETATM   24  O   UNL     1     -11.741   8.917  72.071  1.00  0.00    -0.350 OA 
HETATM   25  C   UNL     1     -10.448   9.565  70.213  1.00  0.00    -0.319 A  
ENDBRANCH  17  18
BRANCH  14  26
HETATM   26  C   UNL     1     -10.377  11.519  65.320  1.00  0.00    -0.272 A  
HETATM   27  C   UNL     1      -9.223   9.477  64.669  1.00  0.00    -0.247 A  
HETATM   28  F   UNL     1      -8.422   9.255  62.467  1.00  0.00    -0.150 F  
HETATM   29  C   UNL     1      -9.879  10.245  65.632  1.00  0.00    -0.332 A  
HETATM   30  C   UNL     1      -9.557  11.240  63.054  1.00  0.00    -0.397 A  
HETATM   31  C   UNL     1      -9.062   9.984  63.390  1.00  0.00    -0.273 A  
HETATM   32  C   UNL     1     -10.222  12.007  64.017  1.00  0.00    -0.391 A  
ENDBRANCH  14  26
ENDBRANCH  12  13
ENDBRANCH  11  12
ENDBRANCH   3  11
TORSDOF 6
ENDMDL
MODEL       39
REMARK 921   NORMALIZED FREE ENERGY PREDICTED BY IDOCK:   -7.02 KCAL/MOL
REMARK 922        TOTAL FREE ENERGY PREDICTED BY IDOCK:  -11.29 KCAL/MOL
REMARK 923 INTER-LIGAND FREE ENERGY PREDICTED BY IDOCK:   -9.42 KCAL/MOL
REMARK 924 INTRA-LIGAND FREE ENERGY PREDICTED BY IDOCK:   -1.87 KCAL/MOL
REMARK 927      BINDING AFFINITY PREDICTED BY RF-SCORE:    0.00 PKD
ROOT
HETATM    1  O   UNL     1     -12.929  13.235  64.845  1.00  0.00    -0.727 OA 
HETATM    2  H   UNL     1     -13.666  13.734  65.178  1.00  0.00     0.000 HD 
HETATM    3  C   UNL     1     -12.103  12.814  65.928  1.00  0.00    -0.426 C  
ENDROOT
BRANCH   3   4
HETATM    4  C   UNL     1     -11.690  14.002  66.771  1.00  0.00    -0.430 A  
HETATM    5  C   UNL     1     -10.975  15.077  66.218  1.00  0.00    -0.338 A  
HETATM    6  C   UNL     1     -12.018  14.039  68.138  1.00  0.00    -0.382 A  
HETATM    7  C   UNL     1     -10.623  16.176  67.001  1.00  0.00    -0.292 A  
HETATM    8  F   UNL     1     -10.661  17.265  69.090  1.00  0.00    -0.318 F  
HETATM    9  C   UNL     1     -11.668  15.141  68.920  1.00  0.00    -0.357 A  
HETATM   10  C   UNL     1     -10.980  16.201  68.342  1.00  0.00    -0.341 A  
ENDBRANCH   3   4
BRANCH   3  11
HETATM   11  C   UNL     1     -10.916  12.010  65.391  1.00  0.00    -0.347 C  
BRANCH  11  12
HETATM   12  C   UNL     1      -9.634  12.097  66.239  1.00  0.00    -0.246 C  
BRANCH  12  13
HETATM   13  C   UNL     1      -9.320  10.708  66.790  1.00  0.00    -0.179 C  
HETATM   14  N   UNL     1     -10.321  10.037  68.476  1.00  0.00    -0.184 N  
HETATM   15  O   UNL     1      -8.360  11.195  69.090  1.00  0.00    -0.097 OA 
HETATM   16  C   UNL     1      -9.149  10.702  68.321  1.00  0.00    -0.153 C  
HETATM   17  C   UNL     1     -10.483   9.677  67.061  1.00  0.00    -0.232 C  
BRANCH  17  18
HETATM   18  C   UNL     1     -10.096   8.183  66.614  1.00  0.00    -0.344 A  
HETATM   19  H   UNL     1      -7.882   4.137  65.502  1.00  0.00     0.000 HD 
HETATM   20  C   UNL     1     -10.439   5.749  66.731  1.00  0.00    -0.350 A  
HETATM   21  C   UNL     1     -10.870   7.058  66.967  1.00  0.00    -0.413 A  
HETATM   22  C   UNL     1      -8.877   7.917  65.953  1.00  0.00    -0.183 A  
HETATM   23  C   UNL     1      -9.212   5.537  66.119  1.00  0.00    -0.158 A  
HETATM   24  O   UNL     1      -8.722   4.281  65.921  1.00  0.00    -0.113 OA 
HETATM   25  C   UNL     1      -8.436   6.609  65.709  1.00  0.00    -0.150 A  
ENDBRANCH  17  18
BRANCH  14  26
HETATM   26  C   UNL     1     -11.127   9.843  69.593  1.00  0.00    -0.241 A  
HETATM   27  C   UNL     1     -11.767   8.476  71.503  1.00  0.00    -0.354 A  
HETATM   28  F   UNL     1     -13.483   9.220  72.932  1.00  0.00    -0.468 F  
HETATM   29  C   UNL     1     -10.977   8.686  70.372  1.00  0.00    -0.256 A  
HETATM   30  C   UNL     1     -12.874  10.584  71.104  1.00  0.00    -0.513 A  
HETATM   31  C   UNL     1     -12.714   9.424  71.855  1.00  0.00    -0.401 A  
HETATM   32  C   UNL     1     -12.075  10.798  69.975  1.00  0.00    -0.423 A  
ENDBRANCH  14  26
ENDBRANCH  12  13
ENDBRANCH  11  12
ENDBRANCH   3  11
TORSDOF 6
ENDMDL
MODEL       40
REMARK 921   NORMALIZED FREE ENERGY PREDICTED BY IDOCK:   -7.00 KCAL/MOL
REMARK 922        TOTAL FREE ENERGY PREDICTED BY IDOCK:  -11.25 KCAL/MOL
REMARK 923 INTER-LIGAND FREE ENERGY PREDICTED BY IDOCK:   -9.00 KCAL/MOL
REMARK 924 INTRA-LIGAND FREE ENERGY PREDICTED BY IDOCK:   -2.26 KCAL/MOL
REMARK 927      BINDING AFFINITY PREDICTED BY RF-SCORE:    0.00 PKD
ROOT
HETATM    1  O   UNL     1     -10.145  13.376  68.265  1.00  0.00    -0.237 OA 
HETATM    2  H   UNL     1     -10.905  13.937  68.163  1.00  0.00     0.000 HD 
HETATM    3  C   UNL     1      -9.473  13.241  67.015  1.00  0.00    -0.243 C  
ENDROOT
BRANCH   3   4
HETATM    4  C   UNL     1     -10.433  12.761  65.947  1.00  0.00    -0.295 A  
HETATM    5  C   UNL     1     -11.790  13.125  65.967  1.00  0.00    -0.457 A  
HETATM    6  C   UNL     1      -9.971  11.930  64.911  1.00  0.00    -0.269 A  
HETATM    7  C   UNL     1     -12.657  12.696  64.964  1.00  0.00    -0.504 A  
HETATM    8  F   UNL     1     -13.000  11.502  62.962  1.00  0.00    -0.628 F  
HETATM    9  C   UNL     1     -10.839  11.504  63.905  1.00  0.00    -0.469 A  
HETATM   10  C   UNL     1     -12.172  11.897  63.938  1.00  0.00    -0.392 A  
ENDBRANCH   3   4
BRANCH   3  11
HETATM   11  C   UNL     1      -8.249  12.337  67.180  1.00  0.00    -0.179 C  
BRANCH  11  12
HETATM   12  C   UNL     1      -8.019  11.807  68.607  1.00  0.00    -0.116 C  
BRANCH  12  13
HETATM   13  C   UNL     1      -8.322  10.311  68.625  1.00  0.00    -0.122 C  
HETATM   14  N   UNL     1      -9.947   9.619  69.709  1.00  0.00    -0.212 N  
HETATM   15  O   UNL     1      -8.017   9.681  71.065  1.00  0.00    -0.301 OA 
HETATM   16  C   UNL     1      -8.641   9.786  70.038  1.00  0.00    -0.204 C  
HETATM   17  C   UNL     1      -9.765   9.786  68.262  1.00  0.00    -0.145 C  
BRANCH  17  18
HETATM   18  C   UNL     1      -9.726   8.465  67.349  1.00  0.00    -0.222 A  
HETATM   19  H   UNL     1      -8.481   4.629  64.848  1.00  0.00     0.000 HD 
HETATM   20  C   UNL     1     -10.580   6.231  66.765  1.00  0.00    -0.335 A  
HETATM   21  C   UNL     1     -10.710   7.457  67.427  1.00  0.00    -0.348 A  
HETATM   22  C   UNL     1      -8.621   8.191  66.515  1.00  0.00    -0.146 A  
HETATM   23  C   UNL     1      -9.452   5.992  65.993  1.00  0.00    -0.037 A  
HETATM   24  O   UNL     1      -9.253   4.793  65.376  1.00  0.00    -0.149 OA 
HETATM   25  C   UNL     1      -8.482   6.968  65.845  1.00  0.00    -0.151 A  
ENDBRANCH  17  18
BRANCH  14  26
HETATM   26  C   UNL     1     -11.077   9.434  70.500  1.00  0.00    -0.273 A  
HETATM   27  C   UNL     1     -12.437   7.986  71.905  1.00  0.00    -0.364 A  
HETATM   28  F   UNL     1     -14.409   8.833  72.870  1.00  0.00    -0.440 F  
HETATM   29  C   UNL     1     -11.315   8.189  71.100  1.00  0.00    -0.299 A  
HETATM   30  C   UNL     1     -13.104  10.276  71.533  1.00  0.00    -0.534 A  
HETATM   31  C   UNL     1     -13.325   9.029  72.108  1.00  0.00    -0.455 A  
HETATM   32  C   UNL     1     -11.975  10.482  70.732  1.00  0.00    -0.472 A  
ENDBRANCH  14  26
ENDBRANCH  12  13
ENDBRANCH  11  12
ENDBRANCH   3  11
TORSDOF 6
ENDMDL
MODEL       41
REMARK 921   NORMALIZED FREE ENERGY PREDICTED BY IDOCK:   -6.99 KCAL/MOL
REMARK 922        TOTAL FREE ENERGY PREDICTED BY IDOCK:  -11.25 KCAL/MOL
REMARK 923 INTER-LIGAND FREE ENERGY PREDICTED BY IDOCK:   -9.29 KCAL/MOL
REMARK 924 INTRA-LIGAND FREE ENERGY PREDICTED BY IDOCK:   -1.96 KCAL/MOL
REMARK 927      BINDING AFFINITY PREDICTED BY RF-SCORE:    0.00 PKD
ROOT
HETATM    1  O   UNL     1      -8.041  11.265  65.437  1.00  0.00    -0.363 OA 
HETATM    2  H   UNL     1      -7.691  10.382  65.408  1.00  0.00     0.000 HD 
HETATM    3  C   UNL     1      -8.175  11.685  66.793  1.00  0.00    -0.161 C  
ENDROOT
BRANCH   3   4
HETATM    4  C   UNL     1      -9.000  10.687  67.578  1.00  0.00    -0.136 A  
HETATM    5  C   UNL     1      -9.688   9.643  66.937  1.00  0.00    -0.240 A  
HETATM    6  C   UNL     1      -9.091  10.799  68.977  1.00  0.00    -0.153 A  
HETATM    7  C   UNL     1     -10.424   8.717  67.675  1.00  0.00    -0.311 A  
HETATM    8  F   UNL     1     -11.166   7.931  69.768  1.00  0.00    -0.232 F  
HETATM    9  C   UNL     1      -9.824   9.868  69.714  1.00  0.00    -0.268 A  
HETATM   10  C   UNL     1     -10.478   8.833  69.057  1.00  0.00    -0.203 A  
ENDBRANCH   3   4
BRANCH   3  11
HETATM   11  C   UNL     1      -8.739  13.107  66.840  1.00  0.00    -0.156 C  
BRANCH  11  12
HETATM   12  C   UNL     1      -9.724  13.456  65.710  1.00  0.00    -0.147 C  
BRANCH  12  13
HETATM   13  C   UNL     1     -10.541  14.674  66.135  1.00  0.00    -0.314 C  
HETATM   14  N   UNL     1     -11.508  14.657  67.968  1.00  0.00    -0.310 N  
HETATM   15  O   UNL     1     -12.907  13.766  66.290  1.00  0.00    -0.297 OA 
HETATM   16  C   UNL     1     -11.912  14.293  66.725  1.00  0.00    -0.436 C  
HETATM   17  C   UNL     1     -10.289  15.353  67.536  1.00  0.00    -0.264 C  
BRANCH  17  18
HETATM   18  C   UNL     1     -10.325  16.957  67.456  1.00  0.00    -0.318 A  
HETATM   19  H   UNL     1      -9.882  21.618  68.230  1.00  0.00     0.000 HD 
HETATM   20  C   UNL     1      -9.992  19.055  66.213  1.00  0.00    -0.449 A  
HETATM   21  C   UNL     1     -10.138  17.664  66.250  1.00  0.00    -0.344 A  
HETATM   22  C   UNL     1     -10.415  17.740  68.628  1.00  0.00    -0.295 A  
HETATM   23  C   UNL     1     -10.043  19.776  67.397  1.00  0.00    -0.422 A  
HETATM   24  O   UNL     1      -9.848  21.125  67.419  1.00  0.00    -0.312 OA 
HETATM   25  C   UNL     1     -10.273  19.133  68.602  1.00  0.00    -0.407 A  
ENDBRANCH  17  18
BRANCH  14  26
HETATM   26  C   UNL     1     -12.039  14.383  69.224  1.00  0.00    -0.299 A  
HETATM   27  C   UNL     1     -13.218  15.145  71.212  1.00  0.00    -0.536 A  
HETATM   28  F   UNL     1     -13.648  13.622  72.954  1.00  0.00    -0.595 F  
HETATM   29  C   UNL     1     -12.669  15.401  69.955  1.00  0.00    -0.189 A  
HETATM   30  C   UNL     1     -12.524  12.840  71.032  1.00  0.00    -0.369 A  
HETATM   31  C   UNL     1     -13.134  13.868  71.743  1.00  0.00    -0.377 A  
HETATM   32  C   UNL     1     -11.981  13.095  69.767  1.00  0.00    -0.382 A  
ENDBRANCH  14  26
ENDBRANCH  12  13
ENDBRANCH  11  12
ENDBRANCH   3  11
TORSDOF 6
ENDMDL
MODEL       42
REMARK 921   NORMALIZED FREE ENERGY PREDICTED BY IDOCK:   -6.97 KCAL/MOL
REMARK 922        TOTAL FREE ENERGY PREDICTED BY IDOCK:  -11.22 KCAL/MOL
REMARK 923 INTER-LIGAND FREE ENERGY PREDICTED BY IDOCK:   -9.86 KCAL/MOL
REMARK 924 INTRA-LIGAND FREE ENERGY PREDICTED BY IDOCK:   -1.36 KCAL/MOL
REMARK 927      BINDING AFFINITY PREDICTED BY RF-SCORE:    0.00 PKD
ROOT
HETATM    1  O   UNL     1     -11.247   7.159  68.320  1.00  0.00    -0.476 OA 
HETATM    2  H   UNL     1     -11.384   6.221  68.252  1.00  0.00     0.000 HD 
HETATM    3  C   UNL     1     -10.179   7.425  69.226  1.00  0.00    -0.199 C  
ENDROOT
BRANCH   3   4
HETATM    4  C   UNL     1     -10.437   6.758  70.561  1.00  0.00    -0.238 A  
HETATM    5  C   UNL     1     -10.860   7.499  71.677  1.00  0.00    -0.249 A  
HETATM    6  C   UNL     1     -10.249   5.372  70.700  1.00  0.00    -0.323 A  
HETATM    7  C   UNL     1     -11.118   6.869  72.893  1.00  0.00    -0.297 A  
HETATM    8  F   UNL     1     -11.218   4.885  74.161  1.00  0.00    -0.322 F  
HETATM    9  C   UNL     1     -10.512   4.741  71.917  1.00  0.00    -0.201 A  
HETATM   10  C   UNL     1     -10.950   5.495  73.000  1.00  0.00    -0.290 A  
ENDBRANCH   3   4
BRANCH   3  11
HETATM   11  C   UNL     1      -9.958   8.935  69.336  1.00  0.00    -0.192 C  
BRANCH  11  12
HETATM   12  C   UNL     1     -11.148   9.803  68.887  1.00  0.00    -0.139 C  
BRANCH  12  13
HETATM   13  C   UNL     1     -10.940  11.222  69.409  1.00  0.00    -0.282 C  
HETATM   14  N   UNL     1     -11.114  12.820  68.100  1.00  0.00    -0.242 N  
HETATM   15  O   UNL     1      -8.894  12.021  68.135  1.00  0.00    -0.171 OA 
HETATM   16  C   UNL     1     -10.049  12.071  68.483  1.00  0.00    -0.196 C  
HETATM   17  C   UNL     1     -12.026  12.335  69.145  1.00  0.00    -0.249 C  
BRANCH  17  18
HETATM   18  C   UNL     1     -12.269  13.273  70.426  1.00  0.00    -0.404 A  
HETATM   19  H   UNL     1     -12.998  16.880  73.422  1.00  0.00     0.000 HD 
HETATM   20  C   UNL     1     -13.443  13.772  72.531  1.00  0.00    -0.682 A  
HETATM   21  C   UNL     1     -13.091  12.888  71.506  1.00  0.00    -0.390 A  
HETATM   22  C   UNL     1     -11.770  14.593  70.465  1.00  0.00    -0.345 A  
HETATM   23  C   UNL     1     -12.964  15.074  72.500  1.00  0.00    -0.374 A  
HETATM   24  O   UNL     1     -13.326  15.989  73.444  1.00  0.00    -0.579 OA 
HETATM   25  C   UNL     1     -12.114  15.486  71.487  1.00  0.00    -0.458 A  
ENDBRANCH  17  18
BRANCH  14  26
HETATM   26  C   UNL     1     -11.290  13.686  67.027  1.00  0.00    -0.324 A  
HETATM   27  C   UNL     1     -10.616  15.689  65.819  1.00  0.00    -0.374 A  
HETATM   28  F   UNL     1     -11.756  16.288  63.849  1.00  0.00    -0.435 F  
HETATM   29  C   UNL     1     -10.464  14.812  66.894  1.00  0.00    -0.277 A  
HETATM   30  C   UNL     1     -12.422  14.325  64.979  1.00  0.00    -0.409 A  
HETATM   31  C   UNL     1     -11.599  15.442  64.875  1.00  0.00    -0.248 A  
HETATM   32  C   UNL     1     -12.264  13.442  66.053  1.00  0.00    -0.491 A  
ENDBRANCH  14  26
ENDBRANCH  12  13
ENDBRANCH  11  12
ENDBRANCH   3  11
TORSDOF 6
ENDMDL
MODEL       43
REMARK 921   NORMALIZED FREE ENERGY PREDICTED BY IDOCK:   -6.96 KCAL/MOL
REMARK 922        TOTAL FREE ENERGY PREDICTED BY IDOCK:  -11.21 KCAL/MOL
REMARK 923 INTER-LIGAND FREE ENERGY PREDICTED BY IDOCK:   -9.63 KCAL/MOL
REMARK 924 INTRA-LIGAND FREE ENERGY PREDICTED BY IDOCK:   -1.57 KCAL/MOL
REMARK 927      BINDING AFFINITY PREDICTED BY RF-SCORE:    0.00 PKD
ROOT
HETATM    1  O   UNL     1     -13.374  12.624  64.687  1.00  0.00    -0.767 OA 
HETATM    2  H   UNL     1     -14.010  13.268  64.975  1.00  0.00     0.000 HD 
HETATM    3  C   UNL     1     -12.263  12.610  65.580  1.00  0.00    -0.440 C  
ENDROOT
BRANCH   3   4
HETATM    4  C   UNL     1     -11.683  14.000  65.726  1.00  0.00    -0.368 A  
HETATM    5  C   UNL     1     -11.492  14.833  64.611  1.00  0.00    -0.381 A  
HETATM    6  C   UNL     1     -11.320  14.478  66.998  1.00  0.00    -0.359 A  
HETATM    7  C   UNL     1     -10.980  16.121  64.764  1.00  0.00    -0.330 A  
HETATM    8  F   UNL     1     -10.181  17.824  66.183  1.00  0.00    -0.322 F  
HETATM    9  C   UNL     1     -10.811  15.769  67.150  1.00  0.00    -0.289 A  
HETATM   10  C   UNL     1     -10.653  16.580  66.033  1.00  0.00    -0.253 A  
ENDBRANCH   3   4
BRANCH   3  11
HETATM   11  C   UNL     1     -11.238  11.572  65.114  1.00  0.00    -0.214 C  
BRANCH  11  12
HETATM   12  C   UNL     1      -9.806  11.792  65.633  1.00  0.00    -0.265 C  
BRANCH  12  13
HETATM   13  C   UNL     1      -9.571  10.866  66.824  1.00  0.00    -0.210 C  
HETATM   14  N   UNL     1     -10.636  11.175  68.574  1.00  0.00    -0.181 N  
HETATM   15  O   UNL     1      -8.632  12.420  68.598  1.00  0.00    -0.095 OA 
HETATM   16  C   UNL     1      -9.430  11.631  68.153  1.00  0.00    -0.191 C  
HETATM   17  C   UNL     1     -10.788  10.153  67.530  1.00  0.00    -0.290 C  
BRANCH  17  18
HETATM   18  C   UNL     1     -10.466   8.627  67.917  1.00  0.00    -0.269 A  
HETATM   19  H   UNL     1      -9.846   4.463  70.107  1.00  0.00     0.000 HD 
HETATM   20  C   UNL     1     -10.648   6.213  67.472  1.00  0.00    -0.344 A  
HETATM   21  C   UNL     1     -10.764   7.546  67.061  1.00  0.00    -0.367 A  
HETATM   22  C   UNL     1      -9.986   8.290  69.201  1.00  0.00    -0.196 A  
HETATM   23  C   UNL     1     -10.216   5.934  68.760  1.00  0.00    -0.189 A  
HETATM   24  O   UNL     1     -10.142   4.655  69.225  1.00  0.00    -0.193 OA 
HETATM   25  C   UNL     1      -9.864   6.960  69.622  1.00  0.00    -0.171 A  
ENDBRANCH  17  18
BRANCH  14  26
HETATM   26  C   UNL     1     -11.472  11.600  69.602  1.00  0.00    -0.288 A  
HETATM   27  C   UNL     1     -12.952  11.062  71.458  1.00  0.00    -0.553 A  
HETATM   28  F   UNL     1     -13.954  12.806  72.679  1.00  0.00    -0.607 F  
HETATM   29  C   UNL     1     -12.118  10.657  70.415  1.00  0.00    -0.430 A  
HETATM   30  C   UNL     1     -12.505  13.368  70.902  1.00  0.00    -0.439 A  
HETATM   31  C   UNL     1     -13.144  12.414  71.687  1.00  0.00    -0.307 A  
HETATM   32  C   UNL     1     -11.662  12.962  69.861  1.00  0.00    -0.324 A  
ENDBRANCH  14  26
ENDBRANCH  12  13
ENDBRANCH  11  12
ENDBRANCH   3  11
TORSDOF 6
ENDMDL
MODEL       44
REMARK 921   NORMALIZED FREE ENERGY PREDICTED BY IDOCK:   -6.96 KCAL/MOL
REMARK 922        TOTAL FREE ENERGY PREDICTED BY IDOCK:  -11.20 KCAL/MOL
REMARK 923 INTER-LIGAND FREE ENERGY PREDICTED BY IDOCK:   -9.46 KCAL/MOL
REMARK 924 INTRA-LIGAND FREE ENERGY PREDICTED BY IDOCK:   -1.74 KCAL/MOL
REMARK 927      BINDING AFFINITY PREDICTED BY RF-SCORE:    0.00 PKD
ROOT
HETATM    1  O   UNL     1      -7.836  11.219  65.690  1.00  0.00    -0.370 OA 
HETATM    2  H   UNL     1      -7.654  12.092  65.365  1.00  0.00     0.000 HD 
HETATM    3  C   UNL     1      -8.978  10.685  65.024  1.00  0.00    -0.199 C  
ENDROOT
BRANCH   3   4
HETATM    4  C   UNL     1     -10.155  11.629  65.151  1.00  0.00    -0.304 A  
HETATM    5  C   UNL     1     -11.094  11.768  64.116  1.00  0.00    -0.442 A  
HETATM    6  C   UNL     1     -10.319  12.391  66.322  1.00  0.00    -0.267 A  
HETATM    7  C   UNL     1     -12.187  12.623  64.257  1.00  0.00    -0.524 A  
HETATM    8  F   UNL     1     -13.401  14.151  65.576  1.00  0.00    -0.531 F  
HETATM    9  C   UNL     1     -11.415  13.243  66.463  1.00  0.00    -0.372 A  
HETATM   10  C   UNL     1     -12.341  13.346  65.432  1.00  0.00    -0.477 A  
ENDBRANCH   3   4
BRANCH   3  11
HETATM   11  C   UNL     1      -9.271   9.277  65.549  1.00  0.00    -0.292 C  
BRANCH  11  12
HETATM   12  C   UNL     1      -8.915   9.045  67.028  1.00  0.00    -0.144 C  
BRANCH  12  13
HETATM   13  C   UNL     1     -10.206   9.039  67.844  1.00  0.00    -0.272 C  
HETATM   14  N   UNL     1     -10.457   7.620  69.333  1.00  0.00    -0.218 N  
HETATM   15  O   UNL     1     -11.252   6.799  67.270  1.00  0.00    -0.348 OA 
HETATM   16  C   UNL     1     -10.792   7.626  68.019  1.00  0.00    -0.001 C  
HETATM   17  C   UNL     1     -10.151   9.054  69.420  1.00  0.00    -0.198 C  
BRANCH  17  18
HETATM   18  C   UNL     1     -11.258  10.023  70.065  1.00  0.00    -0.345 A  
HETATM   19  H   UNL     1     -14.321  12.263  72.914  1.00  0.00     0.000 HD 
HETATM   20  C   UNL     1     -12.188  12.270  70.445  1.00  0.00    -0.371 A  
HETATM   21  C   UNL     1     -11.343  11.396  69.752  1.00  0.00    -0.332 A  
HETATM   22  C   UNL     1     -12.120   9.563  71.084  1.00  0.00    -0.429 A  
HETATM   23  C   UNL     1     -12.982  11.779  71.470  1.00  0.00    -0.341 A  
HETATM   24  O   UNL     1     -13.777  12.600  72.212  1.00  0.00    -0.507 OA 
HETATM   25  C   UNL     1     -12.971  10.429  71.783  1.00  0.00    -0.580 A  
ENDBRANCH  17  18
BRANCH  14  26
HETATM   26  C   UNL     1     -10.362   6.581  70.253  1.00  0.00    -0.201 A  
HETATM   27  C   UNL     1      -9.292   4.519  70.982  1.00  0.00    -0.214 A  
HETATM   28  F   UNL     1     -10.024   3.475  72.960  1.00  0.00    -0.153 F  
HETATM   29  C   UNL     1      -9.412   5.566  70.066  1.00  0.00    -0.205 A  
HETATM   30  C   UNL     1     -11.070   5.486  72.299  1.00  0.00    -0.297 A  
HETATM   31  C   UNL     1     -10.128   4.485  72.086  1.00  0.00    -0.195 A  
HETATM   32  C   UNL     1     -11.184   6.540  71.385  1.00  0.00    -0.331 A  
ENDBRANCH  14  26
ENDBRANCH  12  13
ENDBRANCH  11  12
ENDBRANCH   3  11
TORSDOF 6
ENDMDL
MODEL       45
REMARK 921   NORMALIZED FREE ENERGY PREDICTED BY IDOCK:   -6.95 KCAL/MOL
REMARK 922        TOTAL FREE ENERGY PREDICTED BY IDOCK:  -11.19 KCAL/MOL
REMARK 923 INTER-LIGAND FREE ENERGY PREDICTED BY IDOCK:   -9.26 KCAL/MOL
REMARK 924 INTRA-LIGAND FREE ENERGY PREDICTED BY IDOCK:   -1.93 KCAL/MOL
REMARK 927      BINDING AFFINITY PREDICTED BY RF-SCORE:    0.00 PKD
ROOT
HETATM    1  O   UNL     1      -9.203   8.716  64.700  1.00  0.00    -0.385 OA 
HETATM    2  H   UNL     1      -9.153   7.780  64.546  1.00  0.00     0.000 HD 
HETATM    3  C   UNL     1      -8.725   9.015  66.009  1.00  0.00    -0.160 C  
ENDROOT
BRANCH   3   4
HETATM    4  C   UNL     1      -9.467   8.196  67.044  1.00  0.00    -0.226 A  
HETATM    5  C   UNL     1      -9.364   8.486  68.415  1.00  0.00    -0.137 A  
HETATM    6  C   UNL     1     -10.273   7.118  66.639  1.00  0.00    -0.224 A  
HETATM    7  C   UNL     1     -10.073   7.740  69.356  1.00  0.00    -0.195 A  
HETATM    8  F   UNL     1     -11.579   5.992  69.830  1.00  0.00    -0.476 F  
HETATM    9  C   UNL     1     -10.984   6.373  67.581  1.00  0.00    -0.441 A  
HETATM   10  C   UNL     1     -10.883   6.696  68.929  1.00  0.00    -0.277 A  
ENDBRANCH   3   4
BRANCH   3  11
HETATM   11  C   UNL     1      -8.806  10.523  66.258  1.00  0.00    -0.172 C  
BRANCH  11  12
HETATM   12  C   UNL     1      -9.471  11.334  65.131  1.00  0.00    -0.242 C  
BRANCH  12  13
HETATM   13  C   UNL     1      -9.966  12.658  65.711  1.00  0.00    -0.266 C  
HETATM   14  N   UNL     1     -10.944  12.662  67.538  1.00  0.00    -0.238 N  
HETATM   15  O   UNL     1     -12.486  12.362  65.778  1.00  0.00    -0.615 OA 
HETATM   16  C   UNL     1     -11.400  12.565  66.264  1.00  0.00    -0.338 C  
HETATM   17  C   UNL     1      -9.581  13.076  67.182  1.00  0.00    -0.230 C  
BRANCH  17  18
HETATM   18  C   UNL     1      -9.212  14.635  67.300  1.00  0.00    -0.212 A  
HETATM   19  H   UNL     1      -8.980  19.357  66.892  1.00  0.00     0.000 HD 
HETATM   20  C   UNL     1      -8.701  16.626  68.655  1.00  0.00    -0.250 A  
HETATM   21  C   UNL     1      -8.847  15.241  68.521  1.00  0.00    -0.185 A  
HETATM   22  C   UNL     1      -9.368  15.503  66.198  1.00  0.00    -0.380 A  
HETATM   23  C   UNL     1      -8.910  17.441  67.553  1.00  0.00    -0.224 A  
HETATM   24  O   UNL     1      -8.837  18.799  67.647  1.00  0.00    -0.276 OA 
HETATM   25  C   UNL     1      -9.222  16.891  66.320  1.00  0.00    -0.299 A  
ENDBRANCH  17  18
BRANCH  14  26
HETATM   26  C   UNL     1     -11.553  12.379  68.756  1.00  0.00    -0.326 A  
HETATM   27  C   UNL     1     -12.499  13.163  70.857  1.00  0.00    -0.407 A  
HETATM   28  F   UNL     1     -13.377  11.601  72.382  1.00  0.00    -0.599 F  
HETATM   29  C   UNL     1     -11.878  13.423  69.635  1.00  0.00    -0.394 A  
HETATM   30  C   UNL     1     -12.491  10.804  70.344  1.00  0.00    -0.430 A  
HETATM   31  C   UNL     1     -12.793  11.855  71.204  1.00  0.00    -0.249 A  
HETATM   32  C   UNL     1     -11.876  11.066  69.115  1.00  0.00    -0.407 A  
ENDBRANCH  14  26
ENDBRANCH  12  13
ENDBRANCH  11  12
ENDBRANCH   3  11
TORSDOF 6
ENDMDL
MODEL       46
REMARK 921   NORMALIZED FREE ENERGY PREDICTED BY IDOCK:   -6.91 KCAL/MOL
REMARK 922        TOTAL FREE ENERGY PREDICTED BY IDOCK:  -11.14 KCAL/MOL
REMARK 923 INTER-LIGAND FREE ENERGY PREDICTED BY IDOCK:   -9.02 KCAL/MOL
REMARK 924 INTRA-LIGAND FREE ENERGY PREDICTED BY IDOCK:   -2.12 KCAL/MOL
REMARK 927      BINDING AFFINITY PREDICTED BY RF-SCORE:    0.00 PKD
ROOT
HETATM    1  O   UNL     1     -11.040   7.306  67.016  1.00  0.00    -0.531 OA 
HETATM    2  H   UNL     1     -11.411   6.490  67.330  1.00  0.00     0.000 HD 
HETATM    3  C   UNL     1      -9.918   7.666  67.819  1.00  0.00    -0.174 C  
ENDROOT
BRANCH   3   4
HETATM    4  C   UNL     1     -10.306   7.708  69.282  1.00  0.00    -0.218 A  
HETATM    5  C   UNL     1      -9.692   8.601  70.175  1.00  0.00    -0.182 A  
HETATM    6  C   UNL     1     -11.295   6.835  69.770  1.00  0.00    -0.350 A  
HETATM    7  C   UNL     1     -10.076   8.646  71.515  1.00  0.00    -0.345 A  
HETATM    8  F   UNL     1     -11.458   7.849  73.249  1.00  0.00    -0.443 F  
HETATM    9  C   UNL     1     -11.682   6.883  71.110  1.00  0.00    -0.381 A  
HETATM   10  C   UNL     1     -11.073   7.792  71.968  1.00  0.00    -0.269 A  
ENDBRANCH   3   4
BRANCH   3  11
HETATM   11  C   UNL     1      -9.320   8.981  67.313  1.00  0.00    -0.172 C  
BRANCH  11  12
HETATM   12  C   UNL     1     -10.151   9.703  66.237  1.00  0.00    -0.322 C  
BRANCH  12  13
HETATM   13  C   UNL     1     -10.019  11.210  66.449  1.00  0.00    -0.257 C  
HETATM   14  N   UNL     1     -10.929  12.086  68.092  1.00  0.00    -0.217 N  
HETATM   15  O   UNL     1     -12.410  12.040  66.256  1.00  0.00    -0.432 OA 
HETATM   16  C   UNL     1     -11.356  11.877  66.821  1.00  0.00    -0.330 C  
HETATM   17  C   UNL     1      -9.516  11.778  67.832  1.00  0.00    -0.191 C  
BRANCH  17  18
HETATM   18  C   UNL     1      -8.497  13.007  67.657  1.00  0.00    -0.187 A  
HETATM   19  H   UNL     1      -6.440  17.267  67.286  1.00  0.00     0.000 HD 
HETATM   20  C   UNL     1      -6.377  14.135  68.198  1.00  0.00    -0.132 A  
HETATM   21  C   UNL     1      -7.194  12.999  68.198  1.00  0.00    -0.116 A  
HETATM   22  C   UNL     1      -8.915  14.217  67.060  1.00  0.00    -0.251 A  
HETATM   23  C   UNL     1      -6.851  15.313  67.640  1.00  0.00    -0.180 A  
HETATM   24  O   UNL     1      -6.115  16.461  67.668  1.00  0.00    -0.118 OA 
HETATM   25  C   UNL     1      -8.104  15.359  67.052  1.00  0.00    -0.265 A  
ENDBRANCH  17  18
BRANCH  14  26
HETATM   26  C   UNL     1     -11.624  12.404  69.254  1.00  0.00    -0.319 A  
HETATM   27  C   UNL     1     -12.801  11.677  71.256  1.00  0.00    -0.430 A  
HETATM   28  F   UNL     1     -13.682  13.289  72.728  1.00  0.00    -0.615 F  
HETATM   29  C   UNL     1     -12.111  11.380  70.080  1.00  0.00    -0.439 A  
HETATM   30  C   UNL     1     -12.525  14.033  70.809  1.00  0.00    -0.442 A  
HETATM   31  C   UNL     1     -13.008  13.001  71.606  1.00  0.00    -0.321 A  
HETATM   32  C   UNL     1     -11.825  13.735  69.634  1.00  0.00    -0.393 A  
ENDBRANCH  14  26
ENDBRANCH  12  13
ENDBRANCH  11  12
ENDBRANCH   3  11
TORSDOF 6
ENDMDL
MODEL       47
REMARK 921   NORMALIZED FREE ENERGY PREDICTED BY IDOCK:   -6.91 KCAL/MOL
REMARK 922        TOTAL FREE ENERGY PREDICTED BY IDOCK:  -11.14 KCAL/MOL
REMARK 923 INTER-LIGAND FREE ENERGY PREDICTED BY IDOCK:   -9.92 KCAL/MOL
REMARK 924 INTRA-LIGAND FREE ENERGY PREDICTED BY IDOCK:   -1.22 KCAL/MOL
REMARK 927      BINDING AFFINITY PREDICTED BY RF-SCORE:    0.00 PKD
ROOT
HETATM    1  O   UNL     1     -11.653   6.974  73.097  1.00  0.00    -0.526 OA 
HETATM    2  H   UNL     1     -11.215   6.229  73.491  1.00  0.00     0.000 HD 
HETATM    3  C   UNL     1     -12.246   6.587  71.860  1.00  0.00    -0.324 C  
ENDROOT
BRANCH   3   4
HETATM    4  C   UNL     1     -11.214   5.951  70.954  1.00  0.00    -0.278 A  
HETATM    5  C   UNL     1     -11.265   6.118  69.560  1.00  0.00    -0.482 A  
HETATM    6  C   UNL     1     -10.182   5.171  71.506  1.00  0.00    -0.274 A  
HETATM    7  C   UNL     1     -10.293   5.547  68.739  1.00  0.00    -0.271 A  
HETATM    8  F   UNL     1      -8.324   4.271  68.523  1.00  0.00    -0.082 F  
HETATM    9  C   UNL     1      -9.208   4.603  70.683  1.00  0.00    -0.197 A  
HETATM   10  C   UNL     1      -9.269   4.802  69.309  1.00  0.00    -0.118 A  
ENDBRANCH   3   4
BRANCH   3  11
HETATM   11  C   UNL     1     -12.952   7.789  71.226  1.00  0.00    -0.257 C  
BRANCH  11  12
HETATM   12  C   UNL     1     -13.424   8.866  72.219  1.00  0.00    -0.503 C  
BRANCH  12  13
HETATM   13  C   UNL     1     -12.586  10.124  72.007  1.00  0.00    -0.351 C  
HETATM   14  N   UNL     1     -11.724  10.468  70.154  1.00  0.00    -0.299 N  
HETATM   15  O   UNL     1     -10.268   9.210  71.520  1.00  0.00    -0.323 OA 
HETATM   16  C   UNL     1     -11.266   9.841  71.267  1.00  0.00    -0.347 C  
HETATM   17  C   UNL     1     -12.890  11.089  70.797  1.00  0.00    -0.266 C  
BRANCH  17  18
HETATM   18  C   UNL     1     -12.788  12.639  71.206  1.00  0.00    -0.344 A  
HETATM   19  H   UNL     1     -12.639  16.803  73.476  1.00  0.00     0.000 HD 
HETATM   20  C   UNL     1     -11.682  14.833  71.058  1.00  0.00    -0.358 A  
HETATM   21  C   UNL     1     -11.894  13.534  70.582  1.00  0.00    -0.200 A  
HETATM   22  C   UNL     1     -13.506  13.146  72.311  1.00  0.00    -0.665 A  
HETATM   23  C   UNL     1     -12.378  15.269  72.176  1.00  0.00    -0.365 A  
HETATM   24  O   UNL     1     -12.163  16.504  72.711  1.00  0.00    -0.464 OA 
HETATM   25  C   UNL     1     -13.303  14.445  72.794  1.00  0.00    -0.606 A  
ENDBRANCH  17  18
BRANCH  14  26
HETATM   26  C   UNL     1     -11.274  10.450  68.838  1.00  0.00    -0.235 A  
HETATM   27  C   UNL     1     -10.094   9.306  67.043  1.00  0.00    -0.313 A  
HETATM   28  F   UNL     1      -9.925  10.335  64.933  1.00  0.00    -0.328 F  
HETATM   29  C   UNL     1     -10.546   9.350  68.362  1.00  0.00    -0.247 A  
HETATM   30  C   UNL     1     -11.098  11.465  66.642  1.00  0.00    -0.333 A  
HETATM   31  C   UNL     1     -10.368  10.368  66.196  1.00  0.00    -0.200 A  
HETATM   32  C   UNL     1     -11.558  11.505  67.963  1.00  0.00    -0.370 A  
ENDBRANCH  14  26
ENDBRANCH  12  13
ENDBRANCH  11  12
ENDBRANCH   3  11
TORSDOF 6
ENDMDL
MODEL       48
REMARK 921   NORMALIZED FREE ENERGY PREDICTED BY IDOCK:   -6.89 KCAL/MOL
REMARK 922        TOTAL FREE ENERGY PREDICTED BY IDOCK:  -11.12 KCAL/MOL
REMARK 923 INTER-LIGAND FREE ENERGY PREDICTED BY IDOCK:   -9.01 KCAL/MOL
REMARK 924 INTRA-LIGAND FREE ENERGY PREDICTED BY IDOCK:   -2.10 KCAL/MOL
REMARK 927      BINDING AFFINITY PREDICTED BY RF-SCORE:    0.00 PKD
ROOT
HETATM    1  O   UNL     1      -7.429  10.897  69.099  1.00  0.00    -0.114 OA 
HETATM    2  H   UNL     1      -7.402  10.730  70.034  1.00  0.00     0.000 HD 
HETATM    3  C   UNL     1      -8.781  11.053  68.676  1.00  0.00    -0.161 C  
ENDROOT
BRANCH   3   4
HETATM    4  C   UNL     1      -9.610   9.857  69.095  1.00  0.00    -0.204 A  
HETATM    5  C   UNL     1      -9.772   8.748  68.249  1.00  0.00    -0.175 A  
HETATM    6  C   UNL     1     -10.239   9.847  70.353  1.00  0.00    -0.299 A  
HETATM    7  C   UNL     1     -10.517   7.643  68.659  1.00  0.00    -0.203 A  
HETATM    8  F   UNL     1     -11.806   6.576  70.318  1.00  0.00    -0.425 F  
HETATM    9  C   UNL     1     -10.981   8.739  70.763  1.00  0.00    -0.294 A  
HETATM   10  C   UNL     1     -11.108   7.645  69.915  1.00  0.00    -0.150 A  
ENDBRANCH   3   4
BRANCH   3  11
HETATM   11  C   UNL     1      -8.824  11.321  67.169  1.00  0.00    -0.153 C  
BRANCH  11  12
HETATM   12  C   UNL     1      -9.436  12.674  66.765  1.00  0.00    -0.237 C  
BRANCH  12  13
HETATM   13  C   UNL     1      -9.821  13.433  68.033  1.00  0.00    -0.229 C  
HETATM   14  N   UNL     1     -10.026  15.494  67.959  1.00  0.00    -0.214 N  
HETATM   15  O   UNL     1      -7.799  14.905  68.470  1.00  0.00    -0.114 OA 
HETATM   16  C   UNL     1      -8.968  14.697  68.251  1.00  0.00    -0.184 C  
HETATM   17  C   UNL     1     -11.040  14.433  68.024  1.00  0.00    -0.272 C  
BRANCH  17  18
HETATM   18  C   UNL     1     -11.933  14.326  69.354  1.00  0.00    -0.381 A  
HETATM   19  H   UNL     1     -13.804  13.200  73.568  1.00  0.00     0.000 HD 
HETATM   20  C   UNL     1     -13.123  15.378  71.235  1.00  0.00    -0.564 A  
HETATM   21  C   UNL     1     -12.499  15.454  69.985  1.00  0.00    -0.316 A  
HETATM   22  C   UNL     1     -12.082  13.096  70.031  1.00  0.00    -0.375 A  
HETATM   23  C   UNL     1     -13.203  14.153  71.882  1.00  0.00    -0.387 A  
HETATM   24  O   UNL     1     -13.749  14.039  73.125  1.00  0.00    -0.485 OA 
HETATM   25  C   UNL     1     -12.707  13.008  71.281  1.00  0.00    -0.385 A  
ENDBRANCH  17  18
BRANCH  14  26
HETATM   26  C   UNL     1     -10.096  16.843  67.629  1.00  0.00    -0.278 A  
HETATM   27  C   UNL     1     -10.400  18.577  65.948  1.00  0.00    -0.344 A  
HETATM   28  F   UNL     1     -10.329  20.838  66.595  1.00  0.00    -0.443 F  
HETATM   29  C   UNL     1     -10.316  17.229  66.298  1.00  0.00    -0.323 A  
HETATM   30  C   UNL     1     -10.055  19.186  68.258  1.00  0.00    -0.499 A  
HETATM   31  C   UNL     1     -10.262  19.544  66.930  1.00  0.00    -0.426 A  
HETATM   32  C   UNL     1      -9.978  17.834  68.611  1.00  0.00    -0.379 A  
ENDBRANCH  14  26
ENDBRANCH  12  13
ENDBRANCH  11  12
ENDBRANCH   3  11
TORSDOF 6
ENDMDL
MODEL       49
REMARK 921   NORMALIZED FREE ENERGY PREDICTED BY IDOCK:   -6.88 KCAL/MOL
REMARK 922        TOTAL FREE ENERGY PREDICTED BY IDOCK:  -11.10 KCAL/MOL
REMARK 923 INTER-LIGAND FREE ENERGY PREDICTED BY IDOCK:   -8.28 KCAL/MOL
REMARK 924 INTRA-LIGAND FREE ENERGY PREDICTED BY IDOCK:   -2.82 KCAL/MOL
REMARK 927      BINDING AFFINITY PREDICTED BY RF-SCORE:    0.00 PKD
ROOT
HETATM    1  O   UNL     1      -9.407   5.919  65.315  1.00  0.00    -0.365 OA 
HETATM    2  H   UNL     1      -9.410   4.993  65.526  1.00  0.00     0.000 HD 
HETATM    3  C   UNL     1      -8.765   6.649  66.359  1.00  0.00    -0.141 C  
ENDROOT
BRANCH   3   4
HETATM    4  C   UNL     1      -9.408   6.339  67.694  1.00  0.00    -0.116 A  
HETATM    5  C   UNL     1     -10.794   6.461  67.883  1.00  0.00    -0.404 A  
HETATM    6  C   UNL     1      -8.611   5.926  68.777  1.00  0.00    -0.110 A  
HETATM    7  C   UNL     1     -11.376   6.149  69.111  1.00  0.00    -0.303 A  
HETATM    8  F   UNL     1     -11.131   5.399  71.331  1.00  0.00    -0.291 F  
HETATM    9  C   UNL     1      -9.194   5.610  70.005  1.00  0.00    -0.172 A  
HETATM   10  C   UNL     1     -10.572   5.719  70.158  1.00  0.00    -0.307 A  
ENDBRANCH   3   4
BRANCH   3  11
HETATM   11  C   UNL     1      -8.760   8.141  66.020  1.00  0.00    -0.182 C  
BRANCH  11  12
HETATM   12  C   UNL     1      -7.733   8.983  66.799  1.00  0.00    -0.093 C  
BRANCH  12  13
HETATM   13  C   UNL     1      -8.485   9.909  67.751  1.00  0.00    -0.118 C  
HETATM   14  N   UNL     1      -9.709  11.389  66.972  1.00  0.00    -0.189 N  
HETATM   15  O   UNL     1      -7.508  12.195  67.238  1.00  0.00    -0.142 OA 
HETATM   16  C   UNL     1      -8.401  11.389  67.331  1.00  0.00    -0.144 C  
HETATM   17  C   UNL     1     -10.043  10.107  67.606  1.00  0.00    -0.190 C  
BRANCH  17  18
HETATM   18  C   UNL     1     -10.793  10.142  69.026  1.00  0.00    -0.257 A  
HETATM   19  H   UNL     1     -13.954  10.291  72.562  1.00  0.00     0.000 HD 
HETATM   20  C   UNL     1     -11.119   9.275  71.306  1.00  0.00    -0.427 A  
HETATM   21  C   UNL     1     -10.364   9.380  70.133  1.00  0.00    -0.273 A  
HETATM   22  C   UNL     1     -12.007  10.845  69.188  1.00  0.00    -0.359 A  
HETATM   23  C   UNL     1     -12.328   9.948  71.400  1.00  0.00    -0.404 A  
HETATM   24  O   UNL     1     -13.126   9.831  72.498  1.00  0.00    -0.322 OA 
HETATM   25  C   UNL     1     -12.769  10.749  70.359  1.00  0.00    -0.346 A  
ENDBRANCH  17  18
BRANCH  14  26
HETATM   26  C   UNL     1     -10.447  12.274  66.193  1.00  0.00    -0.240 A  
HETATM   27  C   UNL     1     -11.885  14.232  66.038  1.00  0.00    -0.399 A  
HETATM   28  F   UNL     1     -12.646  14.942  63.928  1.00  0.00    -0.459 F  
HETATM   29  C   UNL     1     -11.146  13.327  66.801  1.00  0.00    -0.313 A  
HETATM   30  C   UNL     1     -11.235  13.053  64.035  1.00  0.00    -0.448 A  
HETATM   31  C   UNL     1     -11.928  14.083  64.662  1.00  0.00    -0.430 A  
HETATM   32  C   UNL     1     -10.487  12.150  64.799  1.00  0.00    -0.332 A  
ENDBRANCH  14  26
ENDBRANCH  12  13
ENDBRANCH  11  12
ENDBRANCH   3  11
TORSDOF 6
ENDMDL
MODEL       50
REMARK 921   NORMALIZED FREE ENERGY PREDICTED BY IDOCK:   -6.86 KCAL/MOL
REMARK 922        TOTAL FREE ENERGY PREDICTED BY IDOCK:  -11.07 KCAL/MOL
REMARK 923 INTER-LIGAND FREE ENERGY PREDICTED BY IDOCK:   -8.62 KCAL/MOL
REMARK 924 INTRA-LIGAND FREE ENERGY PREDICTED BY IDOCK:   -2.46 KCAL/MOL
REMARK 927      BINDING AFFINITY PREDICTED BY RF-SCORE:    0.00 PKD
ROOT
HETATM    1  O   UNL     1     -13.622   8.847  73.130  1.00  0.00    -0.997 OA 
HETATM    2  H   UNL     1     -13.710   8.113  73.726  1.00  0.00     0.000 HD 
HETATM    3  C   UNL     1     -13.217   8.378  71.846  1.00  0.00    -0.357 C  
ENDROOT
BRANCH   3   4
HETATM    4  C   UNL     1     -11.959   7.544  71.959  1.00  0.00    -0.330 A  
HETATM    5  C   UNL     1     -11.740   6.435  71.124  1.00  0.00    -0.359 A  
HETATM    6  C   UNL     1     -10.984   7.871  72.919  1.00  0.00    -0.452 A  
HETATM    7  C   UNL     1     -10.566   5.690  71.223  1.00  0.00    -0.321 A  
HETATM    8  F   UNL     1      -8.470   5.346  72.243  1.00  0.00    -0.117 F  
HETATM    9  C   UNL     1      -9.808   7.127  73.014  1.00  0.00    -0.233 A  
HETATM   10  C   UNL     1      -9.607   6.048  72.161  1.00  0.00    -0.151 A  
ENDBRANCH   3   4
BRANCH   3  11
HETATM   11  C   UNL     1     -13.074   9.561  70.884  1.00  0.00    -0.169 C  
BRANCH  11  12
HETATM   12  C   UNL     1     -12.000  10.592  71.274  1.00  0.00    -0.386 C  
BRANCH  12  13
HETATM   13  C   UNL     1     -11.118  10.860  70.057  1.00  0.00    -0.285 C  
HETATM   14  N   UNL     1     -10.416   9.260  68.942  1.00  0.00    -0.214 N  
HETATM   15  O   UNL     1      -8.910   9.775  70.684  1.00  0.00    -0.153 OA 
HETATM   16  C   UNL     1      -9.890   9.931  69.997  1.00  0.00    -0.243 C  
HETATM   17  C   UNL     1     -11.480  10.230  68.657  1.00  0.00    -0.112 C  
BRANCH  17  18
HETATM   18  C   UNL     1     -11.257  11.260  67.444  1.00  0.00    -0.370 A  
HETATM   19  H   UNL     1     -10.608  15.081  64.707  1.00  0.00     0.000 HD 
HETATM   20  C   UNL     1     -10.091  11.931  65.382  1.00  0.00    -0.285 A  
HETATM   21  C   UNL     1     -10.424  10.969  66.342  1.00  0.00    -0.312 A  
HETATM   22  C   UNL     1     -11.786  12.567  67.495  1.00  0.00    -0.439 A  
HETATM   23  C   UNL     1     -10.601  13.216  65.502  1.00  0.00    -0.288 A  
HETATM   24  O   UNL     1     -10.259  14.202  64.625  1.00  0.00    -0.408 OA 
HETATM   25  C   UNL     1     -11.461  13.537  66.538  1.00  0.00    -0.365 A  
ENDBRANCH  17  18
BRANCH  14  26
HETATM   26  C   UNL     1     -10.093   8.027  68.384  1.00  0.00    -0.195 A  
HETATM   27  C   UNL     1     -10.717   6.128  66.996  1.00  0.00    -0.423 A  
HETATM   28  F   UNL     1      -9.183   4.369  66.689  1.00  0.00    -0.115 F  
HETATM   29  C   UNL     1     -11.023   7.360  67.574  1.00  0.00    -0.176 A  
HETATM   30  C   UNL     1      -8.533   6.205  68.023  1.00  0.00    -0.116 A  
HETATM   31  C   UNL     1      -9.476   5.558  67.232  1.00  0.00    -0.117 A  
HETATM   32  C   UNL     1      -8.838   7.445  68.596  1.00  0.00    -0.126 A  
ENDBRANCH  14  26
ENDBRANCH  12  13
ENDBRANCH  11  12
ENDBRANCH   3  11
TORSDOF 6
ENDMDL
MODEL       51
REMARK 921   NORMALIZED FREE ENERGY PREDICTED BY IDOCK:   -6.85 KCAL/MOL
REMARK 922        TOTAL FREE ENERGY PREDICTED BY IDOCK:  -11.06 KCAL/MOL
REMARK 923 INTER-LIGAND FREE ENERGY PREDICTED BY IDOCK:   -9.64 KCAL/MOL
REMARK 924 INTRA-LIGAND FREE ENERGY PREDICTED BY IDOCK:   -1.42 KCAL/MOL
REMARK 927      BINDING AFFINITY PREDICTED BY RF-SCORE:    0.00 PKD
ROOT
HETATM    1  O   UNL     1     -12.223  15.239  68.303  1.00  0.00    -0.533 OA 
HETATM    2  H   UNL     1     -12.613  15.859  68.908  1.00  0.00     0.000 HD 
HETATM    3  C   UNL     1     -10.818  15.466  68.219  1.00  0.00    -0.269 C  
ENDROOT
BRANCH   3   4
HETATM    4  C   UNL     1     -10.535  16.911  67.863  1.00  0.00    -0.344 A  
HETATM    5  C   UNL     1     -10.285  17.872  68.857  1.00  0.00    -0.331 A  
HETATM    6  C   UNL     1     -10.525  17.311  66.515  1.00  0.00    -0.260 A  
HETATM    7  C   UNL     1     -10.001  19.193  68.513  1.00  0.00    -0.496 A  
HETATM    8  F   UNL     1      -9.679  20.823  66.843  1.00  0.00    -0.557 F  
HETATM    9  C   UNL     1     -10.237  18.633  66.173  1.00  0.00    -0.450 A  
HETATM   10  C   UNL     1      -9.972  19.560  67.175  1.00  0.00    -0.373 A  
ENDBRANCH   3   4
BRANCH   3  11
HETATM   11  C   UNL     1     -10.190  14.468  67.244  1.00  0.00    -0.255 C  
BRANCH  11  12
HETATM   12  C   UNL     1      -9.478  13.273  67.903  1.00  0.00    -0.214 C  
BRANCH  12  13
HETATM   13  C   UNL     1     -10.528  12.237  68.298  1.00  0.00    -0.236 C  
HETATM   14  N   UNL     1     -10.294  10.272  67.685  1.00  0.00    -0.205 N  
HETATM   15  O   UNL     1     -11.492  11.502  66.067  1.00  0.00    -0.274 OA 
HETATM   16  C   UNL     1     -10.935  11.327  67.124  1.00  0.00    -0.291 C  
HETATM   17  C   UNL     1     -10.096  10.893  69.001  1.00  0.00    -0.196 C  
BRANCH  17  18
HETATM   18  C   UNL     1     -11.092  10.474  70.190  1.00  0.00    -0.369 A  
HETATM   19  H   UNL     1     -14.790   9.860  73.098  1.00  0.00     0.000 HD 
HETATM   20  C   UNL     1     -12.056   8.774  71.687  1.00  0.00    -0.401 A  
HETATM   21  C   UNL     1     -11.076   9.193  70.781  1.00  0.00    -0.336 A  
HETATM   22  C   UNL     1     -12.128  11.338  70.607  1.00  0.00    -0.480 A  
HETATM   23  C   UNL     1     -13.080   9.645  72.031  1.00  0.00    -0.445 A  
HETATM   24  O   UNL     1     -14.090   9.264  72.863  1.00  0.00    -0.443 OA 
HETATM   25  C   UNL     1     -13.113  10.930  71.515  1.00  0.00    -0.503 A  
ENDBRANCH  17  18
BRANCH  14  26
HETATM   26  C   UNL     1      -9.893   9.051  67.152  1.00  0.00    -0.203 A  
HETATM   27  C   UNL     1     -10.281   6.666  66.854  1.00  0.00    -0.287 A  
HETATM   28  F   UNL     1      -8.760   5.399  65.582  1.00  0.00    -0.130 F  
HETATM   29  C   UNL     1     -10.659   7.899  67.388  1.00  0.00    -0.342 A  
HETATM   30  C   UNL     1      -8.363   7.713  65.828  1.00  0.00    -0.144 A  
HETATM   31  C   UNL     1      -9.132   6.583  66.085  1.00  0.00    -0.124 A  
HETATM   32  C   UNL     1      -8.746   8.951  66.357  1.00  0.00    -0.148 A  
ENDBRANCH  14  26
ENDBRANCH  12  13
ENDBRANCH  11  12
ENDBRANCH   3  11
TORSDOF 6
ENDMDL
MODEL       52
REMARK 921   NORMALIZED FREE ENERGY PREDICTED BY IDOCK:   -6.84 KCAL/MOL
REMARK 922        TOTAL FREE ENERGY PREDICTED BY IDOCK:  -11.04 KCAL/MOL
REMARK 923 INTER-LIGAND FREE ENERGY PREDICTED BY IDOCK:   -9.29 KCAL/MOL
REMARK 924 INTRA-LIGAND FREE ENERGY PREDICTED BY IDOCK:   -1.75 KCAL/MOL
REMARK 927      BINDING AFFINITY PREDICTED BY RF-SCORE:    0.00 PKD
ROOT
HETATM    1  O   UNL     1      -8.707  11.796  68.977  1.00  0.00    -0.373 OA 
HETATM    2  H   UNL     1      -9.043  11.200  69.637  1.00  0.00     0.000 HD 
HETATM    3  C   UNL     1      -9.452  11.647  67.770  1.00  0.00    -0.178 C  
ENDROOT
BRANCH   3   4
HETATM    4  C   UNL     1      -9.456  10.200  67.325  1.00  0.00    -0.178 A  
HETATM    5  C   UNL     1     -10.567   9.370  67.550  1.00  0.00    -0.333 A  
HETATM    6  C   UNL     1      -8.329   9.663  66.677  1.00  0.00    -0.123 A  
HETATM    7  C   UNL     1     -10.567   8.046  67.112  1.00  0.00    -0.367 A  
HETATM    8  F   UNL     1      -9.460   6.281  66.014  1.00  0.00    -0.178 F  
HETATM    9  C   UNL     1      -8.332   8.338  66.237  1.00  0.00    -0.124 A  
HETATM   10  C   UNL     1      -9.453   7.545  66.453  1.00  0.00    -0.147 A  
ENDBRANCH   3   4
BRANCH   3  11
HETATM   11  C   UNL     1      -8.911  12.607  66.707  1.00  0.00    -0.168 C  
BRANCH  11  12
HETATM   12  C   UNL     1      -9.938  13.057  65.653  1.00  0.00    -0.239 C  
BRANCH  12  13
HETATM   13  C   UNL     1     -10.531  14.394  66.090  1.00  0.00    -0.295 C  
HETATM   14  N   UNL     1     -11.459  14.535  67.938  1.00  0.00    -0.309 N  
HETATM   15  O   UNL     1     -13.013  13.898  66.281  1.00  0.00    -0.219 OA 
HETATM   16  C   UNL     1     -11.937  14.248  66.701  1.00  0.00    -0.430 C  
HETATM   17  C   UNL     1     -10.147  15.017  67.488  1.00  0.00    -0.228 C  
BRANCH  17  18
HETATM   18  C   UNL     1      -9.913  16.604  67.410  1.00  0.00    -0.265 A  
HETATM   19  H   UNL     1     -10.103  21.245  66.441  1.00  0.00     0.000 HD 
HETATM   20  C   UNL     1      -9.547  18.779  68.503  1.00  0.00    -0.413 A  
HETATM   21  C   UNL     1      -9.574  17.380  68.538  1.00  0.00    -0.298 A  
HETATM   22  C   UNL     1     -10.169  17.317  66.219  1.00  0.00    -0.347 A  
HETATM   23  C   UNL     1      -9.851  19.435  67.320  1.00  0.00    -0.344 A  
HETATM   24  O   UNL     1      -9.894  20.796  67.251  1.00  0.00    -0.474 OA 
HETATM   25  C   UNL     1     -10.142  18.717  66.172  1.00  0.00    -0.421 A  
ENDBRANCH  17  18
BRANCH  14  26
HETATM   26  C   UNL     1     -12.010  14.351  69.202  1.00  0.00    -0.322 A  
HETATM   27  C   UNL     1     -12.570  12.865  71.047  1.00  0.00    -0.376 A  
HETATM   28  F   UNL     1     -13.621  13.745  72.960  1.00  0.00    -0.567 F  
HETATM   29  C   UNL     1     -12.031  13.071  69.776  1.00  0.00    -0.377 A  
HETATM   30  C   UNL     1     -13.072  15.222  71.201  1.00  0.00    -0.546 A  
HETATM   31  C   UNL     1     -13.092  13.941  71.745  1.00  0.00    -0.377 A  
HETATM   32  C   UNL     1     -12.525  15.429  69.930  1.00  0.00    -0.274 A  
ENDBRANCH  14  26
ENDBRANCH  12  13
ENDBRANCH  11  12
ENDBRANCH   3  11
TORSDOF 6
ENDMDL
MODEL       53
REMARK 921   NORMALIZED FREE ENERGY PREDICTED BY IDOCK:   -6.78 KCAL/MOL
REMARK 922        TOTAL FREE ENERGY PREDICTED BY IDOCK:  -10.97 KCAL/MOL
REMARK 923 INTER-LIGAND FREE ENERGY PREDICTED BY IDOCK:   -8.98 KCAL/MOL
REMARK 924 INTRA-LIGAND FREE ENERGY PREDICTED BY IDOCK:   -1.99 KCAL/MOL
REMARK 927      BINDING AFFINITY PREDICTED BY RF-SCORE:    0.00 PKD
ROOT
HETATM    1  O   UNL     1     -10.154  13.860  64.116  1.00  0.00    -0.681 OA 
HETATM    2  H   UNL     1     -10.647  14.575  63.730  1.00  0.00     0.000 HD 
HETATM    3  C   UNL     1     -10.469  13.750  65.502  1.00  0.00    -0.318 C  
ENDROOT
BRANCH   3   4
HETATM    4  C   UNL     1     -10.251  15.075  66.201  1.00  0.00    -0.311 A  
HETATM    5  C   UNL     1     -10.577  16.292  65.578  1.00  0.00    -0.369 A  
HETATM    6  C   UNL     1      -9.708  15.102  67.498  1.00  0.00    -0.205 A  
HETATM    7  C   UNL     1     -10.394  17.504  66.244  1.00  0.00    -0.335 A  
HETATM    8  F   UNL     1      -9.724  18.665  68.181  1.00  0.00    -0.293 F  
HETATM    9  C   UNL     1      -9.529  16.316  68.164  1.00  0.00    -0.215 A  
HETATM   10  C   UNL     1      -9.880  17.504  67.533  1.00  0.00    -0.293 A  
ENDBRANCH   3   4
BRANCH   3  11
HETATM   11  C   UNL     1      -9.675  12.599  66.124  1.00  0.00    -0.253 C  
BRANCH  11  12
HETATM   12  C   UNL     1     -10.361  11.223  66.057  1.00  0.00    -0.302 C  
BRANCH  12  13
HETATM   13  C   UNL     1     -11.048  10.955  67.393  1.00  0.00    -0.373 C  
HETATM   14  N   UNL     1      -9.935  10.212  68.975  1.00  0.00    -0.196 N  
HETATM   15  O   UNL     1     -10.811   8.444  67.682  1.00  0.00    -0.169 OA 
HETATM   16  C   UNL     1     -10.654   9.597  68.003  1.00  0.00    -0.243 C  
HETATM   17  C   UNL     1     -10.461  11.560  68.726  1.00  0.00    -0.204 C  
BRANCH  17  18
HETATM   18  C   UNL     1     -11.606  12.116  69.706  1.00  0.00    -0.334 A  
HETATM   19  H   UNL     1     -14.540  12.987  73.332  1.00  0.00     0.000 HD 
HETATM   20  C   UNL     1     -12.832  13.984  70.737  1.00  0.00    -0.355 A  
HETATM   21  C   UNL     1     -11.966  13.478  69.762  1.00  0.00    -0.405 A  
HETATM   22  C   UNL     1     -12.215  11.272  70.660  1.00  0.00    -0.489 A  
HETATM   23  C   UNL     1     -13.370  13.122  71.682  1.00  0.00    -0.308 A  
HETATM   24  O   UNL     1     -14.172  13.577  72.686  1.00  0.00    -0.751 OA 
HETATM   25  C   UNL     1     -13.086  11.767  71.640  1.00  0.00    -0.443 A  
ENDBRANCH  17  18
BRANCH  14  26
HETATM   26  C   UNL     1      -8.967   9.726  69.849  1.00  0.00    -0.229 A  
HETATM   27  C   UNL     1      -8.377   8.342  71.762  1.00  0.00    -0.212 A  
HETATM   28  F   UNL     1      -6.134   8.240  72.466  1.00  0.00    -0.048 F  
HETATM   29  C   UNL     1      -9.333   8.850  70.881  1.00  0.00    -0.295 A  
HETATM   30  C   UNL     1      -6.663   9.574  70.591  1.00  0.00    -0.110 A  
HETATM   31  C   UNL     1      -7.052   8.715  71.614  1.00  0.00    -0.092 A  
HETATM   32  C   UNL     1      -7.620  10.076  69.702  1.00  0.00    -0.147 A  
ENDBRANCH  14  26
ENDBRANCH  12  13
ENDBRANCH  11  12
ENDBRANCH   3  11
TORSDOF 6
ENDMDL
MODEL       54
REMARK 921   NORMALIZED FREE ENERGY PREDICTED BY IDOCK:   -6.74 KCAL/MOL
REMARK 922        TOTAL FREE ENERGY PREDICTED BY IDOCK:  -10.92 KCAL/MOL
REMARK 923 INTER-LIGAND FREE ENERGY PREDICTED BY IDOCK:   -8.62 KCAL/MOL
REMARK 924 INTRA-LIGAND FREE ENERGY PREDICTED BY IDOCK:   -2.30 KCAL/MOL
REMARK 927      BINDING AFFINITY PREDICTED BY RF-SCORE:    0.00 PKD
ROOT
HETATM    1  O   UNL     1      -6.716  11.892  66.424  1.00  0.00    -0.363 OA 
HETATM    2  H   UNL     1      -6.528  11.223  65.776  1.00  0.00     0.000 HD 
HETATM    3  C   UNL     1      -7.071  11.280  67.661  1.00  0.00    -0.090 C  
ENDROOT
BRANCH   3   4
HETATM    4  C   UNL     1      -8.209  10.302  67.461  1.00  0.00    -0.114 A  
HETATM    5  C   UNL     1      -8.834  10.155  66.212  1.00  0.00    -0.163 A  
HETATM    6  C   UNL     1      -8.663   9.524  68.541  1.00  0.00    -0.124 A  
HETATM    7  C   UNL     1      -9.865   9.232  66.036  1.00  0.00    -0.363 A  
HETATM    8  F   UNL     1     -11.254   7.557  66.937  1.00  0.00    -0.380 F  
HETATM    9  C   UNL     1      -9.693   8.599  68.363  1.00  0.00    -0.176 A  
HETATM   10  C   UNL     1     -10.279   8.458  67.111  1.00  0.00    -0.292 A  
ENDBRANCH   3   4
BRANCH   3  11
HETATM   11  C   UNL     1      -7.374  12.358  68.704  1.00  0.00    -0.102 C  
BRANCH  11  12
HETATM   12  C   UNL     1      -7.244  13.807  68.201  1.00  0.00    -0.121 C  
BRANCH  12  13
HETATM   13  C   UNL     1      -8.621  14.464  68.244  1.00  0.00    -0.170 C  
HETATM   14  N   UNL     1     -10.056  13.903  66.857  1.00  0.00    -0.256 N  
HETATM   15  O   UNL     1      -8.757  15.687  66.023  1.00  0.00    -0.292 OA 
HETATM   16  C   UNL     1      -9.122  14.886  66.850  1.00  0.00    -0.250 C  
HETATM   17  C   UNL     1      -9.925  13.577  68.284  1.00  0.00    -0.237 C  
BRANCH  17  18
HETATM   18  C   UNL     1     -11.032  14.157  69.293  1.00  0.00    -0.252 A  
HETATM   19  H   UNL     1     -14.037  14.930  72.883  1.00  0.00     0.000 HD 
HETATM   20  C   UNL     1     -12.009  16.020  70.571  1.00  0.00    -0.268 A  
HETATM   21  C   UNL     1     -11.169  15.535  69.563  1.00  0.00    -0.300 A  
HETATM   22  C   UNL     1     -11.837  13.290  70.063  1.00  0.00    -0.365 A  
HETATM   23  C   UNL     1     -12.746  15.124  71.332  1.00  0.00    -0.372 A  
HETATM   24  O   UNL     1     -13.533  15.544  72.363  1.00  0.00    -0.426 OA 
HETATM   25  C   UNL     1     -12.683  13.765  71.073  1.00  0.00    -0.416 A  
ENDBRANCH  17  18
BRANCH  14  26
HETATM   26  C   UNL     1     -10.813  13.346  65.831  1.00  0.00    -0.274 A  
HETATM   27  C   UNL     1     -12.983  12.679  64.953  1.00  0.00    -0.121 A  
HETATM   28  F   UNL     1     -13.114  11.715  62.811  1.00  0.00    -0.469 F  
HETATM   29  C   UNL     1     -12.203  13.224  65.974  1.00  0.00    -0.483 A  
HETATM   30  C   UNL     1     -10.995  12.372  63.618  1.00  0.00    -0.525 A  
HETATM   31  C   UNL     1     -12.371  12.251  63.787  1.00  0.00    -0.538 A  
HETATM   32  C   UNL     1     -10.214  12.926  64.638  1.00  0.00    -0.321 A  
ENDBRANCH  14  26
ENDBRANCH  12  13
ENDBRANCH  11  12
ENDBRANCH   3  11
TORSDOF 6
ENDMDL
MODEL       55
REMARK 921   NORMALIZED FREE ENERGY PREDICTED BY IDOCK:   -6.72 KCAL/MOL
REMARK 922        TOTAL FREE ENERGY PREDICTED BY IDOCK:  -10.88 KCAL/MOL
REMARK 923 INTER-LIGAND FREE ENERGY PREDICTED BY IDOCK:   -9.06 KCAL/MOL
REMARK 924 INTRA-LIGAND FREE ENERGY PREDICTED BY IDOCK:   -1.82 KCAL/MOL
REMARK 927      BINDING AFFINITY PREDICTED BY RF-SCORE:    0.00 PKD
ROOT
HETATM    1  O   UNL     1      -8.146  10.806  64.349  1.00  0.00    -0.357 OA 
HETATM    2  H   UNL     1      -8.212  11.443  63.648  1.00  0.00     0.000 HD 
HETATM    3  C   UNL     1      -9.414  10.189  64.561  1.00  0.00    -0.303 C  
ENDROOT
BRANCH   3   4
HETATM    4  C   UNL     1     -10.479  11.238  64.803  1.00  0.00    -0.384 A  
HETATM    5  C   UNL     1     -10.802  11.665  66.102  1.00  0.00    -0.343 A  
HETATM    6  C   UNL     1     -11.169  11.800  63.714  1.00  0.00    -0.518 A  
HETATM    7  C   UNL     1     -11.767  12.650  66.308  1.00  0.00    -0.460 A  
HETATM    8  F   UNL     1     -13.329  14.169  65.411  1.00  0.00    -0.494 F  
HETATM    9  C   UNL     1     -12.132  12.789  63.922  1.00  0.00    -0.562 A  
HETATM   10  C   UNL     1     -12.417  13.208  65.216  1.00  0.00    -0.495 A  
ENDBRANCH   3   4
BRANCH   3  11
HETATM   11  C   UNL     1      -9.307   9.162  65.691  1.00  0.00    -0.300 C  
BRANCH  11  12
HETATM   12  C   UNL     1      -8.178   9.423  66.704  1.00  0.00    -0.112 C  
BRANCH  12  13
HETATM   13  C   UNL     1      -8.432   8.571  67.946  1.00  0.00    -0.130 C  
HETATM   14  N   UNL     1      -9.865   9.176  69.315  1.00  0.00    -0.170 N  
HETATM   15  O   UNL     1      -7.765  10.106  69.855  1.00  0.00    -0.160 OA 
HETATM   16  C   UNL     1      -8.532   9.412  69.232  1.00  0.00    -0.141 C  
HETATM   17  C   UNL     1      -9.895   8.107  68.308  1.00  0.00    -0.171 C  
BRANCH  17  18
HETATM   18  C   UNL     1      -9.948   6.587  68.825  1.00  0.00    -0.155 A  
HETATM   19  H   UNL     1      -9.328   1.934  69.516  1.00  0.00     0.000 HD 
HETATM   20  C   UNL     1      -9.922   4.935  70.649  1.00  0.00    -0.305 A  
HETATM   21  C   UNL     1     -10.056   6.250  70.190  1.00  0.00    -0.222 A  
HETATM   22  C   UNL     1      -9.753   5.511  67.932  1.00  0.00    -0.155 A  
HETATM   23  C   UNL     1      -9.685   3.917  69.737  1.00  0.00    -0.156 A  
HETATM   24  O   UNL     1      -9.490   2.630  70.140  1.00  0.00    -0.136 OA 
HETATM   25  C   UNL     1      -9.620   4.190  68.380  1.00  0.00    -0.190 A  
ENDBRANCH  17  18
BRANCH  14  26
HETATM   26  C   UNL     1     -10.865   9.803  70.051  1.00  0.00    -0.278 A  
HETATM   27  C   UNL     1     -12.323  11.722  70.395  1.00  0.00    -0.362 A  
HETATM   28  F   UNL     1     -13.844  11.708  72.191  1.00  0.00    -0.353 F  
HETATM   29  C   UNL     1     -11.314  11.079  69.678  1.00  0.00    -0.363 A  
HETATM   30  C   UNL     1     -12.464   9.819  71.875  1.00  0.00    -0.451 A  
HETATM   31  C   UNL     1     -12.884  11.089  71.492  1.00  0.00    -0.450 A  
HETATM   32  C   UNL     1     -11.457   9.171  71.150  1.00  0.00    -0.388 A  
ENDBRANCH  14  26
ENDBRANCH  12  13
ENDBRANCH  11  12
ENDBRANCH   3  11
TORSDOF 6
ENDMDL
MODEL       56
REMARK 921   NORMALIZED FREE ENERGY PREDICTED BY IDOCK:   -6.72 KCAL/MOL
REMARK 922        TOTAL FREE ENERGY PREDICTED BY IDOCK:  -10.88 KCAL/MOL
REMARK 923 INTER-LIGAND FREE ENERGY PREDICTED BY IDOCK:   -8.84 KCAL/MOL
REMARK 924 INTRA-LIGAND FREE ENERGY PREDICTED BY IDOCK:   -2.04 KCAL/MOL
REMARK 927      BINDING AFFINITY PREDICTED BY RF-SCORE:    0.00 PKD
ROOT
HETATM    1  O   UNL     1      -9.992  15.712  66.644  1.00  0.00    -0.243 OA 
HETATM    2  H   UNL     1     -10.058  16.121  65.789  1.00  0.00     0.000 HD 
HETATM    3  C   UNL     1      -9.610  14.346  66.496  1.00  0.00    -0.293 C  
ENDROOT
BRANCH   3   4
HETATM    4  C   UNL     1     -10.559  13.629  65.559  1.00  0.00    -0.300 A  
HETATM    5  C   UNL     1     -11.921  13.484  65.870  1.00  0.00    -0.444 A  
HETATM    6  C   UNL     1     -10.078  13.088  64.354  1.00  0.00    -0.245 A  
HETATM    7  C   UNL     1     -12.789  12.843  64.987  1.00  0.00    -0.348 A  
HETATM    8  F   UNL     1     -13.131  11.742  62.932  1.00  0.00    -0.578 F  
HETATM    9  C   UNL     1     -10.948  12.450  63.469  1.00  0.00    -0.506 A  
HETATM   10  C   UNL     1     -12.295  12.339  63.790  1.00  0.00    -0.538 A  
ENDBRANCH   3   4
BRANCH   3  11
HETATM   11  C   UNL     1      -9.504  13.687  67.873  1.00  0.00    -0.213 C  
BRANCH  11  12
HETATM   12  C   UNL     1      -8.984  12.238  67.864  1.00  0.00    -0.186 C  
BRANCH  12  13
HETATM   13  C   UNL     1     -10.109  11.314  68.322  1.00  0.00    -0.198 C  
HETATM   14  N   UNL     1      -9.879   9.263  68.128  1.00  0.00    -0.157 N  
HETATM   15  O   UNL     1     -10.841  10.173  66.175  1.00  0.00    -0.014 OA 
HETATM   16  C   UNL     1     -10.414  10.199  67.304  1.00  0.00    -0.256 C  
HETATM   17  C   UNL     1      -9.809  10.125  69.315  1.00  0.00    -0.220 C  
BRANCH  17  18
HETATM   18  C   UNL     1     -10.948   9.959  70.436  1.00  0.00    -0.379 A  
HETATM   19  H   UNL     1     -14.937  10.084  73.003  1.00  0.00     0.000 HD 
HETATM   20  C   UNL     1     -12.226   8.563  72.011  1.00  0.00    -0.429 A  
HETATM   21  C   UNL     1     -11.127   8.766  71.168  1.00  0.00    -0.340 A  
HETATM   22  C   UNL     1     -11.914  10.967  70.644  1.00  0.00    -0.464 A  
HETATM   23  C   UNL     1     -13.172   9.568  72.147  1.00  0.00    -0.451 A  
HETATM   24  O   UNL     1     -14.289   9.396  72.910  1.00  0.00    -0.369 OA 
HETATM   25  C   UNL     1     -13.016  10.776  71.487  1.00  0.00    -0.562 A  
ENDBRANCH  17  18
BRANCH  14  26
HETATM   26  C   UNL     1      -9.466   7.956  67.890  1.00  0.00    -0.145 A  
HETATM   27  C   UNL     1      -9.913   5.756  66.950  1.00  0.00    -0.200 A  
HETATM   28  F   UNL     1      -8.285   4.067  67.139  1.00  0.00    -0.097 F  
HETATM   29  C   UNL     1     -10.312   7.068  67.209  1.00  0.00    -0.331 A  
HETATM   30  C   UNL     1      -7.805   6.195  68.042  1.00  0.00    -0.106 A  
HETATM   31  C   UNL     1      -8.666   5.329  67.375  1.00  0.00    -0.106 A  
HETATM   32  C   UNL     1      -8.202   7.513  68.294  1.00  0.00    -0.125 A  
ENDBRANCH  14  26
ENDBRANCH  12  13
ENDBRANCH  11  12
ENDBRANCH   3  11
TORSDOF 6
ENDMDL
MODEL       57
REMARK 921   NORMALIZED FREE ENERGY PREDICTED BY IDOCK:   -6.71 KCAL/MOL
REMARK 922        TOTAL FREE ENERGY PREDICTED BY IDOCK:  -10.87 KCAL/MOL
REMARK 923 INTER-LIGAND FREE ENERGY PREDICTED BY IDOCK:   -9.41 KCAL/MOL
REMARK 924 INTRA-LIGAND FREE ENERGY PREDICTED BY IDOCK:   -1.46 KCAL/MOL
REMARK 927      BINDING AFFINITY PREDICTED BY RF-SCORE:    0.00 PKD
ROOT
HETATM    1  O   UNL     1      -8.455  11.019  65.345  1.00  0.00    -0.312 OA 
HETATM    2  H   UNL     1      -8.106  11.457  64.578  1.00  0.00     0.000 HD 
HETATM    3  C   UNL     1      -9.846  10.763  65.162  1.00  0.00    -0.277 C  
ENDROOT
BRANCH   3   4
HETATM    4  C   UNL     1     -10.579  12.041  64.813  1.00  0.00    -0.340 A  
HETATM    5  C   UNL     1     -11.565  12.067  63.813  1.00  0.00    -0.565 A  
HETATM    6  C   UNL     1     -10.272  13.233  65.494  1.00  0.00    -0.298 A  
HETATM    7  C   UNL     1     -12.250  13.246  63.520  1.00  0.00    -0.513 A  
HETATM    8  F   UNL     1     -12.619  15.531  63.956  1.00  0.00    -0.424 F  
HETATM    9  C   UNL     1     -10.961  14.411  65.201  1.00  0.00    -0.380 A  
HETATM   10  C   UNL     1     -11.948  14.404  64.222  1.00  0.00    -0.410 A  
ENDBRANCH   3   4
BRANCH   3  11
HETATM   11  C   UNL     1     -10.409  10.058  66.399  1.00  0.00    -0.249 C  
BRANCH  11  12
HETATM   12  C   UNL     1      -9.541   8.913  66.949  1.00  0.00    -0.248 C  
BRANCH  12  13
HETATM   13  C   UNL     1      -9.608   8.940  68.474  1.00  0.00    -0.165 C  
HETATM   14  N   UNL     1     -10.588  10.503  69.418  1.00  0.00    -0.226 N  
HETATM   15  O   UNL     1      -8.316  11.041  69.079  1.00  0.00    -0.147 OA 
HETATM   16  C   UNL     1      -9.292  10.330  69.057  1.00  0.00    -0.189 C  
HETATM   17  C   UNL     1     -10.994   9.107  69.207  1.00  0.00    -0.061 C  
BRANCH  17  18
HETATM   18  C   UNL     1     -11.125   8.158  70.497  1.00  0.00    -0.257 A  
HETATM   19  H   UNL     1     -11.010   4.583  73.615  1.00  0.00     0.000 HD 
HETATM   20  C   UNL     1     -10.862   7.766  72.913  1.00  0.00    -0.453 A  
HETATM   21  C   UNL     1     -10.923   8.628  71.812  1.00  0.00    -0.396 A  
HETATM   22  C   UNL     1     -11.321   6.767  70.357  1.00  0.00    -0.399 A  
HETATM   23  C   UNL     1     -11.015   6.401  72.717  1.00  0.00    -0.257 A  
HETATM   24  O   UNL     1     -10.906   5.518  73.749  1.00  0.00    -0.282 OA 
HETATM   25  C   UNL     1     -11.264   5.896  71.452  1.00  0.00    -0.285 A  
ENDBRANCH  17  18
BRANCH  14  26
HETATM   26  C   UNL     1     -11.297  11.644  69.782  1.00  0.00    -0.200 A  
HETATM   27  C   UNL     1     -11.861  13.977  69.379  1.00  0.00    -0.381 A  
HETATM   28  F   UNL     1     -13.387  15.058  70.807  1.00  0.00    -0.407 F  
HETATM   29  C   UNL     1     -11.152  12.824  69.038  1.00  0.00    -0.285 A  
HETATM   30  C   UNL     1     -12.883  12.788  71.215  1.00  0.00    -0.355 A  
HETATM   31  C   UNL     1     -12.715  13.951  70.469  1.00  0.00    -0.249 A  
HETATM   32  C   UNL     1     -12.179  11.630  70.868  1.00  0.00    -0.401 A  
ENDBRANCH  14  26
ENDBRANCH  12  13
ENDBRANCH  11  12
ENDBRANCH   3  11
TORSDOF 6
ENDMDL
MODEL       58
REMARK 921   NORMALIZED FREE ENERGY PREDICTED BY IDOCK:   -6.70 KCAL/MOL
REMARK 922        TOTAL FREE ENERGY PREDICTED BY IDOCK:  -10.85 KCAL/MOL
REMARK 923 INTER-LIGAND FREE ENERGY PREDICTED BY IDOCK:   -8.75 KCAL/MOL
REMARK 924 INTRA-LIGAND FREE ENERGY PREDICTED BY IDOCK:   -2.10 KCAL/MOL
REMARK 927      BINDING AFFINITY PREDICTED BY RF-SCORE:    0.00 PKD
ROOT
HETATM    1  O   UNL     1      -5.838  11.852  66.065  1.00  0.00    -0.445 OA 
HETATM    2  H   UNL     1      -5.693  11.161  65.429  1.00  0.00     0.000 HD 
HETATM    3  C   UNL     1      -6.267  11.286  67.301  1.00  0.00    -0.081 C  
ENDROOT
BRANCH   3   4
HETATM    4  C   UNL     1      -7.478  10.403  67.088  1.00  0.00    -0.092 A  
HETATM    5  C   UNL     1      -8.397  10.660  66.057  1.00  0.00    -0.160 A  
HETATM    6  C   UNL     1      -7.702   9.304  67.937  1.00  0.00    -0.088 A  
HETATM    7  C   UNL     1      -9.494   9.824  65.856  1.00  0.00    -0.285 A  
HETATM    8  F   UNL     1     -10.723   7.915  66.486  1.00  0.00    -0.372 F  
HETATM    9  C   UNL     1      -8.799   8.466  67.733  1.00  0.00    -0.137 A  
HETATM   10  C   UNL     1      -9.681   8.730  66.691  1.00  0.00    -0.242 A  
ENDBRANCH   3   4
BRANCH   3  11
HETATM   11  C   UNL     1      -6.501  12.399  68.326  1.00  0.00    -0.061 C  
BRANCH  11  12
HETATM   12  C   UNL     1      -6.808  13.783  67.726  1.00  0.00    -0.182 C  
BRANCH  12  13
HETATM   13  C   UNL     1      -8.322  13.976  67.697  1.00  0.00    -0.191 C  
HETATM   14  N   UNL     1      -9.097  15.894  67.571  1.00  0.00    -0.198 N  
HETATM   15  O   UNL     1      -8.786  15.278  69.827  1.00  0.00    -0.191 OA 
HETATM   16  C   UNL     1      -8.795  15.105  68.632  1.00  0.00    -0.186 C  
HETATM   17  C   UNL     1      -8.994  14.836  66.558  1.00  0.00    -0.233 C  
BRANCH  17  18
HETATM   18  C   UNL     1     -10.355  14.178  66.014  1.00  0.00    -0.316 A  
HETATM   19  H   UNL     1     -13.840  12.311  63.390  1.00  0.00     0.000 HD 
HETATM   20  C   UNL     1     -12.134  12.483  66.166  1.00  0.00    -0.357 A  
HETATM   21  C   UNL     1     -11.053  13.177  66.722  1.00  0.00    -0.314 A  
HETATM   22  C   UNL     1     -10.844  14.484  64.726  1.00  0.00    -0.410 A  
HETATM   23  C   UNL     1     -12.548  12.789  64.878  1.00  0.00    -0.470 A  
HETATM   24  O   UNL     1     -13.557  12.102  64.272  1.00  0.00    -0.515 OA 
HETATM   25  C   UNL     1     -11.926  13.797  64.160  1.00  0.00    -0.473 A  
ENDBRANCH  17  18
BRANCH  14  26
HETATM   26  C   UNL     1      -9.339  17.261  67.481  1.00  0.00    -0.236 A  
HETATM   27  C   UNL     1      -8.795  19.534  68.159  1.00  0.00    -0.378 A  
HETATM   28  F   UNL     1     -10.004  21.334  67.244  1.00  0.00    -0.560 F  
HETATM   29  C   UNL     1      -8.576  18.159  68.242  1.00  0.00    -0.298 A  
HETATM   30  C   UNL     1     -10.545  19.145  66.543  1.00  0.00    -0.523 A  
HETATM   31  C   UNL     1      -9.783  20.015  67.316  1.00  0.00    -0.412 A  
HETATM   32  C   UNL     1     -10.320  17.766  66.620  1.00  0.00    -0.345 A  
ENDBRANCH  14  26
ENDBRANCH  12  13
ENDBRANCH  11  12
ENDBRANCH   3  11
TORSDOF 6
ENDMDL
MODEL       59
REMARK 921   NORMALIZED FREE ENERGY PREDICTED BY IDOCK:   -6.64 KCAL/MOL
REMARK 922        TOTAL FREE ENERGY PREDICTED BY IDOCK:  -10.78 KCAL/MOL
REMARK 923 INTER-LIGAND FREE ENERGY PREDICTED BY IDOCK:   -8.90 KCAL/MOL
REMARK 924 INTRA-LIGAND FREE ENERGY PREDICTED BY IDOCK:   -1.88 KCAL/MOL
REMARK 927      BINDING AFFINITY PREDICTED BY RF-SCORE:    0.00 PKD
ROOT
HETATM    1  O   UNL     1     -14.203  12.720  72.589  1.00  0.00    -0.635 OA 
HETATM    2  H   UNL     1     -14.117  13.517  73.098  1.00  0.00     0.000 HD 
HETATM    3  C   UNL     1     -12.957  12.405  71.972  1.00  0.00    -0.271 C  
ENDROOT
BRANCH   3   4
HETATM    4  C   UNL     1     -12.454  13.582  71.163  1.00  0.00    -0.424 A  
HETATM    5  C   UNL     1     -12.036  13.427  69.831  1.00  0.00    -0.408 A  
HETATM    6  C   UNL     1     -12.396  14.860  71.746  1.00  0.00    -0.410 A  
HETATM    7  C   UNL     1     -11.599  14.524  69.089  1.00  0.00    -0.331 A  
HETATM    8  F   UNL     1     -11.174  16.837  68.962  1.00  0.00    -0.290 F  
HETATM    9  C   UNL     1     -11.962  15.958  71.002  1.00  0.00    -0.453 A  
HETATM   10  C   UNL     1     -11.574  15.780  69.679  1.00  0.00    -0.358 A  
ENDBRANCH   3   4
BRANCH   3  11
HETATM   11  C   UNL     1     -13.096  11.120  71.152  1.00  0.00    -0.284 C  
BRANCH  11  12
HETATM   12  C   UNL     1     -12.026  10.049  71.432  1.00  0.00    -0.470 C  
BRANCH  12  13
HETATM   13  C   UNL     1     -10.988  10.093  70.313  1.00  0.00    -0.380 C  
HETATM   14  N   UNL     1     -10.104   8.328  69.682  1.00  0.00    -0.194 N  
HETATM   15  O   UNL     1      -8.868   9.283  71.451  1.00  0.00    -0.313 OA 
HETATM   16  C   UNL     1      -9.745   9.237  70.623  1.00  0.00    -0.272 C  
HETATM   17  C   UNL     1     -11.138   9.158  69.052  1.00  0.00     0.093 C  
BRANCH  17  18
HETATM   18  C   UNL     1     -10.768   9.912  67.682  1.00  0.00    -0.339 A  
HETATM   19  H   UNL     1      -9.822  11.090  63.183  1.00  0.00     0.000 HD 
HETATM   20  C   UNL     1     -11.041  11.800  66.126  1.00  0.00    -0.358 A  
HETATM   21  C   UNL     1     -11.213  11.217  67.386  1.00  0.00    -0.370 A  
HETATM   22  C   UNL     1     -10.082   9.240  66.647  1.00  0.00    -0.341 A  
HETATM   23  C   UNL     1     -10.401  11.081  65.127  1.00  0.00    -0.283 A  
HETATM   24  O   UNL     1     -10.260  11.582  63.867  1.00  0.00    -0.292 OA 
HETATM   25  C   UNL     1      -9.902   9.814  65.382  1.00  0.00    -0.365 A  
ENDBRANCH  17  18
BRANCH  14  26
HETATM   26  C   UNL     1      -9.680   7.022  69.458  1.00  0.00    -0.160 A  
HETATM   27  C   UNL     1      -7.981   5.480  68.647  1.00  0.00    -0.092 A  
HETATM   28  F   UNL     1      -8.365   3.163  68.782  1.00  0.00    -0.068 F  
HETATM   29  C   UNL     1      -8.429   6.782  68.871  1.00  0.00    -0.120 A  
HETATM   30  C   UNL     1     -10.027   4.625  69.602  1.00  0.00    -0.281 A  
HETATM   31  C   UNL     1      -8.787   4.413  69.008  1.00  0.00    -0.094 A  
HETATM   32  C   UNL     1     -10.473   5.931  69.834  1.00  0.00    -0.337 A  
ENDBRANCH  14  26
ENDBRANCH  12  13
ENDBRANCH  11  12
ENDBRANCH   3  11
TORSDOF 6
ENDMDL
MODEL       60
REMARK 921   NORMALIZED FREE ENERGY PREDICTED BY IDOCK:   -6.62 KCAL/MOL
REMARK 922        TOTAL FREE ENERGY PREDICTED BY IDOCK:  -10.74 KCAL/MOL
REMARK 923 INTER-LIGAND FREE ENERGY PREDICTED BY IDOCK:   -9.56 KCAL/MOL
REMARK 924 INTRA-LIGAND FREE ENERGY PREDICTED BY IDOCK:   -1.18 KCAL/MOL
REMARK 927      BINDING AFFINITY PREDICTED BY RF-SCORE:    0.00 PKD
ROOT
HETATM    1  O   UNL     1      -8.979  14.463  66.047  1.00  0.00    -0.484 OA 
HETATM    2  H   UNL     1      -8.144  14.758  65.703  1.00  0.00     0.000 HD 
HETATM    3  C   UNL     1     -10.015  15.346  65.622  1.00  0.00    -0.362 C  
ENDROOT
BRANCH   3   4
HETATM    4  C   UNL     1      -9.682  16.773  66.001  1.00  0.00    -0.287 A  
HETATM    5  C   UNL     1     -10.630  17.803  65.874  1.00  0.00    -0.205 A  
HETATM    6  C   UNL     1      -8.400  17.089  66.485  1.00  0.00    -0.313 A  
HETATM    7  C   UNL     1     -10.318  19.108  66.249  1.00  0.00    -0.553 A  
HETATM    8  F   UNL     1      -8.760  20.641  67.130  1.00  0.00    -0.403 F  
HETATM    9  C   UNL     1      -8.090  18.396  66.865  1.00  0.00    -0.257 A  
HETATM   10  C   UNL     1      -9.054  19.391  66.749  1.00  0.00    -0.334 A  
ENDBRANCH   3   4
BRANCH   3  11
HETATM   11  C   UNL     1     -11.360  14.870  66.176  1.00  0.00    -0.307 C  
BRANCH  11  12
HETATM   12  C   UNL     1     -11.395  14.644  67.698  1.00  0.00    -0.350 C  
BRANCH  12  13
HETATM   13  C   UNL     1     -11.847  13.211  67.968  1.00  0.00    -0.398 C  
HETATM   14  N   UNL     1     -10.667  11.637  67.316  1.00  0.00    -0.227 N  
HETATM   15  O   UNL     1     -12.205  12.262  65.640  1.00  0.00    -0.605 OA 
HETATM   16  C   UNL     1     -11.698  12.299  66.735  1.00  0.00    -0.342 C  
HETATM   17  C   UNL     1     -10.870  12.186  68.663  1.00  0.00    -0.235 C  
BRANCH  17  18
HETATM   18  C   UNL     1     -11.617  11.265  69.747  1.00  0.00    -0.408 A  
HETATM   19  H   UNL     1     -12.777   8.070  73.058  1.00  0.00     0.000 HD 
HETATM   20  C   UNL     1     -13.116  11.009  71.682  1.00  0.00    -0.543 A  
HETATM   21  C   UNL     1     -12.600  11.767  70.626  1.00  0.00    -0.289 A  
HETATM   22  C   UNL     1     -11.220   9.926  69.958  1.00  0.00    -0.327 A  
HETATM   23  C   UNL     1     -12.660   9.714  71.877  1.00  0.00    -0.396 A  
HETATM   24  O   UNL     1     -13.090   8.957  72.926  1.00  0.00    -0.339 OA 
HETATM   25  C   UNL     1     -11.732   9.158  71.012  1.00  0.00    -0.363 A  
ENDBRANCH  17  18
BRANCH  14  26
HETATM   26  C   UNL     1      -9.701  10.790  66.782  1.00  0.00    -0.187 A  
HETATM   27  C   UNL     1      -9.096   8.622  65.855  1.00  0.00    -0.259 A  
HETATM   28  F   UNL     1      -6.876   8.236  65.175  1.00  0.00    -0.065 F  
HETATM   29  C   UNL     1     -10.046   9.485  66.402  1.00  0.00    -0.328 A  
HETATM   30  C   UNL     1      -7.430  10.359  66.047  1.00  0.00    -0.134 A  
HETATM   31  C   UNL     1      -7.794   9.065  65.688  1.00  0.00    -0.102 A  
HETATM   32  C   UNL     1      -8.385  11.226  66.588  1.00  0.00    -0.163 A  
ENDBRANCH  14  26
ENDBRANCH  12  13
ENDBRANCH  11  12
ENDBRANCH   3  11
TORSDOF 6
ENDMDL
MODEL       61
REMARK 921   NORMALIZED FREE ENERGY PREDICTED BY IDOCK:   -6.59 KCAL/MOL
REMARK 922        TOTAL FREE ENERGY PREDICTED BY IDOCK:  -10.71 KCAL/MOL
REMARK 923 INTER-LIGAND FREE ENERGY PREDICTED BY IDOCK:   -9.74 KCAL/MOL
REMARK 924 INTRA-LIGAND FREE ENERGY PREDICTED BY IDOCK:   -0.97 KCAL/MOL
REMARK 927      BINDING AFFINITY PREDICTED BY RF-SCORE:    0.00 PKD
ROOT
HETATM    1  O   UNL     1      -9.475   8.570  72.515  1.00  0.00    -0.280 OA 
HETATM    2  H   UNL     1      -8.811   8.186  73.075  1.00  0.00     0.000 HD 
HETATM    3  C   UNL     1     -10.699   7.853  72.656  1.00  0.00    -0.347 C  
ENDROOT
BRANCH   3   4
HETATM    4  C   UNL     1     -10.481   6.377  72.401  1.00  0.00    -0.222 A  
HETATM    5  C   UNL     1      -9.688   5.930  71.331  1.00  0.00    -0.196 A  
HETATM    6  C   UNL     1     -11.083   5.424  73.242  1.00  0.00    -0.352 A  
HETATM    7  C   UNL     1      -9.475   4.568  71.123  1.00  0.00    -0.226 A  
HETATM    8  F   UNL     1      -9.839   2.339  71.795  1.00  0.00    -0.188 F  
HETATM    9  C   UNL     1     -10.867   4.061  73.035  1.00  0.00    -0.234 A  
HETATM   10  C   UNL     1     -10.060   3.646  71.982  1.00  0.00    -0.129 A  
ENDBRANCH   3   4
BRANCH   3  11
HETATM   11  C   UNL     1     -11.768   8.473  71.753  1.00  0.00    -0.392 C  
BRANCH  11  12
HETATM   12  C   UNL     1     -11.267   8.938  70.374  1.00  0.00    -0.259 C  
BRANCH  12  13
HETATM   13  C   UNL     1     -11.051  10.449  70.419  1.00  0.00    -0.371 C  
HETATM   14  N   UNL     1     -11.218  11.549  68.670  1.00  0.00    -0.224 N  
HETATM   15  O   UNL     1      -9.002  10.791  68.959  1.00  0.00    -0.169 OA 
HETATM   16  C   UNL     1     -10.157  10.955  69.272  1.00  0.00    -0.140 C  
HETATM   17  C   UNL     1     -12.131  11.426  69.813  1.00  0.00    -0.320 C  
BRANCH  17  18
HETATM   18  C   UNL     1     -12.370  12.723  70.730  1.00  0.00    -0.375 A  
HETATM   19  H   UNL     1     -13.058  17.101  72.426  1.00  0.00     0.000 HD 
HETATM   20  C   UNL     1     -13.553  13.878  72.553  1.00  0.00    -0.680 A  
HETATM   21  C   UNL     1     -13.208  12.710  71.865  1.00  0.00    -0.504 A  
HETATM   22  C   UNL     1     -11.846  13.980  70.358  1.00  0.00    -0.356 A  
HETATM   23  C   UNL     1     -13.050  15.096  72.121  1.00  0.00    -0.363 A  
HETATM   24  O   UNL     1     -13.403  16.267  72.723  1.00  0.00    -0.328 OA 
HETATM   25  C   UNL     1     -12.183  15.156  71.042  1.00  0.00    -0.393 A  
ENDBRANCH  17  18
BRANCH  14  26
HETATM   26  C   UNL     1     -11.389  12.031  67.376  1.00  0.00    -0.327 A  
HETATM   27  C   UNL     1     -12.268  13.731  65.873  1.00  0.00    -0.501 A  
HETATM   28  F   UNL     1     -11.917  13.517  63.556  1.00  0.00    -0.487 F  
HETATM   29  C   UNL     1     -12.093  13.225  67.162  1.00  0.00    -0.352 A  
HETATM   30  C   UNL     1     -11.029  11.860  64.984  1.00  0.00    -0.365 A  
HETATM   31  C   UNL     1     -11.740  13.041  64.795  1.00  0.00    -0.345 A  
HETATM   32  C   UNL     1     -10.847  11.356  66.277  1.00  0.00    -0.318 A  
ENDBRANCH  14  26
ENDBRANCH  12  13
ENDBRANCH  11  12
ENDBRANCH   3  11
TORSDOF 6
ENDMDL
MODEL       62
REMARK 921   NORMALIZED FREE ENERGY PREDICTED BY IDOCK:   -6.58 KCAL/MOL
REMARK 922        TOTAL FREE ENERGY PREDICTED BY IDOCK:  -10.69 KCAL/MOL
REMARK 923 INTER-LIGAND FREE ENERGY PREDICTED BY IDOCK:   -8.68 KCAL/MOL
REMARK 924 INTRA-LIGAND FREE ENERGY PREDICTED BY IDOCK:   -2.01 KCAL/MOL
REMARK 927      BINDING AFFINITY PREDICTED BY RF-SCORE:    0.00 PKD
ROOT
HETATM    1  O   UNL     1     -11.028  17.739  68.803  1.00  0.00    -0.217 OA 
HETATM    2  H   UNL     1     -11.970  17.801  68.696  1.00  0.00     0.000 HD 
HETATM    3  C   UNL     1     -10.649  16.375  68.968  1.00  0.00    -0.308 C  
ENDROOT
BRANCH   3   4
HETATM    4  C   UNL     1     -11.424  15.743  70.105  1.00  0.00    -0.366 A  
HETATM    5  C   UNL     1     -11.413  16.301  71.394  1.00  0.00    -0.361 A  
HETATM    6  C   UNL     1     -12.168  14.571  69.880  1.00  0.00    -0.379 A  
HETATM    7  C   UNL     1     -12.152  15.723  72.426  1.00  0.00    -0.588 A  
HETATM    8  F   UNL     1     -13.625  14.037  73.158  1.00  0.00    -0.533 F  
HETATM    9  C   UNL     1     -12.910  13.996  70.912  1.00  0.00    -0.389 A  
HETATM   10  C   UNL     1     -12.899  14.581  72.173  1.00  0.00    -0.339 A  
ENDBRANCH   3   4
BRANCH   3  11
HETATM   11  C   UNL     1      -9.131  16.276  69.140  1.00  0.00    -0.230 C  
BRANCH  11  12
HETATM   12  C   UNL     1      -8.583  14.845  69.280  1.00  0.00    -0.106 C  
BRANCH  12  13
HETATM   13  C   UNL     1      -8.808  14.106  67.963  1.00  0.00    -0.182 C  
HETATM   14  N   UNL     1      -8.754  12.034  67.941  1.00  0.00    -0.162 N  
HETATM   15  O   UNL     1      -6.598  12.918  67.574  1.00  0.00    -0.145 OA 
HETATM   16  C   UNL     1      -7.793  12.969  67.739  1.00  0.00    -0.157 C  
HETATM   17  C   UNL     1      -9.890  12.963  67.866  1.00  0.00    -0.227 C  
BRANCH  17  18
HETATM   18  C   UNL     1     -10.726  13.022  66.496  1.00  0.00    -0.290 A  
HETATM   19  H   UNL     1     -13.424  14.270  62.797  1.00  0.00     0.000 HD 
HETATM   20  C   UNL     1     -10.913  12.622  64.074  1.00  0.00    -0.448 A  
HETATM   21  C   UNL     1     -10.276  12.418  65.303  1.00  0.00    -0.306 A  
HETATM   22  C   UNL     1     -11.897  13.804  66.393  1.00  0.00    -0.434 A  
HETATM   23  C   UNL     1     -12.035  13.436  64.017  1.00  0.00    -0.464 A  
HETATM   24  O   UNL     1     -12.656  13.712  62.836  1.00  0.00    -0.621 OA 
HETATM   25  C   UNL     1     -12.545  14.013  65.169  1.00  0.00    -0.453 A  
ENDBRANCH  17  18
BRANCH  14  26
HETATM   26  C   UNL     1      -8.670  10.672  68.210  1.00  0.00    -0.135 A  
HETATM   27  C   UNL     1      -9.002   8.815  69.748  1.00  0.00    -0.146 A  
HETATM   28  F   UNL     1      -8.454   6.633  69.060  1.00  0.00    -0.124 F  
HETATM   29  C   UNL     1      -9.069  10.179  69.461  1.00  0.00    -0.213 A  
HETATM   30  C   UNL     1      -8.140   8.404  67.532  1.00  0.00    -0.110 A  
HETATM   31  C   UNL     1      -8.531   7.941  68.783  1.00  0.00    -0.128 A  
HETATM   32  C   UNL     1      -8.215   9.771  67.241  1.00  0.00    -0.117 A  
ENDBRANCH  14  26
ENDBRANCH  12  13
ENDBRANCH  11  12
ENDBRANCH   3  11
TORSDOF 6
ENDMDL
MODEL       63
REMARK 921   NORMALIZED FREE ENERGY PREDICTED BY IDOCK:   -6.58 KCAL/MOL
REMARK 922        TOTAL FREE ENERGY PREDICTED BY IDOCK:  -10.69 KCAL/MOL
REMARK 923 INTER-LIGAND FREE ENERGY PREDICTED BY IDOCK:   -8.96 KCAL/MOL
REMARK 924 INTRA-LIGAND FREE ENERGY PREDICTED BY IDOCK:   -1.73 KCAL/MOL
REMARK 927      BINDING AFFINITY PREDICTED BY RF-SCORE:    0.00 PKD
ROOT
HETATM    1  O   UNL     1      -9.024  10.146  63.791  1.00  0.00    -0.202 OA 
HETATM    2  H   UNL     1      -9.351  10.294  62.912  1.00  0.00     0.000 HD 
HETATM    3  C   UNL     1     -10.070  10.358  64.737  1.00  0.00    -0.317 C  
ENDROOT
BRANCH   3   4
HETATM    4  C   UNL     1     -10.683  11.729  64.550  1.00  0.00    -0.369 A  
HETATM    5  C   UNL     1     -11.781  11.927  63.696  1.00  0.00    -0.572 A  
HETATM    6  C   UNL     1     -10.150  12.835  65.235  1.00  0.00    -0.263 A  
HETATM    7  C   UNL     1     -12.352  13.191  63.552  1.00  0.00    -0.478 A  
HETATM    8  F   UNL     1     -12.385  15.473  64.136  1.00  0.00    -0.469 F  
HETATM    9  C   UNL     1     -10.725  14.099  65.092  1.00  0.00    -0.400 A  
HETATM   10  C   UNL     1     -11.824  14.263  64.258  1.00  0.00    -0.379 A  
ENDBRANCH   3   4
BRANCH   3  11
HETATM   11  C   UNL     1      -9.542  10.118  66.154  1.00  0.00    -0.256 C  
BRANCH  11  12
HETATM   12  C   UNL     1     -10.554   9.489  67.128  1.00  0.00    -0.295 C  
BRANCH  12  13
HETATM   13  C   UNL     1     -10.587  10.326  68.405  1.00  0.00    -0.247 C  
HETATM   14  N   UNL     1      -9.401  12.021  68.536  1.00  0.00    -0.167 N  
HETATM   15  O   UNL     1      -8.218  10.126  69.297  1.00  0.00    -0.130 OA 
HETATM   16  C   UNL     1      -9.180  10.729  68.887  1.00  0.00    -0.173 C  
HETATM   17  C   UNL     1     -10.848  11.880  68.331  1.00  0.00    -0.228 C  
BRANCH  17  18
HETATM   18  C   UNL     1     -11.828  12.394  69.496  1.00  0.00    -0.368 A  
HETATM   19  H   UNL     1     -14.181  13.105  73.555  1.00  0.00     0.000 HD 
HETATM   20  C   UNL     1     -12.862  14.218  70.786  1.00  0.00    -0.404 A  
HETATM   21  C   UNL     1     -12.157  13.754  69.669  1.00  0.00    -0.392 A  
HETATM   22  C   UNL     1     -12.301  11.508  70.489  1.00  0.00    -0.432 A  
HETATM   23  C   UNL     1     -13.266  13.314  71.757  1.00  0.00    -0.405 A  
HETATM   24  O   UNL     1     -13.904  13.724  72.890  1.00  0.00    -0.668 OA 
HETATM   25  C   UNL     1     -13.010  11.961  71.609  1.00  0.00    -0.447 A  
ENDBRANCH  17  18
BRANCH  14  26
HETATM   26  C   UNL     1      -8.525  13.086  68.356  1.00  0.00    -0.118 A  
HETATM   27  C   UNL     1      -8.025  15.454  68.614  1.00  0.00    -0.149 A  
HETATM   28  F   UNL     1      -5.957  16.286  67.860  1.00  0.00    -0.097 F  
HETATM   29  C   UNL     1      -8.892  14.373  68.776  1.00  0.00    -0.131 A  
HETATM   30  C   UNL     1      -6.395  13.980  67.614  1.00  0.00    -0.134 A  
HETATM   31  C   UNL     1      -6.787  15.249  68.028  1.00  0.00    -0.140 A  
HETATM   32  C   UNL     1      -7.262  12.894  67.784  1.00  0.00    -0.134 A  
ENDBRANCH  14  26
ENDBRANCH  12  13
ENDBRANCH  11  12
ENDBRANCH   3  11
TORSDOF 6
ENDMDL
MODEL       64
REMARK 921   NORMALIZED FREE ENERGY PREDICTED BY IDOCK:   -6.54 KCAL/MOL
REMARK 922        TOTAL FREE ENERGY PREDICTED BY IDOCK:  -10.64 KCAL/MOL
REMARK 923 INTER-LIGAND FREE ENERGY PREDICTED BY IDOCK:   -9.29 KCAL/MOL
REMARK 924 INTRA-LIGAND FREE ENERGY PREDICTED BY IDOCK:   -1.35 KCAL/MOL
REMARK 927      BINDING AFFINITY PREDICTED BY RF-SCORE:    0.00 PKD
ROOT
HETATM    1  O   UNL     1     -12.194  15.078  68.280  1.00  0.00    -0.568 OA 
HETATM    2  H   UNL     1     -12.959  15.625  68.416  1.00  0.00     0.000 HD 
HETATM    3  C   UNL     1     -12.234  13.964  69.168  1.00  0.00    -0.267 C  
ENDROOT
BRANCH   3   4
HETATM    4  C   UNL     1     -12.388  14.432  70.599  1.00  0.00    -0.422 A  
HETATM    5  C   UNL     1     -11.752  15.597  71.059  1.00  0.00    -0.444 A  
HETATM    6  C   UNL     1     -13.178  13.693  71.498  1.00  0.00    -0.409 A  
HETATM    7  C   UNL     1     -11.923  16.031  72.373  1.00  0.00    -0.644 A  
HETATM    8  F   UNL     1     -12.909  15.724  74.490  1.00  0.00    -0.590 F  
HETATM    9  C   UNL     1     -13.351  14.130  72.812  1.00  0.00    -0.618 A  
HETATM   10  C   UNL     1     -12.728  15.298  73.235  1.00  0.00    -0.511 A  
ENDBRANCH   3   4
BRANCH   3  11
HETATM   11  C   UNL     1     -11.002  13.083  68.948  1.00  0.00    -0.271 C  
BRANCH  11  12
HETATM   12  C   UNL     1     -11.254  11.569  69.066  1.00  0.00    -0.324 C  
BRANCH  12  13
HETATM   13  C   UNL     1     -10.208  10.835  68.230  1.00  0.00    -0.187 C  
HETATM   14  N   UNL     1      -9.898   8.810  68.545  1.00  0.00    -0.164 N  
HETATM   15  O   UNL     1      -8.501  10.087  69.954  1.00  0.00    -0.189 OA 
HETATM   16  C   UNL     1      -9.312   9.912  69.077  1.00  0.00    -0.174 C  
HETATM   17  C   UNL     1     -10.590   9.514  67.458  1.00  0.00    -0.275 C  
BRANCH  17  18
HETATM   18  C   UNL     1      -9.944   9.452  65.989  1.00  0.00    -0.352 A  
HETATM   19  H   UNL     1      -8.091  10.417  61.728  1.00  0.00     0.000 HD 
HETATM   20  C   UNL     1      -8.274   8.568  64.410  1.00  0.00    -0.153 A  
HETATM   21  C   UNL     1      -8.961   8.507  65.628  1.00  0.00    -0.209 A  
HETATM   22  C   UNL     1     -10.241  10.439  65.024  1.00  0.00    -0.334 A  
HETATM   23  C   UNL     1      -8.570   9.585  63.514  1.00  0.00    -0.213 A  
HETATM   24  O   UNL     1      -7.888   9.721  62.342  1.00  0.00    -0.113 OA 
HETATM   25  C   UNL     1      -9.561  10.509  63.800  1.00  0.00    -0.363 A  
ENDBRANCH  17  18
BRANCH  14  26
HETATM   26  C   UNL     1      -9.898   7.481  68.955  1.00  0.00    -0.170 A  
HETATM   27  C   UNL     1      -8.794   5.313  69.035  1.00  0.00    -0.111 A  
HETATM   28  F   UNL     1      -9.837   3.527  70.159  1.00  0.00    -0.260 F  
HETATM   29  C   UNL     1      -8.820   6.646  68.625  1.00  0.00    -0.122 A  
HETATM   30  C   UNL     1     -10.927   5.621  70.124  1.00  0.00    -0.303 A  
HETATM   31  C   UNL     1      -9.852   4.810  69.775  1.00  0.00    -0.218 A  
HETATM   32  C   UNL     1     -10.948   6.961  69.720  1.00  0.00    -0.310 A  
ENDBRANCH  14  26
ENDBRANCH  12  13
ENDBRANCH  11  12
ENDBRANCH   3  11
TORSDOF 6
ENDMDL
MODEL       65
REMARK 921   NORMALIZED FREE ENERGY PREDICTED BY IDOCK:   -6.52 KCAL/MOL
REMARK 922        TOTAL FREE ENERGY PREDICTED BY IDOCK:  -10.62 KCAL/MOL
REMARK 923 INTER-LIGAND FREE ENERGY PREDICTED BY IDOCK:   -8.16 KCAL/MOL
REMARK 924 INTRA-LIGAND FREE ENERGY PREDICTED BY IDOCK:   -2.45 KCAL/MOL
REMARK 927      BINDING AFFINITY PREDICTED BY RF-SCORE:    0.00 PKD
ROOT
HETATM    1  O   UNL     1     -12.256  13.962  63.315  1.00  0.00    -1.061 OA 
HETATM    2  H   UNL     1     -12.429  14.891  63.218  1.00  0.00     0.000 HD 
HETATM    3  C   UNL     1     -12.394  13.585  64.683  1.00  0.00    -0.372 C  
ENDROOT
BRANCH   3   4
HETATM    4  C   UNL     1     -11.519  14.453  65.563  1.00  0.00    -0.340 A  
HETATM    5  C   UNL     1     -10.452  15.193  65.028  1.00  0.00    -0.418 A  
HETATM    6  C   UNL     1     -11.767  14.524  66.945  1.00  0.00    -0.399 A  
HETATM    7  C   UNL     1      -9.670  16.008  65.846  1.00  0.00    -0.378 A  
HETATM    8  F   UNL     1      -9.213  16.880  67.986  1.00  0.00    -0.218 F  
HETATM    9  C   UNL     1     -10.986  15.343  67.762  1.00  0.00    -0.311 A  
HETATM   10  C   UNL     1      -9.950  16.082  67.204  1.00  0.00    -0.249 A  
ENDBRANCH   3   4
BRANCH   3  11
HETATM   11  C   UNL     1     -12.114  12.088  64.839  1.00  0.00    -0.247 C  
BRANCH  11  12
HETATM   12  C   UNL     1     -10.792  11.604  64.217  1.00  0.00    -0.418 C  
BRANCH  12  13
HETATM   13  C   UNL     1     -10.178  10.551  65.136  1.00  0.00    -0.358 C  
HETATM   14  N   UNL     1      -8.764  11.129  66.536  1.00  0.00    -0.168 N  
HETATM   15  O   UNL     1      -7.722  10.574  64.493  1.00  0.00    -0.092 OA 
HETATM   16  C   UNL     1      -8.649  10.689  65.258  1.00  0.00    -0.169 C  
HETATM   17  C   UNL     1     -10.176  10.762  66.699  1.00  0.00    -0.233 C  
BRANCH  17  18
HETATM   18  C   UNL     1     -10.517   9.413  67.502  1.00  0.00    -0.343 A  
HETATM   19  H   UNL     1     -10.854   4.947  69.069  1.00  0.00     0.000 HD 
HETATM   20  C   UNL     1     -10.727   8.162  69.611  1.00  0.00    -0.196 A  
HETATM   21  C   UNL     1     -10.608   9.366  68.909  1.00  0.00    -0.231 A  
HETATM   22  C   UNL     1     -10.611   8.174  66.831  1.00  0.00    -0.311 A  
HETATM   23  C   UNL     1     -10.769   6.967  68.909  1.00  0.00    -0.222 A  
HETATM   24  O   UNL     1     -10.825   5.765  69.550  1.00  0.00    -0.325 OA 
HETATM   25  C   UNL     1     -10.733   6.963  67.524  1.00  0.00    -0.368 A  
ENDBRANCH  17  18
BRANCH  14  26
HETATM   26  C   UNL     1      -7.859  11.781  67.368  1.00  0.00    -0.155 A  
HETATM   27  C   UNL     1      -7.048  13.845  68.371  1.00  0.00    -0.104 A  
HETATM   28  F   UNL     1      -5.209  13.770  69.838  1.00  0.00    -0.090 F  
HETATM   29  C   UNL     1      -7.938  13.172  67.534  1.00  0.00    -0.179 A  
HETATM   30  C   UNL     1      -5.982  11.745  68.904  1.00  0.00    -0.051 A  
HETATM   31  C   UNL     1      -6.073  13.126  69.044  1.00  0.00    -0.089 A  
HETATM   32  C   UNL     1      -6.880  11.069  68.070  1.00  0.00    -0.067 A  
ENDBRANCH  14  26
ENDBRANCH  12  13
ENDBRANCH  11  12
ENDBRANCH   3  11
TORSDOF 6
ENDMDL
MODEL       66
REMARK 921   NORMALIZED FREE ENERGY PREDICTED BY IDOCK:   -6.50 KCAL/MOL
REMARK 922        TOTAL FREE ENERGY PREDICTED BY IDOCK:  -10.59 KCAL/MOL
REMARK 923 INTER-LIGAND FREE ENERGY PREDICTED BY IDOCK:   -8.95 KCAL/MOL
REMARK 924 INTRA-LIGAND FREE ENERGY PREDICTED BY IDOCK:   -1.64 KCAL/MOL
REMARK 927      BINDING AFFINITY PREDICTED BY RF-SCORE:    0.00 PKD
ROOT
HETATM    1  O   UNL     1      -5.847  19.418  70.085  1.00  0.00    -0.246 OA 
HETATM    2  H   UNL     1      -5.776  20.332  69.837  1.00  0.00     0.000 HD 
HETATM    3  C   UNL     1      -6.142  18.628  68.935  1.00  0.00    -0.223 C  
ENDROOT
BRANCH   3   4
HETATM    4  C   UNL     1      -7.374  19.156  68.231  1.00  0.00    -0.322 A  
HETATM    5  C   UNL     1      -7.328  19.572  66.890  1.00  0.00    -0.240 A  
HETATM    6  C   UNL     1      -8.595  19.243  68.925  1.00  0.00    -0.331 A  
HETATM    7  C   UNL     1      -8.476  20.033  66.247  1.00  0.00    -0.329 A  
HETATM    8  F   UNL     1     -10.782  20.508  66.323  1.00  0.00    -0.333 F  
HETATM    9  C   UNL     1      -9.744  19.701  68.279  1.00  0.00    -0.500 A  
HETATM   10  C   UNL     1      -9.675  20.085  66.945  1.00  0.00    -0.425 A  
ENDBRANCH   3   4
BRANCH   3  11
HETATM   11  C   UNL     1      -6.257  17.155  69.334  1.00  0.00    -0.234 C  
BRANCH  11  12
HETATM   12  C   UNL     1      -6.737  16.212  68.216  1.00  0.00    -0.127 C  
BRANCH  12  13
HETATM   13  C   UNL     1      -8.261  16.139  68.262  1.00  0.00    -0.162 C  
HETATM   14  N   UNL     1      -9.244  14.737  67.095  1.00  0.00    -0.212 N  
HETATM   15  O   UNL     1      -8.948  16.746  65.895  1.00  0.00    -0.497 OA 
HETATM   16  C   UNL     1      -8.893  16.026  66.862  1.00  0.00    -0.231 C  
HETATM   17  C   UNL     1      -8.984  14.765  68.541  1.00  0.00    -0.182 C  
BRANCH  17  18
HETATM   18  C   UNL     1     -10.241  14.922  69.529  1.00  0.00    -0.143 A  
HETATM   19  H   UNL     1     -13.834  16.500  72.197  1.00  0.00     0.000 HD 
HETATM   20  C   UNL     1     -12.476  14.227  70.290  1.00  0.00    -0.422 A  
HETATM   21  C   UNL     1     -11.304  13.996  69.561  1.00  0.00    -0.298 A  
HETATM   22  C   UNL     1     -10.399  16.078  70.324  1.00  0.00    -0.006 A  
HETATM   23  C   UNL     1     -12.603  15.400  71.019  1.00  0.00    -0.431 A  
HETATM   24  O   UNL     1     -13.747  15.697  71.698  1.00  0.00    -0.485 OA 
HETATM   25  C   UNL     1     -11.567  16.318  71.059  1.00  0.00    -0.343 A  
ENDBRANCH  17  18
BRANCH  14  26
HETATM   26  C   UNL     1      -9.637  13.720  66.231  1.00  0.00    -0.249 A  
HETATM   27  C   UNL     1      -9.700  11.352  65.672  1.00  0.00    -0.263 A  
HETATM   28  F   UNL     1     -10.790  10.658  63.705  1.00  0.00    -0.325 F  
HETATM   29  C   UNL     1      -9.307  12.388  66.520  1.00  0.00    -0.233 A  
HETATM   30  C   UNL     1     -10.771  12.961  64.225  1.00  0.00    -0.430 A  
HETATM   31  C   UNL     1     -10.422  11.649  64.528  1.00  0.00    -0.308 A  
HETATM   32  C   UNL     1     -10.384  13.999  65.081  1.00  0.00    -0.422 A  
ENDBRANCH  14  26
ENDBRANCH  12  13
ENDBRANCH  11  12
ENDBRANCH   3  11
TORSDOF 6
ENDMDL
MODEL       67
REMARK 921   NORMALIZED FREE ENERGY PREDICTED BY IDOCK:   -6.49 KCAL/MOL
REMARK 922        TOTAL FREE ENERGY PREDICTED BY IDOCK:  -10.57 KCAL/MOL
REMARK 923 INTER-LIGAND FREE ENERGY PREDICTED BY IDOCK:   -9.60 KCAL/MOL
REMARK 924 INTRA-LIGAND FREE ENERGY PREDICTED BY IDOCK:   -0.97 KCAL/MOL
REMARK 927      BINDING AFFINITY PREDICTED BY RF-SCORE:    0.00 PKD
ROOT
HETATM    1  O   UNL     1     -11.350  16.736  70.438  1.00  0.00    -0.466 OA 
HETATM    2  H   UNL     1     -10.839  17.206  71.086  1.00  0.00     0.000 HD 
HETATM    3  C   UNL     1     -10.512  16.349  69.351  1.00  0.00    -0.309 C  
ENDROOT
BRANCH   3   4
HETATM    4  C   UNL     1      -9.787  17.553  68.786  1.00  0.00    -0.326 A  
HETATM    5  C   UNL     1     -10.485  18.710  68.401  1.00  0.00    -0.259 A  
HETATM    6  C   UNL     1      -8.390  17.523  68.635  1.00  0.00    -0.258 A  
HETATM    7  C   UNL     1      -9.802  19.821  67.906  1.00  0.00    -0.522 A  
HETATM    8  F   UNL     1      -7.761  20.849  67.334  1.00  0.00    -0.371 F  
HETATM    9  C   UNL     1      -7.707  18.636  68.143  1.00  0.00    -0.302 A  
HETATM   10  C   UNL     1      -8.419  19.776  67.789  1.00  0.00    -0.317 A  
ENDBRANCH   3   4
BRANCH   3  11
HETATM   11  C   UNL     1     -11.335  15.592  68.306  1.00  0.00    -0.357 C  
BRANCH  11  12
HETATM   12  C   UNL     1     -10.717  15.546  66.897  1.00  0.00    -0.317 C  
BRANCH  12  13
HETATM   13  C   UNL     1     -10.116  14.160  66.675  1.00  0.00    -0.275 C  
HETATM   14  N   UNL     1     -10.525  12.648  68.031  1.00  0.00    -0.218 N  
HETATM   15  O   UNL     1      -8.603  13.847  68.689  1.00  0.00    -0.155 OA 
HETATM   16  C   UNL     1      -9.521  13.557  67.961  1.00  0.00    -0.220 C  
HETATM   17  C   UNL     1     -11.040  12.882  66.676  1.00  0.00    -0.284 C  
BRANCH  17  18
HETATM   18  C   UNL     1     -10.641  11.833  65.527  1.00  0.00    -0.323 A  
HETATM   19  H   UNL     1      -9.231   9.692  61.534  1.00  0.00     0.000 HD 
HETATM   20  C   UNL     1      -9.469   9.799  64.786  1.00  0.00    -0.318 A  
HETATM   21  C   UNL     1      -9.972  10.622  65.800  1.00  0.00    -0.315 A  
HETATM   22  C   UNL     1     -10.827  12.146  64.163  1.00  0.00    -0.410 A  
HETATM   23  C   UNL     1      -9.638  10.174  63.461  1.00  0.00    -0.191 A  
HETATM   24  O   UNL     1      -9.116   9.436  62.441  1.00  0.00    -0.265 OA 
HETATM   25  C   UNL     1     -10.330  11.329  63.139  1.00  0.00    -0.338 A  
ENDBRANCH  17  18
BRANCH  14  26
HETATM   26  C   UNL     1     -10.958  11.836  69.075  1.00  0.00    -0.227 A  
HETATM   27  C   UNL     1     -12.479  11.446  70.934  1.00  0.00    -0.478 A  
HETATM   28  F   UNL     1     -12.295   9.458  72.179  1.00  0.00    -0.421 F  
HETATM   29  C   UNL     1     -12.022  12.250  69.889  1.00  0.00    -0.377 A  
HETATM   30  C   UNL     1     -10.817   9.789  70.368  1.00  0.00    -0.370 A  
HETATM   31  C   UNL     1     -11.868  10.226  71.169  1.00  0.00    -0.362 A  
HETATM   32  C   UNL     1     -10.365  10.591  69.315  1.00  0.00    -0.248 A  
ENDBRANCH  14  26
ENDBRANCH  12  13
ENDBRANCH  11  12
ENDBRANCH   3  11
TORSDOF 6
ENDMDL
MODEL       68
REMARK 921   NORMALIZED FREE ENERGY PREDICTED BY IDOCK:   -6.45 KCAL/MOL
REMARK 922        TOTAL FREE ENERGY PREDICTED BY IDOCK:  -10.52 KCAL/MOL
REMARK 923 INTER-LIGAND FREE ENERGY PREDICTED BY IDOCK:   -8.95 KCAL/MOL
REMARK 924 INTRA-LIGAND FREE ENERGY PREDICTED BY IDOCK:   -1.58 KCAL/MOL
REMARK 927      BINDING AFFINITY PREDICTED BY RF-SCORE:    0.00 PKD
ROOT
HETATM    1  O   UNL     1     -10.645  18.137  66.382  1.00  0.00    -0.356 OA 
HETATM    2  H   UNL     1     -10.859  18.970  66.784  1.00  0.00     0.000 HD 
HETATM    3  C   UNL     1      -9.688  17.447  67.183  1.00  0.00    -0.267 C  
ENDROOT
BRANCH   3   4
HETATM    4  C   UNL     1      -8.477  18.321  67.433  1.00  0.00    -0.249 A  
HETATM    5  C   UNL     1      -8.611  19.628  67.932  1.00  0.00    -0.360 A  
HETATM    6  C   UNL     1      -7.189  17.829  67.160  1.00  0.00    -0.204 A  
HETATM    7  C   UNL     1      -7.486  20.413  68.181  1.00  0.00    -0.166 A  
HETATM    8  F   UNL     1      -5.141  20.642  68.186  1.00  0.00    -0.196 F  
HETATM    9  C   UNL     1      -6.064  18.615  67.413  1.00  0.00    -0.175 A  
HETATM   10  C   UNL     1      -6.223  19.896  67.927  1.00  0.00    -0.225 A  
ENDBRANCH   3   4
BRANCH   3  11
HETATM   11  C   UNL     1      -9.342  16.104  66.535  1.00  0.00    -0.296 C  
BRANCH  11  12
HETATM   12  C   UNL     1     -10.535  15.351  65.919  1.00  0.00    -0.354 C  
BRANCH  12  13
HETATM   13  C   UNL     1     -11.375  14.761  67.049  1.00  0.00    -0.358 C  
HETATM   14  N   UNL     1     -11.051  12.799  67.634  1.00  0.00    -0.247 N  
HETATM   15  O   UNL     1     -12.658  12.890  65.909  1.00  0.00    -0.509 OA 
HETATM   16  C   UNL     1     -11.896  13.348  66.726  1.00  0.00    -0.403 C  
HETATM   17  C   UNL     1     -10.677  14.064  68.280  1.00  0.00    -0.254 C  
BRANCH  17  18
HETATM   18  C   UNL     1     -11.379  14.434  69.676  1.00  0.00    -0.309 A  
HETATM   19  H   UNL     1     -13.353  16.605  73.406  1.00  0.00     0.000 HD 
HETATM   20  C   UNL     1     -13.140  14.073  71.358  1.00  0.00    -0.423 A  
HETATM   21  C   UNL     1     -12.411  13.654  70.240  1.00  0.00    -0.392 A  
HETATM   22  C   UNL     1     -11.081  15.644  70.340  1.00  0.00    -0.369 A  
HETATM   23  C   UNL     1     -12.839  15.292  71.948  1.00  0.00    -0.368 A  
HETATM   24  O   UNL     1     -13.558  15.770  73.002  1.00  0.00    -0.559 OA 
HETATM   25  C   UNL     1     -11.803  16.072  71.461  1.00  0.00    -0.554 A  
ENDBRANCH  17  18
BRANCH  14  26
HETATM   26  C   UNL     1     -10.629  11.487  67.822  1.00  0.00    -0.192 A  
HETATM   27  C   UNL     1     -10.844   9.364  68.993  1.00  0.00    -0.161 A  
HETATM   28  F   UNL     1      -9.429   7.576  68.413  1.00  0.00    -0.146 F  
HETATM   29  C   UNL     1     -11.244  10.686  68.796  1.00  0.00    -0.337 A  
HETATM   30  C   UNL     1      -9.207   9.611  67.237  1.00  0.00    -0.154 A  
HETATM   31  C   UNL     1      -9.824   8.841  68.217  1.00  0.00    -0.165 A  
HETATM   32  C   UNL     1      -9.614  10.935  67.033  1.00  0.00    -0.197 A  
ENDBRANCH  14  26
ENDBRANCH  12  13
ENDBRANCH  11  12
ENDBRANCH   3  11
TORSDOF 6
ENDMDL
MODEL       69
REMARK 921   NORMALIZED FREE ENERGY PREDICTED BY IDOCK:   -6.41 KCAL/MOL
REMARK 922        TOTAL FREE ENERGY PREDICTED BY IDOCK:  -10.46 KCAL/MOL
REMARK 923 INTER-LIGAND FREE ENERGY PREDICTED BY IDOCK:   -7.89 KCAL/MOL
REMARK 924 INTRA-LIGAND FREE ENERGY PREDICTED BY IDOCK:   -2.58 KCAL/MOL
REMARK 927      BINDING AFFINITY PREDICTED BY RF-SCORE:    0.00 PKD
ROOT
HETATM    1  O   UNL     1     -11.425   6.425  66.722  1.00  0.00    -0.733 OA 
HETATM    2  H   UNL     1     -11.885   5.660  67.047  1.00  0.00     0.000 HD 
HETATM    3  C   UNL     1     -10.019   6.236  66.855  1.00  0.00    -0.169 C  
ENDROOT
BRANCH   3   4
HETATM    4  C   UNL     1      -9.664   5.886  68.285  1.00  0.00    -0.147 A  
HETATM    5  C   UNL     1     -10.658   5.711  69.262  1.00  0.00    -0.359 A  
HETATM    6  C   UNL     1      -8.316   5.735  68.655  1.00  0.00    -0.107 A  
HETATM    7  C   UNL     1     -10.318   5.364  70.569  1.00  0.00    -0.344 A  
HETATM    8  F   UNL     1      -8.656   4.843  72.155  1.00  0.00    -0.116 F  
HETATM    9  C   UNL     1      -7.977   5.385  69.963  1.00  0.00    -0.082 A  
HETATM   10  C   UNL     1      -8.982   5.196  70.905  1.00  0.00    -0.135 A  
ENDBRANCH   3   4
BRANCH   3  11
HETATM   11  C   UNL     1      -9.279   7.469  66.331  1.00  0.00    -0.212 C  
BRANCH  11  12
HETATM   12  C   UNL     1      -9.996   8.810  66.571  1.00  0.00    -0.360 C  
BRANCH  12  13
HETATM   13  C   UNL     1      -9.719   9.261  68.003  1.00  0.00    -0.172 C  
HETATM   14  N   UNL     1     -10.381  11.124  68.625  1.00  0.00    -0.195 N  
HETATM   15  O   UNL     1      -8.217  11.286  67.698  1.00  0.00    -0.115 OA 
HETATM   16  C   UNL     1      -9.209  10.712  68.080  1.00  0.00    -0.148 C  
HETATM   17  C   UNL     1     -10.895   9.779  68.916  1.00  0.00    -0.192 C  
BRANCH  17  18
HETATM   18  C   UNL     1     -10.784   9.241  70.425  1.00  0.00    -0.300 A  
HETATM   19  H   UNL     1     -11.421   7.087  74.605  1.00  0.00     0.000 HD 
HETATM   20  C   UNL     1      -9.474   8.276  72.272  1.00  0.00    -0.341 A  
HETATM   21  C   UNL     1      -9.552   8.910  71.027  1.00  0.00    -0.321 A  
HETATM   22  C   UNL     1     -11.942   8.948  71.178  1.00  0.00    -0.344 A  
HETATM   23  C   UNL     1     -10.643   7.967  72.952  1.00  0.00    -0.368 A  
HETATM   24  O   UNL     1     -10.620   7.298  74.140  1.00  0.00    -0.253 OA 
HETATM   25  C   UNL     1     -11.876   8.316  72.426  1.00  0.00    -0.461 A  
ENDBRANCH  17  18
BRANCH  14  26
HETATM   26  C   UNL     1     -10.930  12.393  68.773  1.00  0.00    -0.246 A  
HETATM   27  C   UNL     1     -12.171  13.995  70.121  1.00  0.00    -0.425 A  
HETATM   28  F   UNL     1     -12.569  16.154  69.275  1.00  0.00    -0.129 F  
HETATM   29  C   UNL     1     -11.622  12.724  69.947  1.00  0.00    -0.243 A  
HETATM   30  C   UNL     1     -11.340  14.637  67.947  1.00  0.00    -0.332 A  
HETATM   31  C   UNL     1     -12.032  14.938  69.116  1.00  0.00    -0.278 A  
HETATM   32  C   UNL     1     -10.782  13.365  67.777  1.00  0.00    -0.259 A  
ENDBRANCH  14  26
ENDBRANCH  12  13
ENDBRANCH  11  12
ENDBRANCH   3  11
TORSDOF 6
ENDMDL
MODEL       70
REMARK 921   NORMALIZED FREE ENERGY PREDICTED BY IDOCK:   -6.36 KCAL/MOL
REMARK 922        TOTAL FREE ENERGY PREDICTED BY IDOCK:  -10.40 KCAL/MOL
REMARK 923 INTER-LIGAND FREE ENERGY PREDICTED BY IDOCK:   -8.34 KCAL/MOL
REMARK 924 INTRA-LIGAND FREE ENERGY PREDICTED BY IDOCK:   -2.06 KCAL/MOL
REMARK 927      BINDING AFFINITY PREDICTED BY RF-SCORE:    0.00 PKD
ROOT
HETATM    1  O   UNL     1      -8.846  13.089  68.710  1.00  0.00    -0.377 OA 
HETATM    2  H   UNL     1      -9.165  13.945  68.968  1.00  0.00     0.000 HD 
HETATM    3  C   UNL     1      -8.467  13.109  67.336  1.00  0.00    -0.201 C  
ENDROOT
BRANCH   3   4
HETATM    4  C   UNL     1      -9.612  13.605  66.478  1.00  0.00    -0.294 A  
HETATM    5  C   UNL     1      -9.626  14.912  65.964  1.00  0.00    -0.346 A  
HETATM    6  C   UNL     1     -10.691  12.751  66.187  1.00  0.00    -0.297 A  
HETATM    7  C   UNL     1     -10.675  15.348  65.155  1.00  0.00    -0.460 A  
HETATM    8  F   UNL     1     -12.713  14.888  64.067  1.00  0.00    -0.433 F  
HETATM    9  C   UNL     1     -11.738  13.187  65.374  1.00  0.00    -0.383 A  
HETATM   10  C   UNL     1     -11.717  14.478  64.860  1.00  0.00    -0.402 A  
ENDBRANCH   3   4
BRANCH   3  11
HETATM   11  C   UNL     1      -7.952  11.728  66.920  1.00  0.00    -0.149 C  
BRANCH  11  12
HETATM   12  C   UNL     1      -7.044  11.034  67.952  1.00  0.00    -0.081 C  
BRANCH  12  13
HETATM   13  C   UNL     1      -7.657   9.682  68.307  1.00  0.00    -0.078 C  
HETATM   14  N   UNL     1      -9.400   9.621  69.426  1.00  0.00    -0.180 N  
HETATM   15  O   UNL     1      -7.513   9.623  70.841  1.00  0.00    -0.302 OA 
HETATM   16  C   UNL     1      -8.091   9.597  69.783  1.00  0.00    -0.155 C  
HETATM   17  C   UNL     1      -9.174   9.387  67.994  1.00  0.00    -0.130 C  
BRANCH  17  18
HETATM   18  C   UNL     1      -9.408   7.903  67.427  1.00  0.00    -0.169 A  
HETATM   19  H   UNL     1     -11.168   3.902  65.579  1.00  0.00     0.000 HD 
HETATM   20  C   UNL     1      -8.712   6.004  66.023  1.00  0.00    -0.154 A  
HETATM   21  C   UNL     1      -8.439   7.218  66.663  1.00  0.00    -0.124 A  
HETATM   22  C   UNL     1     -10.660   7.264  67.560  1.00  0.00    -0.344 A  
HETATM   23  C   UNL     1      -9.973   5.439  66.146  1.00  0.00    -0.132 A  
HETATM   24  O   UNL     1     -10.305   4.289  65.495  1.00  0.00    -0.239 OA 
HETATM   25  C   UNL     1     -10.943   6.048  66.925  1.00  0.00    -0.350 A  
ENDBRANCH  17  18
BRANCH  14  26
HETATM   26  C   UNL     1     -10.550   9.869  70.169  1.00  0.00    -0.297 A  
HETATM   27  C   UNL     1     -12.399  11.346  70.737  1.00  0.00    -0.483 A  
HETATM   28  F   UNL     1     -13.980  10.654  72.337  1.00  0.00    -0.221 F  
HETATM   29  C   UNL     1     -11.238  11.081  70.010  1.00  0.00    -0.303 A  
HETATM   30  C   UNL     1     -12.215   9.184  71.794  1.00  0.00    -0.442 A  
HETATM   31  C   UNL     1     -12.873  10.398  71.628  1.00  0.00    -0.474 A  
HETATM   32  C   UNL     1     -11.055   8.915  71.059  1.00  0.00    -0.340 A  
ENDBRANCH  14  26
ENDBRANCH  12  13
ENDBRANCH  11  12
ENDBRANCH   3  11
TORSDOF 6
ENDMDL
MODEL       71
REMARK 921   NORMALIZED FREE ENERGY PREDICTED BY IDOCK:   -6.35 KCAL/MOL
REMARK 922        TOTAL FREE ENERGY PREDICTED BY IDOCK:  -10.38 KCAL/MOL
REMARK 923 INTER-LIGAND FREE ENERGY PREDICTED BY IDOCK:   -8.57 KCAL/MOL
REMARK 924 INTRA-LIGAND FREE ENERGY PREDICTED BY IDOCK:   -1.82 KCAL/MOL
REMARK 927      BINDING AFFINITY PREDICTED BY RF-SCORE:    0.00 PKD
ROOT
HETATM    1  O   UNL     1      -9.119  10.860  69.056  1.00  0.00    -0.253 OA 
HETATM    2  H   UNL     1      -9.519  10.206  69.618  1.00  0.00     0.000 HD 
HETATM    3  C   UNL     1      -9.678  10.778  67.747  1.00  0.00    -0.162 C  
ENDROOT
BRANCH   3   4
HETATM    4  C   UNL     1      -9.559   9.369  67.207  1.00  0.00    -0.194 A  
HETATM    5  C   UNL     1      -8.479   8.989  66.392  1.00  0.00    -0.126 A  
HETATM    6  C   UNL     1     -10.544   8.414  67.515  1.00  0.00    -0.285 A  
HETATM    7  C   UNL     1      -8.369   7.681  65.922  1.00  0.00    -0.140 A  
HETATM    8  F   UNL     1      -9.224   5.488  65.827  1.00  0.00    -0.154 F  
HETATM    9  C   UNL     1     -10.430   7.104  67.047  1.00  0.00    -0.392 A  
HETATM   10  C   UNL     1      -9.341   6.749  66.260  1.00  0.00    -0.100 A  
ENDBRANCH   3   4
BRANCH   3  11
HETATM   11  C   UNL     1      -9.033  11.831  66.843  1.00  0.00    -0.195 C  
BRANCH  11  12
HETATM   12  C   UNL     1      -9.976  12.462  65.802  1.00  0.00    -0.270 C  
BRANCH  12  13
HETATM   13  C   UNL     1     -10.239  13.912  66.199  1.00  0.00    -0.307 C  
HETATM   14  N   UNL     1     -11.173  14.315  68.004  1.00  0.00    -0.269 N  
HETATM   15  O   UNL     1     -12.773  14.042  66.292  1.00  0.00    -0.414 OA 
HETATM   16  C   UNL     1     -11.660  14.127  66.752  1.00  0.00    -0.391 C  
HETATM   17  C   UNL     1      -9.767  14.452  67.603  1.00  0.00    -0.219 C  
BRANCH  17  18
HETATM   18  C   UNL     1      -9.148  15.932  67.516  1.00  0.00    -0.204 A  
HETATM   19  H   UNL     1      -6.860  20.019  68.275  1.00  0.00     0.000 HD 
HETATM   20  C   UNL     1      -7.981  17.704  66.268  1.00  0.00    -0.292 A  
HETATM   21  C   UNL     1      -8.679  16.492  66.309  1.00  0.00    -0.369 A  
HETATM   22  C   UNL     1      -8.924  16.694  68.683  1.00  0.00    -0.246 A  
HETATM   23  C   UNL     1      -7.746  18.393  67.448  1.00  0.00    -0.223 A  
HETATM   24  O   UNL     1      -7.021  19.547  67.467  1.00  0.00    -0.210 OA 
HETATM   25  C   UNL     1      -8.229  17.910  68.653  1.00  0.00    -0.281 A  
ENDBRANCH  17  18
BRANCH  14  26
HETATM   26  C   UNL     1     -11.799  14.298  69.246  1.00  0.00    -0.330 A  
HETATM   27  C   UNL     1     -12.840  15.507  71.085  1.00  0.00    -0.551 A  
HETATM   28  F   UNL     1     -13.677  14.307  72.928  1.00  0.00    -0.538 F  
HETATM   29  C   UNL     1     -12.201  15.502  69.844  1.00  0.00    -0.351 A  
HETATM   30  C   UNL     1     -12.696  13.098  71.154  1.00  0.00    -0.386 A  
HETATM   31  C   UNL     1     -13.076  14.305  71.732  1.00  0.00    -0.359 A  
HETATM   32  C   UNL     1     -12.063  13.093  69.906  1.00  0.00    -0.357 A  
ENDBRANCH  14  26
ENDBRANCH  12  13
ENDBRANCH  11  12
ENDBRANCH   3  11
TORSDOF 6
ENDMDL
MODEL       72
REMARK 921   NORMALIZED FREE ENERGY PREDICTED BY IDOCK:   -6.32 KCAL/MOL
REMARK 922        TOTAL FREE ENERGY PREDICTED BY IDOCK:  -10.34 KCAL/MOL
REMARK 923 INTER-LIGAND FREE ENERGY PREDICTED BY IDOCK:   -8.28 KCAL/MOL
REMARK 924 INTRA-LIGAND FREE ENERGY PREDICTED BY IDOCK:   -2.06 KCAL/MOL
REMARK 927      BINDING AFFINITY PREDICTED BY RF-SCORE:    0.00 PKD
ROOT
HETATM    1  O   UNL     1     -11.454  13.439  70.427  1.00  0.00    -0.512 OA 
HETATM    2  H   UNL     1     -10.816  14.050  70.078  1.00  0.00     0.000 HD 
HETATM    3  C   UNL     1     -11.452  12.244  69.650  1.00  0.00    -0.215 C  
ENDROOT
BRANCH   3   4
HETATM    4  C   UNL     1     -11.667  12.564  68.185  1.00  0.00    -0.400 A  
HETATM    5  C   UNL     1     -11.511  11.582  67.193  1.00  0.00    -0.313 A  
HETATM    6  C   UNL     1     -12.026  13.868  67.798  1.00  0.00    -0.390 A  
HETATM    7  C   UNL     1     -11.736  11.885  65.850  1.00  0.00    -0.208 A  
HETATM    8  F   UNL     1     -12.351  13.459  64.209  1.00  0.00    -0.418 F  
HETATM    9  C   UNL     1     -12.255  14.168  66.455  1.00  0.00    -0.473 A  
HETATM   10  C   UNL     1     -12.114  13.173  65.495  1.00  0.00    -0.442 A  
ENDBRANCH   3   4
BRANCH   3  11
HETATM   11  C   UNL     1     -12.481  11.259  70.212  1.00  0.00    -0.330 C  
BRANCH  11  12
HETATM   12  C   UNL     1     -11.935  10.277  71.264  1.00  0.00    -0.457 C  
BRANCH  12  13
HETATM   13  C   UNL     1     -10.771   9.502  70.649  1.00  0.00    -0.375 C  
HETATM   14  N   UNL     1     -10.489   7.516  71.167  1.00  0.00    -0.206 N  
HETATM   15  O   UNL     1      -9.326   8.928  72.656  1.00  0.00    -0.266 OA 
HETATM   16  C   UNL     1      -9.999   8.668  71.688  1.00  0.00    -0.282 C  
HETATM   17  C   UNL     1     -11.023   8.117  69.938  1.00  0.00    -0.168 C  
BRANCH  17  18
HETATM   18  C   UNL     1     -10.169   7.956  68.588  1.00  0.00    -0.223 A  
HETATM   19  H   UNL     1      -8.595   6.940  64.228  1.00  0.00     0.000 HD 
HETATM   20  C   UNL     1      -8.720   8.898  66.835  1.00  0.00    -0.128 A  
HETATM   21  C   UNL     1      -9.321   8.970  68.097  1.00  0.00    -0.151 A  
HETATM   22  C   UNL     1     -10.336   6.828  67.755  1.00  0.00    -0.245 A  
HETATM   23  C   UNL     1      -8.952   7.789  66.034  1.00  0.00    -0.145 A  
HETATM   24  O   UNL     1      -8.436   7.699  64.776  1.00  0.00    -0.080 OA 
HETATM   25  C   UNL     1      -9.737   6.744  66.491  1.00  0.00    -0.183 A  
ENDBRANCH  17  18
BRANCH  14  26
HETATM   26  C   UNL     1     -10.536   6.223  71.678  1.00  0.00    -0.217 A  
HETATM   27  C   UNL     1      -9.818   3.900  71.569  1.00  0.00    -0.247 A  
HETATM   28  F   UNL     1     -10.623   2.366  73.162  1.00  0.00    -0.191 F  
HETATM   29  C   UNL     1      -9.794   5.201  71.067  1.00  0.00    -0.261 A  
HETATM   30  C   UNL     1     -11.323   4.615  73.315  1.00  0.00    -0.393 A  
HETATM   31  C   UNL     1     -10.588   3.617  72.685  1.00  0.00    -0.058 A  
HETATM   32  C   UNL     1     -11.293   5.922  72.816  1.00  0.00    -0.305 A  
ENDBRANCH  14  26
ENDBRANCH  12  13
ENDBRANCH  11  12
ENDBRANCH   3  11
TORSDOF 6
ENDMDL
MODEL       73
REMARK 921   NORMALIZED FREE ENERGY PREDICTED BY IDOCK:   -6.32 KCAL/MOL
REMARK 922        TOTAL FREE ENERGY PREDICTED BY IDOCK:  -10.34 KCAL/MOL
REMARK 923 INTER-LIGAND FREE ENERGY PREDICTED BY IDOCK:   -8.58 KCAL/MOL
REMARK 924 INTRA-LIGAND FREE ENERGY PREDICTED BY IDOCK:   -1.76 KCAL/MOL
REMARK 927      BINDING AFFINITY PREDICTED BY RF-SCORE:    0.00 PKD
ROOT
HETATM    1  O   UNL     1      -7.237  10.811  70.276  1.00  0.00    -0.453 OA 
HETATM    2  H   UNL     1      -7.426  10.702  71.200  1.00  0.00     0.000 HD 
HETATM    3  C   UNL     1      -8.452  10.798  69.530  1.00  0.00     0.110 C  
ENDROOT
BRANCH   3   4
HETATM    4  C   UNL     1      -9.248   9.547  69.836  1.00  0.00    -0.242 A  
HETATM    5  C   UNL     1      -8.815   8.282  69.403  1.00  0.00    -0.146 A  
HETATM    6  C   UNL     1     -10.449   9.640  70.561  1.00  0.00    -0.367 A  
HETATM    7  C   UNL     1      -9.545   7.135  69.713  1.00  0.00    -0.155 A  
HETATM    8  F   UNL     1     -11.405   6.147  70.768  1.00  0.00    -0.343 F  
HETATM    9  C   UNL     1     -11.177   8.491  70.874  1.00  0.00    -0.304 A  
HETATM   10  C   UNL     1     -10.714   7.250  70.452  1.00  0.00    -0.236 A  
ENDBRANCH   3   4
BRANCH   3  11
HETATM   11  C   UNL     1      -8.146  10.974  68.041  1.00  0.00    -0.121 C  
BRANCH  11  12
HETATM   12  C   UNL     1      -9.374  10.927  67.114  1.00  0.00    -0.174 C  
BRANCH  12  13
HETATM   13  C   UNL     1      -9.831  12.357  66.837  1.00  0.00    -0.219 C  
HETATM   14  N   UNL     1     -10.977  13.347  68.253  1.00  0.00    -0.249 N  
HETATM   15  O   UNL     1     -12.361  12.159  66.757  1.00  0.00    -0.429 OA 
HETATM   16  C   UNL     1     -11.315  12.584  67.183  1.00  0.00    -0.324 C  
HETATM   17  C   UNL     1      -9.561  13.498  67.893  1.00  0.00    -0.218 C  
BRANCH  17  18
HETATM   18  C   UNL     1      -9.100  14.874  67.205  1.00  0.00    -0.211 A  
HETATM   19  H   UNL     1      -8.764  19.309  65.551  1.00  0.00     0.000 HD 
HETATM   20  C   UNL     1      -7.412  16.623  66.817  1.00  0.00    -0.289 A  
HETATM   21  C   UNL     1      -7.771  15.345  67.258  1.00  0.00    -0.245 A  
HETATM   22  C   UNL     1     -10.046  15.747  66.625  1.00  0.00    -0.287 A  
HETATM   23  C   UNL     1      -8.387  17.461  66.296  1.00  0.00    -0.236 A  
HETATM   24  O   UNL     1      -8.097  18.735  65.907  1.00  0.00    -0.476 OA 
HETATM   25  C   UNL     1      -9.697  17.028  66.177  1.00  0.00    -0.283 A  
ENDBRANCH  17  18
BRANCH  14  26
HETATM   26  C   UNL     1     -11.717  13.766  69.353  1.00  0.00    -0.325 A  
HETATM   27  C   UNL     1     -12.774  13.254  71.485  1.00  0.00    -0.376 A  
HETATM   28  F   UNL     1     -13.901  14.958  72.653  1.00  0.00    -0.464 F  
HETATM   29  C   UNL     1     -12.041  12.853  70.368  1.00  0.00    -0.385 A  
HETATM   30  C   UNL     1     -12.868  15.499  70.601  1.00  0.00    -0.466 A  
HETATM   31  C   UNL     1     -13.187  14.572  71.588  1.00  0.00    -0.348 A  
HETATM   32  C   UNL     1     -12.126  15.098  69.484  1.00  0.00    -0.316 A  
ENDBRANCH  14  26
ENDBRANCH  12  13
ENDBRANCH  11  12
ENDBRANCH   3  11
TORSDOF 6
ENDMDL
MODEL       74
REMARK 921   NORMALIZED FREE ENERGY PREDICTED BY IDOCK:   -6.23 KCAL/MOL
REMARK 922        TOTAL FREE ENERGY PREDICTED BY IDOCK:  -10.22 KCAL/MOL
REMARK 923 INTER-LIGAND FREE ENERGY PREDICTED BY IDOCK:   -7.22 KCAL/MOL
REMARK 924 INTRA-LIGAND FREE ENERGY PREDICTED BY IDOCK:   -3.00 KCAL/MOL
REMARK 927      BINDING AFFINITY PREDICTED BY RF-SCORE:    0.00 PKD
ROOT
HETATM    1  O   UNL     1      -7.839   5.572  67.696  1.00  0.00    -0.095 OA 
HETATM    2  H   UNL     1      -7.693   4.896  68.348  1.00  0.00     0.000 HD 
HETATM    3  C   UNL     1      -7.012   6.699  67.976  1.00  0.00    -0.080 C  
ENDROOT
BRANCH   3   4
HETATM    4  C   UNL     1      -7.234   7.178  69.395  1.00  0.00    -0.084 A  
HETATM    5  C   UNL     1      -7.727   6.316  70.389  1.00  0.00    -0.098 A  
HETATM    6  C   UNL     1      -6.950   8.512  69.737  1.00  0.00    -0.047 A  
HETATM    7  C   UNL     1      -7.902   6.764  71.697  1.00  0.00    -0.101 A  
HETATM    8  F   UNL     1      -7.739   8.504  73.277  1.00  0.00    -0.193 F  
HETATM    9  C   UNL     1      -7.122   8.959  71.048  1.00  0.00    -0.090 A  
HETATM   10  C   UNL     1      -7.590   8.079  72.016  1.00  0.00    -0.091 A  
ENDBRANCH   3   4
BRANCH   3  11
HETATM   11  C   UNL     1      -7.247   7.787  66.925  1.00  0.00    -0.089 C  
BRANCH  11  12
HETATM   12  C   UNL     1      -8.247   7.416  65.815  1.00  0.00    -0.135 C  
BRANCH  12  13
HETATM   13  C   UNL     1      -9.522   8.231  66.016  1.00  0.00    -0.189 C  
HETATM   14  N   UNL     1     -10.360   8.354  67.908  1.00  0.00    -0.221 N  
HETATM   15  O   UNL     1     -11.220   6.490  66.745  1.00  0.00    -0.334 OA 
HETATM   16  C   UNL     1     -10.567   7.496  66.877  1.00  0.00    -0.297 C  
HETATM   17  C   UNL     1      -9.591   9.339  67.136  1.00  0.00    -0.159 C  
BRANCH  17  18
HETATM   18  C   UNL     1     -10.350  10.666  66.641  1.00  0.00    -0.297 A  
HETATM   19  H   UNL     1     -12.878  13.919  64.287  1.00  0.00     0.000 HD 
HETATM   20  C   UNL     1     -11.837  12.579  67.074  1.00  0.00    -0.394 A  
HETATM   21  C   UNL     1     -11.032  11.528  67.526  1.00  0.00    -0.308 A  
HETATM   22  C   UNL     1     -10.479  10.958  65.266  1.00  0.00    -0.299 A  
HETATM   23  C   UNL     1     -11.969  12.797  65.710  1.00  0.00    -0.449 A  
HETATM   24  O   UNL     1     -12.787  13.770  65.221  1.00  0.00    -0.681 OA 
HETATM   25  C   UNL     1     -11.281  12.009  64.803  1.00  0.00    -0.373 A  
ENDBRANCH  17  18
BRANCH  14  26
HETATM   26  C   UNL     1     -10.697   8.270  69.255  1.00  0.00    -0.128 A  
HETATM   27  C   UNL     1     -10.910   9.338  71.431  1.00  0.00    -0.434 A  
HETATM   28  F   UNL     1     -11.700   8.085  73.260  1.00  0.00    -0.378 F  
HETATM   29  C   UNL     1     -10.567   9.397  70.080  1.00  0.00    -0.267 A  
HETATM   30  C   UNL     1     -11.531   7.021  71.160  1.00  0.00    -0.333 A  
HETATM   31  C   UNL     1     -11.382   8.148  71.961  1.00  0.00    -0.316 A  
HETATM   32  C   UNL     1     -11.194   7.082  69.802  1.00  0.00    -0.257 A  
ENDBRANCH  14  26
ENDBRANCH  12  13
ENDBRANCH  11  12
ENDBRANCH   3  11
TORSDOF 6
ENDMDL
MODEL       75
REMARK 921   NORMALIZED FREE ENERGY PREDICTED BY IDOCK:   -6.19 KCAL/MOL
REMARK 922        TOTAL FREE ENERGY PREDICTED BY IDOCK:  -10.17 KCAL/MOL
REMARK 923 INTER-LIGAND FREE ENERGY PREDICTED BY IDOCK:   -8.17 KCAL/MOL
REMARK 924 INTRA-LIGAND FREE ENERGY PREDICTED BY IDOCK:   -2.00 KCAL/MOL
REMARK 927      BINDING AFFINITY PREDICTED BY RF-SCORE:    0.00 PKD
ROOT
HETATM    1  O   UNL     1     -11.768  12.888  62.960  1.00  0.00    -0.831 OA 
HETATM    2  H   UNL     1     -12.180  13.712  62.727  1.00  0.00     0.000 HD 
HETATM    3  C   UNL     1     -12.055  12.572  64.320  1.00  0.00    -0.428 C  
ENDROOT
BRANCH   3   4
HETATM    4  C   UNL     1     -11.656  13.718  65.226  1.00  0.00    -0.330 A  
HETATM    5  C   UNL     1     -12.303  13.938  66.453  1.00  0.00    -0.468 A  
HETATM    6  C   UNL     1     -10.623  14.589  64.839  1.00  0.00    -0.450 A  
HETATM    7  C   UNL     1     -11.909  14.982  67.289  1.00  0.00    -0.163 A  
HETATM    8  F   UNL     1     -10.475  16.804  67.708  1.00  0.00    -0.288 F  
HETATM    9  C   UNL     1     -10.226  15.632  65.678  1.00  0.00    -0.402 A  
HETATM   10  C   UNL     1     -10.868  15.814  66.897  1.00  0.00    -0.265 A  
ENDBRANCH   3   4
BRANCH   3  11
HETATM   11  C   UNL     1     -11.392  11.244  64.694  1.00  0.00    -0.066 C  
BRANCH  11  12
HETATM   12  C   UNL     1      -9.866  11.309  64.884  1.00  0.00    -0.310 C  
BRANCH  12  13
HETATM   13  C   UNL     1      -9.540  10.966  66.335  1.00  0.00    -0.229 C  
HETATM   14  N   UNL     1      -8.386  12.276  67.452  1.00  0.00    -0.168 N  
HETATM   15  O   UNL     1      -7.013  10.722  66.327  1.00  0.00    -0.125 OA 
HETATM   16  C   UNL     1      -8.060  11.206  66.685  1.00  0.00    -0.159 C  
HETATM   17  C   UNL     1      -9.830  12.008  67.484  1.00  0.00    -0.186 C  
BRANCH  17  18
HETATM   18  C   UNL     1     -10.439  11.318  68.800  1.00  0.00    -0.232 A  
HETATM   19  H   UNL     1     -13.226   9.725  72.294  1.00  0.00     0.000 HD 
HETATM   20  C   UNL     1     -10.661   9.384  70.306  1.00  0.00    -0.299 A  
HETATM   21  C   UNL     1     -10.009  10.060  69.269  1.00  0.00    -0.226 A  
HETATM   22  C   UNL     1     -11.539  11.891  69.476  1.00  0.00    -0.394 A  
HETATM   23  C   UNL     1     -11.766   9.968  70.909  1.00  0.00    -0.374 A  
HETATM   24  O   UNL     1     -12.470   9.325  71.882  1.00  0.00    -0.342 OA 
HETATM   25  C   UNL     1     -12.198  11.225  70.517  1.00  0.00    -0.474 A  
ENDBRANCH  17  18
BRANCH  14  26
HETATM   26  C   UNL     1      -7.611  13.314  67.959  1.00  0.00    -0.145 A  
HETATM   27  C   UNL     1      -5.428  14.351  68.246  1.00  0.00    -0.114 A  
HETATM   28  F   UNL     1      -5.259  16.378  69.431  1.00  0.00    -0.119 F  
HETATM   29  C   UNL     1      -6.223  13.315  67.755  1.00  0.00    -0.159 A  
HETATM   30  C   UNL     1      -7.397  15.415  69.152  1.00  0.00    -0.175 A  
HETATM   31  C   UNL     1      -6.021  15.389  68.947  1.00  0.00    -0.101 A  
HETATM   32  C   UNL     1      -8.195  14.380  68.652  1.00  0.00    -0.148 A  
ENDBRANCH  14  26
ENDBRANCH  12  13
ENDBRANCH  11  12
ENDBRANCH   3  11
TORSDOF 6
ENDMDL
MODEL       76
REMARK 921   NORMALIZED FREE ENERGY PREDICTED BY IDOCK:   -6.19 KCAL/MOL
REMARK 922        TOTAL FREE ENERGY PREDICTED BY IDOCK:  -10.17 KCAL/MOL
REMARK 923 INTER-LIGAND FREE ENERGY PREDICTED BY IDOCK:   -6.92 KCAL/MOL
REMARK 924 INTRA-LIGAND FREE ENERGY PREDICTED BY IDOCK:   -3.25 KCAL/MOL
REMARK 927      BINDING AFFINITY PREDICTED BY RF-SCORE:    0.00 PKD
ROOT
HETATM    1  O   UNL     1     -10.844   4.763  65.607  1.00  0.00    -0.604 OA 
HETATM    2  H   UNL     1     -11.559   4.318  66.047  1.00  0.00     0.000 HD 
HETATM    3  C   UNL     1      -9.623   4.511  66.297  1.00  0.00    -0.189 C  
ENDROOT
BRANCH   3   4
HETATM    4  C   UNL     1      -9.753   4.885  67.758  1.00  0.00    -0.199 A  
HETATM    5  C   UNL     1     -10.909   5.512  68.251  1.00  0.00    -0.057 A  
HETATM    6  C   UNL     1      -8.700   4.609  68.649  1.00  0.00    -0.115 A  
HETATM    7  C   UNL     1     -11.026   5.829  69.604  1.00  0.00    -0.385 A  
HETATM    8  F   UNL     1     -10.103   5.808  71.772  1.00  0.00    -0.195 F  
HETATM    9  C   UNL     1      -8.819   4.923  70.003  1.00  0.00    -0.126 A  
HETATM   10  C   UNL     1      -9.983   5.524  70.469  1.00  0.00    -0.212 A  
ENDBRANCH   3   4
BRANCH   3  11
HETATM   11  C   UNL     1      -8.471   5.228  65.588  1.00  0.00    -0.135 C  
BRANCH  11  12
HETATM   12  C   UNL     1      -8.840   6.576  64.943  1.00  0.00     0.323 C  
BRANCH  12  13
HETATM   13  C   UNL     1      -8.518   7.693  65.933  1.00  0.00    -0.150 C  
HETATM   14  N   UNL     1      -9.374   9.561  65.665  1.00  0.00    -0.222 N  
HETATM   15  O   UNL     1      -7.327   9.418  64.501  1.00  0.00    -0.099 OA 
HETATM   16  C   UNL     1      -8.202   9.030  65.237  1.00  0.00    -0.137 C  
HETATM   17  C   UNL     1      -9.681   8.498  66.630  1.00  0.00    -0.249 C  
BRANCH  17  18
HETATM   18  C   UNL     1      -9.387   8.782  68.184  1.00  0.00    -0.148 A  
HETATM   19  H   UNL     1      -9.631   9.360  72.887  1.00  0.00     0.000 HD 
HETATM   20  C   UNL     1      -8.003   8.485  70.198  1.00  0.00    -0.105 A  
HETATM   21  C   UNL     1      -8.184   8.398  68.813  1.00  0.00    -0.119 A  
HETATM   22  C   UNL     1     -10.386   9.317  69.026  1.00  0.00    -0.228 A  
HETATM   23  C   UNL     1      -9.032   8.975  70.988  1.00  0.00    -0.241 A  
HETATM   24  O   UNL     1      -8.926   9.025  72.346  1.00  0.00    -0.326 OA 
HETATM   25  C   UNL     1     -10.214   9.411  70.413  1.00  0.00    -0.310 A  
ENDBRANCH  17  18
BRANCH  14  26
HETATM   26  C   UNL     1     -10.074  10.692  65.256  1.00  0.00    -0.297 A  
HETATM   27  C   UNL     1     -11.047  12.019  63.463  1.00  0.00    -0.519 A  
HETATM   28  F   UNL     1     -12.163  14.024  63.985  1.00  0.00    -0.469 F  
HETATM   29  C   UNL     1     -10.337  10.898  63.894  1.00  0.00    -0.397 A  
HETATM   30  C   UNL     1     -11.254  12.752  65.754  1.00  0.00    -0.341 A  
HETATM   31  C   UNL     1     -11.493  12.940  64.396  1.00  0.00    -0.357 A  
HETATM   32  C   UNL     1     -10.549  11.623  66.187  1.00  0.00    -0.306 A  
ENDBRANCH  14  26
ENDBRANCH  12  13
ENDBRANCH  11  12
ENDBRANCH   3  11
TORSDOF 6
ENDMDL
MODEL       77
REMARK 921   NORMALIZED FREE ENERGY PREDICTED BY IDOCK:   -6.18 KCAL/MOL
REMARK 922        TOTAL FREE ENERGY PREDICTED BY IDOCK:  -10.16 KCAL/MOL
REMARK 923 INTER-LIGAND FREE ENERGY PREDICTED BY IDOCK:   -8.72 KCAL/MOL
REMARK 924 INTRA-LIGAND FREE ENERGY PREDICTED BY IDOCK:   -1.43 KCAL/MOL
REMARK 927      BINDING AFFINITY PREDICTED BY RF-SCORE:    0.00 PKD
ROOT
HETATM    1  O   UNL     1      -6.131  17.827  69.705  1.00  0.00    -0.247 OA 
HETATM    2  H   UNL     1      -5.771  18.643  69.378  1.00  0.00     0.000 HD 
HETATM    3  C   UNL     1      -6.765  17.120  68.642  1.00  0.00    -0.189 C  
ENDROOT
BRANCH   3   4
HETATM    4  C   UNL     1      -7.793  17.998  67.961  1.00  0.00    -0.257 A  
HETATM    5  C   UNL     1      -7.481  18.721  66.798  1.00  0.00    -0.237 A  
HETATM    6  C   UNL     1      -9.089  18.104  68.497  1.00  0.00    -0.318 A  
HETATM    7  C   UNL     1      -8.445  19.507  66.167  1.00  0.00    -0.329 A  
HETATM    8  F   UNL     1     -10.657  20.313  66.084  1.00  0.00    -0.494 F  
HETATM    9  C   UNL     1     -10.055  18.887  67.862  1.00  0.00    -0.431 A  
HETATM   10  C   UNL     1      -9.725  19.576  66.701  1.00  0.00    -0.375 A  
ENDBRANCH   3   4
BRANCH   3  11
HETATM   11  C   UNL     1      -7.345  15.804  69.168  1.00  0.00    -0.194 C  
BRANCH  11  12
HETATM   12  C   UNL     1      -7.516  14.698  68.111  1.00  0.00    -0.125 C  
BRANCH  12  13
HETATM   13  C   UNL     1      -8.624  13.753  68.571  1.00  0.00    -0.122 C  
HETATM   14  N   UNL     1      -9.983  13.033  67.182  1.00  0.00    -0.231 N  
HETATM   15  O   UNL     1     -10.745  15.066  68.103  1.00  0.00    -0.246 OA 
HETATM   16  C   UNL     1     -10.000  14.124  67.988  1.00  0.00    -0.226 C  
HETATM   17  C   UNL     1      -8.847  12.373  67.840  1.00  0.00    -0.180 C  
BRANCH  17  18
HETATM   18  C   UNL     1      -9.162  11.179  68.867  1.00  0.00    -0.106 A  
HETATM   19  H   UNL     1      -9.066   7.942  72.335  1.00  0.00     0.000 HD 
HETATM   20  C   UNL     1     -10.689  10.014  70.407  1.00  0.00    -0.369 A  
HETATM   21  C   UNL     1     -10.453  10.936  69.382  1.00  0.00    -0.205 A  
HETATM   22  C   UNL     1      -8.120  10.393  69.406  1.00  0.00    -0.161 A  
HETATM   23  C   UNL     1      -9.625   9.298  70.936  1.00  0.00    -0.269 A  
HETATM   24  O   UNL     1      -9.795   8.431  71.973  1.00  0.00    -0.227 OA 
HETATM   25  C   UNL     1      -8.346   9.464  70.430  1.00  0.00    -0.234 A  
ENDBRANCH  17  18
BRANCH  14  26
HETATM   26  C   UNL     1     -10.740  12.705  66.062  1.00  0.00    -0.269 A  
HETATM   27  C   UNL     1     -10.932  11.552  63.927  1.00  0.00    -0.474 A  
HETATM   28  F   UNL     1     -12.947  11.688  62.719  1.00  0.00    -0.519 F  
HETATM   29  C   UNL     1     -10.187  11.901  65.054  1.00  0.00    -0.316 A  
HETATM   30  C   UNL     1     -12.807  12.800  64.797  1.00  0.00    -0.374 A  
HETATM   31  C   UNL     1     -12.233  12.010  63.805  1.00  0.00    -0.498 A  
HETATM   32  C   UNL     1     -12.062  13.143  65.931  1.00  0.00    -0.501 A  
ENDBRANCH  14  26
ENDBRANCH  12  13
ENDBRANCH  11  12
ENDBRANCH   3  11
TORSDOF 6
ENDMDL
MODEL       78
REMARK 921   NORMALIZED FREE ENERGY PREDICTED BY IDOCK:   -6.14 KCAL/MOL
REMARK 922        TOTAL FREE ENERGY PREDICTED BY IDOCK:  -10.10 KCAL/MOL
REMARK 923 INTER-LIGAND FREE ENERGY PREDICTED BY IDOCK:   -8.05 KCAL/MOL
REMARK 924 INTRA-LIGAND FREE ENERGY PREDICTED BY IDOCK:   -2.04 KCAL/MOL
REMARK 927      BINDING AFFINITY PREDICTED BY RF-SCORE:    0.00 PKD
ROOT
HETATM    1  O   UNL     1     -11.484   7.910  73.318  1.00  0.00    -0.573 OA 
HETATM    2  H   UNL     1     -11.257   7.320  74.027  1.00  0.00     0.000 HD 
HETATM    3  C   UNL     1     -12.128   7.184  72.274  1.00  0.00    -0.181 C  
ENDROOT
BRANCH   3   4
HETATM    4  C   UNL     1     -11.268   6.019  71.832  1.00  0.00    -0.338 A  
HETATM    5  C   UNL     1     -10.729   5.959  70.536  1.00  0.00    -0.363 A  
HETATM    6  C   UNL     1     -11.001   4.966  72.725  1.00  0.00    -0.294 A  
HETATM    7  C   UNL     1      -9.919   4.892  70.150  1.00  0.00    -0.325 A  
HETATM    8  F   UNL     1      -8.854   2.863  70.695  1.00  0.00    -0.100 F  
HETATM    9  C   UNL     1     -10.187   3.900  72.339  1.00  0.00    -0.227 A  
HETATM   10  C   UNL     1      -9.649   3.877  71.057  1.00  0.00    -0.181 A  
ENDBRANCH   3   4
BRANCH   3  11
HETATM   11  C   UNL     1     -12.494   8.135  71.132  1.00  0.00    -0.195 C  
BRANCH  11  12
HETATM   12  C   UNL     1     -12.595   9.619  71.527  1.00  0.00    -0.483 C  
BRANCH  12  13
HETATM   13  C   UNL     1     -11.587  10.413  70.700  1.00  0.00    -0.440 C  
HETATM   14  N   UNL     1     -10.468   9.437  69.255  1.00  0.00    -0.213 N  
HETATM   15  O   UNL     1      -9.360   9.374  71.337  1.00  0.00    -0.265 OA 
HETATM   16  C   UNL     1     -10.231   9.694  70.566  1.00  0.00    -0.287 C  
HETATM   17  C   UNL     1     -11.616  10.342  69.125  1.00  0.00    -0.164 C  
BRANCH  17  18
HETATM   18  C   UNL     1     -11.373  11.775  68.440  1.00  0.00    -0.328 A  
HETATM   19  H   UNL     1     -10.974  15.449  65.464  1.00  0.00     0.000 HD 
HETATM   20  C   UNL     1     -11.670  14.218  68.404  1.00  0.00    -0.373 A  
HETATM   21  C   UNL     1     -11.718  12.989  69.071  1.00  0.00    -0.376 A  
HETATM   22  C   UNL     1     -10.919  11.874  67.107  1.00  0.00    -0.319 A  
HETATM   23  C   UNL     1     -11.261  14.258  67.079  1.00  0.00    -0.323 A  
HETATM   24  O   UNL     1     -11.254  15.422  66.371  1.00  0.00    -0.282 OA 
HETATM   25  C   UNL     1     -10.866  13.100  66.431  1.00  0.00    -0.299 A  
ENDBRANCH  17  18
BRANCH  14  26
HETATM   26  C   UNL     1      -9.865   8.548  68.370  1.00  0.00    -0.173 A  
HETATM   27  C   UNL     1     -10.068   6.928  66.565  1.00  0.00    -0.140 A  
HETATM   28  F   UNL     1      -8.130   5.905  65.708  1.00  0.00    -0.102 F  
HETATM   29  C   UNL     1     -10.652   7.817  67.468  1.00  0.00    -0.319 A  
HETATM   30  C   UNL     1      -7.890   7.489  67.442  1.00  0.00    -0.118 A  
HETATM   31  C   UNL     1      -8.693   6.767  66.565  1.00  0.00    -0.136 A  
HETATM   32  C   UNL     1      -8.476   8.387  68.342  1.00  0.00    -0.135 A  
ENDBRANCH  14  26
ENDBRANCH  12  13
ENDBRANCH  11  12
ENDBRANCH   3  11
TORSDOF 6
ENDMDL
MODEL       79
REMARK 921   NORMALIZED FREE ENERGY PREDICTED BY IDOCK:   -6.12 KCAL/MOL
REMARK 922        TOTAL FREE ENERGY PREDICTED BY IDOCK:  -10.07 KCAL/MOL
REMARK 923 INTER-LIGAND FREE ENERGY PREDICTED BY IDOCK:   -8.20 KCAL/MOL
REMARK 924 INTRA-LIGAND FREE ENERGY PREDICTED BY IDOCK:   -1.87 KCAL/MOL
REMARK 927      BINDING AFFINITY PREDICTED BY RF-SCORE:    0.00 PKD
ROOT
HETATM    1  O   UNL     1      -9.854   4.627  72.108  1.00  0.00    -0.161 OA 
HETATM    2  H   UNL     1      -9.032   4.353  71.720  1.00  0.00     0.000 HD 
HETATM    3  C   UNL     1     -10.057   6.019  71.875  1.00  0.00    -0.192 C  
ENDROOT
BRANCH   3   4
HETATM    4  C   UNL     1      -8.867   6.817  72.365  1.00  0.00    -0.136 A  
HETATM    5  C   UNL     1      -8.173   7.691  71.511  1.00  0.00    -0.108 A  
HETATM    6  C   UNL     1      -8.436   6.686  73.697  1.00  0.00    -0.134 A  
HETATM    7  C   UNL     1      -7.094   8.438  71.983  1.00  0.00    -0.107 A  
HETATM    8  F   UNL     1      -5.681   9.044  73.768  1.00  0.00    -0.108 F  
HETATM    9  C   UNL     1      -7.358   7.437  74.168  1.00  0.00    -0.128 A  
HETATM   10  C   UNL     1      -6.702   8.311  73.309  1.00  0.00    -0.114 A  
ENDBRANCH   3   4
BRANCH   3  11
HETATM   11  C   UNL     1     -11.382   6.461  72.500  1.00  0.00    -0.299 C  
BRANCH  11  12
HETATM   12  C   UNL     1     -11.574   7.984  72.613  1.00  0.00    -0.448 C  
BRANCH  12  13
HETATM   13  C   UNL     1     -11.786   8.554  71.213  1.00  0.00    -0.331 C  
HETATM   14  N   UNL     1     -12.311  10.547  70.998  1.00  0.00    -0.362 N  
HETATM   15  O   UNL     1     -14.240   9.205  71.211  1.00  0.00    -0.230 OA 
HETATM   16  C   UNL     1     -13.056   9.419  71.110  1.00  0.00    -0.228 C  
HETATM   17  C   UNL     1     -11.032   9.865  70.764  1.00  0.00    -0.337 C  
BRANCH  17  18
HETATM   18  C   UNL     1     -10.491   9.776  69.254  1.00  0.00    -0.236 A  
HETATM   19  H   UNL     1      -9.703   8.703  64.699  1.00  0.00     0.000 HD 
HETATM   20  C   UNL     1      -9.803  10.854  67.151  1.00  0.00    -0.213 A  
HETATM   21  C   UNL     1     -10.102  10.914  68.516  1.00  0.00    -0.193 A  
HETATM   22  C   UNL     1     -10.506   8.553  68.549  1.00  0.00    -0.205 A  
HETATM   23  C   UNL     1      -9.878   9.636  66.491  1.00  0.00    -0.235 A  
HETATM   24  O   UNL     1      -9.652   9.537  65.151  1.00  0.00    -0.280 OA 
HETATM   25  C   UNL     1     -10.206   8.481  67.182  1.00  0.00    -0.355 A  
ENDBRANCH  17  18
BRANCH  14  26
HETATM   26  C   UNL     1     -12.649  11.889  71.143  1.00  0.00    -0.288 A  
HETATM   27  C   UNL     1     -12.498  14.185  70.349  1.00  0.00    -0.424 A  
HETATM   28  F   UNL     1     -13.630  15.887  71.516  1.00  0.00    -0.520 F  
HETATM   29  C   UNL     1     -12.164  12.836  70.229  1.00  0.00    -0.351 A  
HETATM   30  C   UNL     1     -13.820  13.669  72.302  1.00  0.00    -0.689 A  
HETATM   31  C   UNL     1     -13.318  14.591  71.389  1.00  0.00    -0.357 A  
HETATM   32  C   UNL     1     -13.491  12.314  72.176  1.00  0.00    -0.431 A  
ENDBRANCH  14  26
ENDBRANCH  12  13
ENDBRANCH  11  12
ENDBRANCH   3  11
TORSDOF 6
ENDMDL
MODEL       80
REMARK 921   NORMALIZED FREE ENERGY PREDICTED BY IDOCK:   -6.10 KCAL/MOL
REMARK 922        TOTAL FREE ENERGY PREDICTED BY IDOCK:  -10.04 KCAL/MOL
REMARK 923 INTER-LIGAND FREE ENERGY PREDICTED BY IDOCK:   -8.52 KCAL/MOL
REMARK 924 INTRA-LIGAND FREE ENERGY PREDICTED BY IDOCK:   -1.52 KCAL/MOL
REMARK 927      BINDING AFFINITY PREDICTED BY RF-SCORE:    0.00 PKD
ROOT
HETATM    1  O   UNL     1     -11.608  15.233  72.349  1.00  0.00    -0.436 OA 
HETATM    2  H   UNL     1     -11.715  14.747  73.158  1.00  0.00     0.000 HD 
HETATM    3  C   UNL     1     -12.632  14.865  71.427  1.00  0.00    -0.332 C  
ENDROOT
BRANCH   3   4
HETATM    4  C   UNL     1     -12.651  13.365  71.227  1.00  0.00    -0.411 A  
HETATM    5  C   UNL     1     -12.074  12.772  70.092  1.00  0.00    -0.370 A  
HETATM    6  C   UNL     1     -13.259  12.537  72.188  1.00  0.00    -0.508 A  
HETATM    7  C   UNL     1     -12.076  11.386  69.933  1.00  0.00    -0.404 A  
HETATM    8  F   UNL     1     -12.645   9.258  70.766  1.00  0.00    -0.286 F  
HETATM    9  C   UNL     1     -13.258  11.151  72.029  1.00  0.00    -0.428 A  
HETATM   10  C   UNL     1     -12.661  10.589  70.907  1.00  0.00    -0.398 A  
ENDBRANCH   3   4
BRANCH   3  11
HETATM   11  C   UNL     1     -12.460  15.648  70.123  1.00  0.00    -0.311 C  
BRANCH  11  12
HETATM   12  C   UNL     1     -11.048  16.212  69.883  1.00  0.00    -0.357 C  
BRANCH  12  13
HETATM   13  C   UNL     1     -10.587  15.794  68.488  1.00  0.00    -0.253 C  
HETATM   14  N   UNL     1      -9.085  14.380  68.297  1.00  0.00    -0.187 N  
HETATM   15  O   UNL     1      -8.164  16.549  68.421  1.00  0.00    -0.178 OA 
HETATM   16  C   UNL     1      -9.054  15.735  68.362  1.00  0.00    -0.188 C  
HETATM   17  C   UNL     1     -10.535  14.269  68.090  1.00  0.00    -0.246 C  
BRANCH  17  18
HETATM   18  C   UNL     1     -11.065  14.005  66.596  1.00  0.00    -0.312 A  
HETATM   19  H   UNL     1     -11.827  12.401  62.196  1.00  0.00     0.000 HD 
HETATM   20  C   UNL     1     -12.906  13.688  64.994  1.00  0.00    -0.325 A  
HETATM   21  C   UNL     1     -12.429  14.090  66.246  1.00  0.00    -0.439 A  
HETATM   22  C   UNL     1     -10.192  13.542  65.588  1.00  0.00    -0.306 A  
HETATM   23  C   UNL     1     -12.014  13.196  64.052  1.00  0.00    -0.460 A  
HETATM   24  O   UNL     1     -12.438  12.738  62.841  1.00  0.00    -0.312 OA 
HETATM   25  C   UNL     1     -10.658  13.139  64.331  1.00  0.00    -0.441 A  
ENDBRANCH  17  18
BRANCH  14  26
HETATM   26  C   UNL     1      -8.083  13.429  68.458  1.00  0.00    -0.105 A  
HETATM   27  C   UNL     1      -7.415  11.093  68.604  1.00  0.00    -0.119 A  
HETATM   28  F   UNL     1      -5.145  10.558  68.917  1.00  0.00    -0.042 F  
HETATM   29  C   UNL     1      -8.406  12.064  68.455  1.00  0.00    -0.151 A  
HETATM   30  C   UNL     1      -5.750  12.834  68.756  1.00  0.00    -0.067 A  
HETATM   31  C   UNL     1      -6.097  11.487  68.761  1.00  0.00    -0.049 A  
HETATM   32  C   UNL     1      -6.743  13.808  68.598  1.00  0.00    -0.099 A  
ENDBRANCH  14  26
ENDBRANCH  12  13
ENDBRANCH  11  12
ENDBRANCH   3  11
TORSDOF 6
ENDMDL
MODEL       81
REMARK 921   NORMALIZED FREE ENERGY PREDICTED BY IDOCK:   -6.10 KCAL/MOL
REMARK 922        TOTAL FREE ENERGY PREDICTED BY IDOCK:  -10.04 KCAL/MOL
REMARK 923 INTER-LIGAND FREE ENERGY PREDICTED BY IDOCK:   -7.74 KCAL/MOL
REMARK 924 INTRA-LIGAND FREE ENERGY PREDICTED BY IDOCK:   -2.31 KCAL/MOL
REMARK 927      BINDING AFFINITY PREDICTED BY RF-SCORE:    0.00 PKD
ROOT
HETATM    1  O   UNL     1     -10.944  13.893  63.799  1.00  0.00    -0.418 OA 
HETATM    2  H   UNL     1     -10.630  14.724  63.463  1.00  0.00     0.000 HD 
HETATM    3  C   UNL     1     -11.662  14.102  65.012  1.00  0.00    -0.376 C  
ENDROOT
BRANCH   3   4
HETATM    4  C   UNL     1     -10.814  14.868  66.005  1.00  0.00    -0.328 A  
HETATM    5  C   UNL     1      -9.550  15.370  65.651  1.00  0.00    -0.323 A  
HETATM    6  C   UNL     1     -11.286  15.083  67.312  1.00  0.00    -0.337 A  
HETATM    7  C   UNL     1      -8.789  16.094  66.568  1.00  0.00    -0.331 A  
HETATM    8  F   UNL     1      -8.568  17.030  68.719  1.00  0.00    -0.238 F  
HETATM    9  C   UNL     1     -10.526  15.812  68.227  1.00  0.00    -0.259 A  
HETATM   10  C   UNL     1      -9.288  16.316  67.845  1.00  0.00    -0.209 A  
ENDBRANCH   3   4
BRANCH   3  11
HETATM   11  C   UNL     1     -12.167  12.763  65.553  1.00  0.00    -0.519 C  
BRANCH  11  12
HETATM   12  C   UNL     1     -11.123  11.632  65.572  1.00  0.00    -0.297 C  
BRANCH  12  13
HETATM   13  C   UNL     1     -10.457  11.607  66.946  1.00  0.00    -0.262 C  
HETATM   14  N   UNL     1     -10.316   9.812  67.972  1.00  0.00    -0.194 N  
HETATM   15  O   UNL     1     -12.341  10.904  68.496  1.00  0.00    -0.490 OA 
HETATM   16  C   UNL     1     -11.257  10.790  67.978  1.00  0.00    -0.307 C  
HETATM   17  C   UNL     1      -9.296  10.584  67.250  1.00  0.00    -0.146 C  
BRANCH  17  18
HETATM   18  C   UNL     1      -8.105  11.242  68.104  1.00  0.00    -0.134 A  
HETATM   19  H   UNL     1      -5.248  14.126  70.560  1.00  0.00     0.000 HD 
HETATM   20  C   UNL     1      -6.518  11.177  69.984  1.00  0.00    -0.133 A  
HETATM   21  C   UNL     1      -7.427  10.547  69.127  1.00  0.00    -0.114 A  
HETATM   22  C   UNL     1      -7.772  12.606  67.953  1.00  0.00    -0.141 A  
HETATM   23  C   UNL     1      -6.258  12.530  69.824  1.00  0.00    -0.113 A  
HETATM   24  O   UNL     1      -5.426  13.200  70.670  1.00  0.00    -0.138 OA 
HETATM   25  C   UNL     1      -6.862  13.246  68.803  1.00  0.00    -0.102 A  
ENDBRANCH  17  18
BRANCH  14  26
HETATM   26  C   UNL     1     -10.353   8.498  68.427  1.00  0.00    -0.202 A  
HETATM   27  C   UNL     1     -10.710   6.133  67.975  1.00  0.00    -0.370 A  
HETATM   28  F   UNL     1     -10.465   4.574  69.721  1.00  0.00    -0.279 F  
HETATM   29  C   UNL     1     -10.677   7.459  67.542  1.00  0.00    -0.310 A  
HETATM   30  C   UNL     1     -10.088   6.856  70.193  1.00  0.00    -0.196 A  
HETATM   31  C   UNL     1     -10.422   5.844  69.299  1.00  0.00    -0.274 A  
HETATM   32  C   UNL     1     -10.046   8.185  69.756  1.00  0.00    -0.197 A  
ENDBRANCH  14  26
ENDBRANCH  12  13
ENDBRANCH  11  12
ENDBRANCH   3  11
TORSDOF 6
ENDMDL
MODEL       82
REMARK 921   NORMALIZED FREE ENERGY PREDICTED BY IDOCK:   -6.10 KCAL/MOL
REMARK 922        TOTAL FREE ENERGY PREDICTED BY IDOCK:  -10.04 KCAL/MOL
REMARK 923 INTER-LIGAND FREE ENERGY PREDICTED BY IDOCK:   -8.75 KCAL/MOL
REMARK 924 INTRA-LIGAND FREE ENERGY PREDICTED BY IDOCK:   -1.29 KCAL/MOL
REMARK 927      BINDING AFFINITY PREDICTED BY RF-SCORE:    0.00 PKD
ROOT
HETATM    1  O   UNL     1     -10.969  12.614  68.665  1.00  0.00    -0.237 OA 
HETATM    2  H   UNL     1     -11.398  13.313  68.185  1.00  0.00     0.000 HD 
HETATM    3  C   UNL     1     -11.887  12.027  69.585  1.00  0.00    -0.333 C  
ENDROOT
BRANCH   3   4
HETATM    4  C   UNL     1     -12.491  13.088  70.480  1.00  0.00    -0.306 A  
HETATM    5  C   UNL     1     -13.245  12.743  71.615  1.00  0.00    -0.410 A  
HETATM    6  C   UNL     1     -12.305  14.449  70.179  1.00  0.00    -0.406 A  
HETATM    7  C   UNL     1     -13.774  13.731  72.445  1.00  0.00    -0.692 A  
HETATM    8  F   UNL     1     -14.046  16.016  72.948  1.00  0.00    -0.661 F  
HETATM    9  C   UNL     1     -12.832  15.436  71.012  1.00  0.00    -0.525 A  
HETATM   10  C   UNL     1     -13.556  15.067  72.141  1.00  0.00    -0.427 A  
ENDBRANCH   3   4
BRANCH   3  11
HETATM   11  C   UNL     1     -11.196  10.902  70.358  1.00  0.00    -0.191 C  
BRANCH  11  12
HETATM   12  C   UNL     1     -12.144   9.861  70.981  1.00  0.00    -0.450 C  
BRANCH  12  13
HETATM   13  C   UNL     1     -11.309   8.701  71.517  1.00  0.00    -0.358 C  
HETATM   14  N   UNL     1     -10.742   7.180  70.228  1.00  0.00    -0.231 N  
HETATM   15  O   UNL     1     -12.832   6.693  71.209  1.00  0.00    -0.261 OA 
HETATM   16  C   UNL     1     -11.821   7.330  71.037  1.00  0.00    -0.318 C  
HETATM   17  C   UNL     1      -9.966   8.288  70.800  1.00  0.00    -0.190 C  
BRANCH  17  18
HETATM   18  C   UNL     1      -8.798   7.930  71.842  1.00  0.00    -0.171 A  
HETATM   19  H   UNL     1      -4.664   7.112  74.025  1.00  0.00     0.000 HD 
HETATM   20  C   UNL     1      -7.759   8.146  74.064  1.00  0.00    -0.258 A  
HETATM   21  C   UNL     1      -8.851   8.300  73.203  1.00  0.00    -0.292 A  
HETATM   22  C   UNL     1      -7.592   7.339  71.406  1.00  0.00    -0.083 A  
HETATM   23  C   UNL     1      -6.580   7.601  73.575  1.00  0.00    -0.077 A  
HETATM   24  O   UNL     1      -5.471   7.485  74.359  1.00  0.00    -0.061 OA 
HETATM   25  C   UNL     1      -6.493   7.178  72.259  1.00  0.00    -0.052 A  
ENDBRANCH  17  18
BRANCH  14  26
HETATM   26  C   UNL     1     -10.504   6.315  69.165  1.00  0.00    -0.239 A  
HETATM   27  C   UNL     1      -9.552   4.238  68.326  1.00  0.00    -0.197 A  
HETATM   28  F   UNL     1      -9.779   3.701  66.046  1.00  0.00    -0.179 F  
HETATM   29  C   UNL     1      -9.793   5.125  69.376  1.00  0.00    -0.269 A  
HETATM   30  C   UNL     1     -10.737   5.713  66.827  1.00  0.00    -0.358 A  
HETATM   31  C   UNL     1     -10.020   4.544  67.059  1.00  0.00    -0.179 A  
HETATM   32  C   UNL     1     -10.986   6.598  67.882  1.00  0.00    -0.342 A  
ENDBRANCH  14  26
ENDBRANCH  12  13
ENDBRANCH  11  12
ENDBRANCH   3  11
TORSDOF 6
ENDMDL
MODEL       83
REMARK 921   NORMALIZED FREE ENERGY PREDICTED BY IDOCK:   -6.10 KCAL/MOL
REMARK 922        TOTAL FREE ENERGY PREDICTED BY IDOCK:  -10.04 KCAL/MOL
REMARK 923 INTER-LIGAND FREE ENERGY PREDICTED BY IDOCK:   -8.05 KCAL/MOL
REMARK 924 INTRA-LIGAND FREE ENERGY PREDICTED BY IDOCK:   -1.99 KCAL/MOL
REMARK 927      BINDING AFFINITY PREDICTED BY RF-SCORE:    0.00 PKD
ROOT
HETATM    1  O   UNL     1      -9.077   7.803  73.872  1.00  0.00    -0.268 OA 
HETATM    2  H   UNL     1      -8.270   7.396  74.166  1.00  0.00     0.000 HD 
HETATM    3  C   UNL     1     -10.061   6.802  73.626  1.00  0.00    -0.296 C  
ENDROOT
BRANCH   3   4
HETATM    4  C   UNL     1      -9.529   5.762  72.663  1.00  0.00    -0.158 A  
HETATM    5  C   UNL     1     -10.148   4.507  72.528  1.00  0.00    -0.233 A  
HETATM    6  C   UNL     1      -8.391   6.042  71.887  1.00  0.00    -0.115 A  
HETATM    7  C   UNL     1      -9.662   3.568  71.620  1.00  0.00    -0.234 A  
HETATM    8  F   UNL     1      -8.098   2.984  69.958  1.00  0.00    -0.046 F  
HETATM    9  C   UNL     1      -7.908   5.102  70.975  1.00  0.00    -0.097 A  
HETATM   10  C   UNL     1      -8.552   3.877  70.846  1.00  0.00    -0.072 A  
ENDBRANCH   3   4
BRANCH   3  11
HETATM   11  C   UNL     1     -11.360   7.459  73.152  1.00  0.00    -0.209 C  
BRANCH  11  12
HETATM   12  C   UNL     1     -11.417   7.780  71.648  1.00  0.00    -0.299 C  
BRANCH  12  13
HETATM   13  C   UNL     1     -11.150   9.271  71.457  1.00  0.00    -0.443 C  
HETATM   14  N   UNL     1     -10.399   9.944  69.647  1.00  0.00    -0.224 N  
HETATM   15  O   UNL     1      -8.637   9.376  71.109  1.00  0.00    -0.297 OA 
HETATM   16  C   UNL     1      -9.789   9.551  70.793  1.00  0.00    -0.239 C  
HETATM   17  C   UNL     1     -11.750  10.036  70.216  1.00  0.00    -0.251 C  
BRANCH  17  18
HETATM   18  C   UNL     1     -12.308  11.492  70.601  1.00  0.00    -0.457 A  
HETATM   19  H   UNL     1     -13.845  15.397  72.816  1.00  0.00     0.000 HD 
HETATM   20  C   UNL     1     -12.275  13.941  70.354  1.00  0.00    -0.438 A  
HETATM   21  C   UNL     1     -11.931  12.661  69.906  1.00  0.00    -0.365 A  
HETATM   22  C   UNL     1     -13.106  11.682  71.750  1.00  0.00    -0.487 A  
HETATM   23  C   UNL     1     -13.023  14.077  71.514  1.00  0.00    -0.351 A  
HETATM   24  O   UNL     1     -13.333  15.304  72.021  1.00  0.00    -0.361 OA 
HETATM   25  C   UNL     1     -13.459  12.959  72.205  1.00  0.00    -0.631 A  
ENDBRANCH  17  18
BRANCH  14  26
HETATM   26  C   UNL     1      -9.908  10.116  68.357  1.00  0.00    -0.151 A  
HETATM   27  C   UNL     1      -8.387  11.243  66.827  1.00  0.00    -0.156 A  
HETATM   28  F   UNL     1      -8.401  10.661  64.547  1.00  0.00    -0.171 F  
HETATM   29  C   UNL     1      -8.901  11.061  68.111  1.00  0.00    -0.141 A  
HETATM   30  C   UNL     1      -9.874   9.529  66.004  1.00  0.00    -0.353 A  
HETATM   31  C   UNL     1      -8.883  10.480  65.783  1.00  0.00    -0.175 A  
HETATM   32  C   UNL     1     -10.383   9.341  67.293  1.00  0.00    -0.332 A  
ENDBRANCH  14  26
ENDBRANCH  12  13
ENDBRANCH  11  12
ENDBRANCH   3  11
TORSDOF 6
ENDMDL
MODEL       84
REMARK 921   NORMALIZED FREE ENERGY PREDICTED BY IDOCK:   -6.05 KCAL/MOL
REMARK 922        TOTAL FREE ENERGY PREDICTED BY IDOCK:   -9.98 KCAL/MOL
REMARK 923 INTER-LIGAND FREE ENERGY PREDICTED BY IDOCK:   -8.06 KCAL/MOL
REMARK 924 INTRA-LIGAND FREE ENERGY PREDICTED BY IDOCK:   -1.92 KCAL/MOL
REMARK 927      BINDING AFFINITY PREDICTED BY RF-SCORE:    0.00 PKD
ROOT
HETATM    1  O   UNL     1     -11.498  15.319  72.396  1.00  0.00    -0.454 OA 
HETATM    2  H   UNL     1     -11.613  14.840  73.208  1.00  0.00     0.000 HD 
HETATM    3  C   UNL     1     -12.531  14.967  71.479  1.00  0.00    -0.331 C  
ENDROOT
BRANCH   3   4
HETATM    4  C   UNL     1     -12.582  13.466  71.288  1.00  0.00    -0.411 A  
HETATM    5  C   UNL     1     -11.871  12.836  70.252  1.00  0.00    -0.292 A  
HETATM    6  C   UNL     1     -13.357  12.675  72.155  1.00  0.00    -0.570 A  
HETATM    7  C   UNL     1     -11.907  11.450  70.104  1.00  0.00    -0.440 A  
HETATM    8  F   UNL     1     -12.677   9.356  70.859  1.00  0.00    -0.325 F  
HETATM    9  C   UNL     1     -13.389  11.287  72.007  1.00  0.00    -0.386 A  
HETATM   10  C   UNL     1     -12.659  10.688  70.988  1.00  0.00    -0.416 A  
ENDBRANCH   3   4
BRANCH   3  11
HETATM   11  C   UNL     1     -12.346  15.738  70.170  1.00  0.00    -0.309 C  
BRANCH  11  12
HETATM   12  C   UNL     1     -10.973  16.412  69.999  1.00  0.00    -0.322 C  
BRANCH  12  13
HETATM   13  C   UNL     1     -10.307  15.852  68.745  1.00  0.00    -0.228 C  
HETATM   14  N   UNL     1      -8.881  16.988  67.760  1.00  0.00    -0.220 N  
HETATM   15  O   UNL     1     -11.035  17.466  66.925  1.00  0.00    -0.079 OA 
HETATM   16  C   UNL     1     -10.225  16.885  67.605  1.00  0.00    -0.306 C  
HETATM   17  C   UNL     1      -8.735  15.812  68.627  1.00  0.00    -0.195 C  
BRANCH  17  18
HETATM   18  C   UNL     1      -8.203  14.449  67.965  1.00  0.00    -0.149 A  
HETATM   19  H   UNL     1      -5.765  10.562  66.755  1.00  0.00     0.000 HD 
HETATM   20  C   UNL     1      -8.585  12.145  67.187  1.00  0.00    -0.185 A  
HETATM   21  C   UNL     1      -9.064  13.395  67.596  1.00  0.00    -0.203 A  
HETATM   22  C   UNL     1      -6.820  14.192  67.846  1.00  0.00    -0.173 A  
HETATM   23  C   UNL     1      -7.216  11.927  67.130  1.00  0.00    -0.144 A  
HETATM   24  O   UNL     1      -6.702  10.711  66.794  1.00  0.00    -0.089 OA 
HETATM   25  C   UNL     1      -6.329  12.946  67.435  1.00  0.00    -0.119 A  
ENDBRANCH  17  18
BRANCH  14  26
HETATM   26  C   UNL     1      -7.975  17.943  67.310  1.00  0.00    -0.211 A  
HETATM   27  C   UNL     1      -6.107  18.543  65.869  1.00  0.00    -0.239 A  
HETATM   28  F   UNL     1      -5.267  20.741  65.924  1.00  0.00    -0.194 F  
HETATM   29  C   UNL     1      -7.018  17.599  66.343  1.00  0.00    -0.300 A  
HETATM   30  C   UNL     1      -7.095  20.203  67.317  1.00  0.00    -0.297 A  
HETATM   31  C   UNL     1      -6.149  19.836  66.366  1.00  0.00    -0.164 A  
HETATM   32  C   UNL     1      -8.015  19.258  67.786  1.00  0.00    -0.312 A  
ENDBRANCH  14  26
ENDBRANCH  12  13
ENDBRANCH  11  12
ENDBRANCH   3  11
TORSDOF 6
ENDMDL
MODEL       85
REMARK 921   NORMALIZED FREE ENERGY PREDICTED BY IDOCK:   -6.02 KCAL/MOL
REMARK 922        TOTAL FREE ENERGY PREDICTED BY IDOCK:   -9.94 KCAL/MOL
REMARK 923 INTER-LIGAND FREE ENERGY PREDICTED BY IDOCK:   -8.05 KCAL/MOL
REMARK 924 INTRA-LIGAND FREE ENERGY PREDICTED BY IDOCK:   -1.89 KCAL/MOL
REMARK 927      BINDING AFFINITY PREDICTED BY RF-SCORE:    0.00 PKD
ROOT
HETATM    1  O   UNL     1      -7.751  10.888  65.087  1.00  0.00    -0.357 OA 
HETATM    2  H   UNL     1      -7.787  11.383  64.277  1.00  0.00     0.000 HD 
HETATM    3  C   UNL     1      -8.993  10.220  65.299  1.00  0.00    -0.186 C  
ENDROOT
BRANCH   3   4
HETATM    4  C   UNL     1     -10.140  11.206  65.250  1.00  0.00    -0.329 A  
HETATM    5  C   UNL     1     -10.609  11.839  66.413  1.00  0.00    -0.293 A  
HETATM    6  C   UNL     1     -10.760  11.500  64.022  1.00  0.00    -0.445 A  
HETATM    7  C   UNL     1     -11.651  12.764  66.349  1.00  0.00    -0.435 A  
HETATM    8  F   UNL     1     -13.216  13.960  65.057  1.00  0.00    -0.314 F  
HETATM    9  C   UNL     1     -11.800  12.429  63.959  1.00  0.00    -0.521 A  
HETATM   10  C   UNL     1     -12.230  13.056  65.122  1.00  0.00    -0.459 A  
ENDBRANCH   3   4
BRANCH   3  11
HETATM   11  C   UNL     1      -8.935   9.422  66.604  1.00  0.00    -0.170 C  
BRANCH  11  12
HETATM   12  C   UNL     1      -9.924   8.246  66.693  1.00  0.00    -0.348 C  
BRANCH  12  13
HETATM   13  C   UNL     1     -10.655   8.325  68.031  1.00  0.00    -0.188 C  
HETATM   14  N   UNL     1      -9.764   7.522  69.721  1.00  0.00    -0.170 N  
HETATM   15  O   UNL     1     -11.062   5.889  68.620  1.00  0.00    -0.284 OA 
HETATM   16  C   UNL     1     -10.617   6.995  68.808  1.00  0.00    -0.212 C  
HETATM   17  C   UNL     1      -9.930   8.919  69.300  1.00  0.00    -0.192 C  
BRANCH  17  18
HETATM   18  C   UNL     1     -10.895   9.859  70.175  1.00  0.00    -0.356 A  
HETATM   19  H   UNL     1     -14.144  12.951  71.724  1.00  0.00     0.000 HD 
HETATM   20  C   UNL     1     -12.439  10.190  72.063  1.00  0.00    -0.264 A  
HETATM   21  C   UNL     1     -11.463   9.441  71.397  1.00  0.00    -0.449 A  
HETATM   22  C   UNL     1     -11.327  11.111  69.685  1.00  0.00    -0.366 A  
HETATM   23  C   UNL     1     -12.864  11.392  71.517  1.00  0.00    -0.403 A  
HETATM   24  O   UNL     1     -13.853  12.128  72.098  1.00  0.00    -0.229 OA 
HETATM   25  C   UNL     1     -12.302  11.870  70.345  1.00  0.00    -0.334 A  
ENDBRANCH  17  18
BRANCH  14  26
HETATM   26  C   UNL     1      -8.950   6.917  70.674  1.00  0.00    -0.151 A  
HETATM   27  C   UNL     1      -8.602   5.160  72.322  1.00  0.00    -0.125 A  
HETATM   28  F   UNL     1      -6.570   5.072  73.505  1.00  0.00    -0.057 F  
HETATM   29  C   UNL     1      -9.406   5.788  71.370  1.00  0.00    -0.164 A  
HETATM   30  C   UNL     1      -6.860   6.776  71.897  1.00  0.00    -0.063 A  
HETATM   31  C   UNL     1      -7.339   5.664  72.582  1.00  0.00    -0.095 A  
HETATM   32  C   UNL     1      -7.663   7.401  70.937  1.00  0.00    -0.088 A  
ENDBRANCH  14  26
ENDBRANCH  12  13
ENDBRANCH  11  12
ENDBRANCH   3  11
TORSDOF 6
ENDMDL
MODEL       86
REMARK 921   NORMALIZED FREE ENERGY PREDICTED BY IDOCK:   -6.01 KCAL/MOL
REMARK 922        TOTAL FREE ENERGY PREDICTED BY IDOCK:   -9.93 KCAL/MOL
REMARK 923 INTER-LIGAND FREE ENERGY PREDICTED BY IDOCK:   -8.08 KCAL/MOL
REMARK 924 INTRA-LIGAND FREE ENERGY PREDICTED BY IDOCK:   -1.84 KCAL/MOL
REMARK 927      BINDING AFFINITY PREDICTED BY RF-SCORE:    0.00 PKD
ROOT
HETATM    1  O   UNL     1      -9.759  13.303  67.748  1.00  0.00    -0.205 OA 
HETATM    2  H   UNL     1      -9.838  14.169  68.131  1.00  0.00     0.000 HD 
HETATM    3  C   UNL     1     -11.041  12.684  67.687  1.00  0.00    -0.263 C  
ENDROOT
BRANCH   3   4
HETATM    4  C   UNL     1     -11.693  12.678  69.053  1.00  0.00    -0.367 A  
HETATM    5  C   UNL     1     -12.116  13.870  69.666  1.00  0.00    -0.404 A  
HETATM    6  C   UNL     1     -11.879  11.463  69.736  1.00  0.00    -0.435 A  
HETATM    7  C   UNL     1     -12.737  13.847  70.914  1.00  0.00    -0.410 A  
HETATM    8  F   UNL     1     -13.548  12.608  72.746  1.00  0.00    -0.527 F  
HETATM    9  C   UNL     1     -12.504  11.441  70.984  1.00  0.00    -0.486 A  
HETATM   10  C   UNL     1     -12.933  12.633  71.557  1.00  0.00    -0.282 A  
ENDBRANCH   3   4
BRANCH   3  11
HETATM   11  C   UNL     1     -10.914  11.288  67.070  1.00  0.00    -0.352 C  
BRANCH  11  12
HETATM   12  C   UNL     1      -9.608  11.035  66.296  1.00  0.00    -0.231 C  
BRANCH  12  13
HETATM   13  C   UNL     1      -9.114   9.627  66.621  1.00  0.00    -0.176 C  
HETATM   14  N   UNL     1      -9.473   8.836  68.503  1.00  0.00    -0.144 N  
HETATM   15  O   UNL     1      -7.429  10.014  68.481  1.00  0.00    -0.083 OA 
HETATM   16  C   UNL     1      -8.430   9.542  67.999  1.00  0.00    -0.119 C  
HETATM   17  C   UNL     1     -10.106   8.551  67.209  1.00  0.00    -0.251 C  
BRANCH  17  18
HETATM   18  C   UNL     1      -9.884   7.096  66.566  1.00  0.00    -0.189 A  
HETATM   19  H   UNL     1      -8.116   3.063  64.798  1.00  0.00     0.000 HD 
HETATM   20  C   UNL     1     -10.405   4.692  66.457  1.00  0.00    -0.235 A  
HETATM   21  C   UNL     1     -10.707   5.993  66.877  1.00  0.00    -0.407 A  
HETATM   22  C   UNL     1      -8.761   6.824  65.754  1.00  0.00    -0.122 A  
HETATM   23  C   UNL     1      -9.264   4.470  65.699  1.00  0.00    -0.149 A  
HETATM   24  O   UNL     1      -8.897   3.215  65.316  1.00  0.00    -0.123 OA 
HETATM   25  C   UNL     1      -8.451   5.527  65.327  1.00  0.00    -0.147 A  
ENDBRANCH  17  18
BRANCH  14  26
HETATM   26  C   UNL     1      -9.847   8.558  69.814  1.00  0.00    -0.186 A  
HETATM   27  C   UNL     1     -11.458   7.623  71.380  1.00  0.00    -0.290 A  
HETATM   28  F   UNL     1     -11.001   7.694  73.687  1.00  0.00    -0.411 F  
HETATM   29  C   UNL     1     -11.069   7.921  70.073  1.00  0.00    -0.165 A  
HETATM   30  C   UNL     1      -9.403   8.590  72.198  1.00  0.00    -0.353 A  
HETATM   31  C   UNL     1     -10.625   7.967  72.431  1.00  0.00    -0.298 A  
HETATM   32  C   UNL     1      -9.009   8.881  70.887  1.00  0.00    -0.273 A  
ENDBRANCH  14  26
ENDBRANCH  12  13
ENDBRANCH  11  12
ENDBRANCH   3  11
TORSDOF 6
ENDMDL
MODEL       87
REMARK 921   NORMALIZED FREE ENERGY PREDICTED BY IDOCK:   -5.99 KCAL/MOL
REMARK 922        TOTAL FREE ENERGY PREDICTED BY IDOCK:   -9.90 KCAL/MOL
REMARK 923 INTER-LIGAND FREE ENERGY PREDICTED BY IDOCK:   -8.10 KCAL/MOL
REMARK 924 INTRA-LIGAND FREE ENERGY PREDICTED BY IDOCK:   -1.80 KCAL/MOL
REMARK 927      BINDING AFFINITY PREDICTED BY RF-SCORE:    0.00 PKD
ROOT
HETATM    1  O   UNL     1      -7.645  14.180  68.953  1.00  0.00    -0.124 OA 
HETATM    2  H   UNL     1      -7.585  15.114  69.116  1.00  0.00     0.000 HD 
HETATM    3  C   UNL     1      -8.874  13.885  68.293  1.00  0.00    -0.185 C  
ENDROOT
BRANCH   3   4
HETATM    4  C   UNL     1     -10.044  14.434  69.081  1.00  0.00    -0.108 A  
HETATM    5  C   UNL     1      -9.998  15.711  69.663  1.00  0.00    -0.290 A  
HETATM    6  C   UNL     1     -11.205  13.656  69.245  1.00  0.00    -0.284 A  
HETATM    7  C   UNL     1     -11.093  16.214  70.365  1.00  0.00    -0.362 A  
HETATM    8  F   UNL     1     -13.297  15.927  71.148  1.00  0.00    -0.543 F  
HETATM    9  C   UNL     1     -12.301  14.161  69.945  1.00  0.00    -0.382 A  
HETATM   10  C   UNL     1     -12.237  15.438  70.492  1.00  0.00    -0.394 A  
ENDBRANCH   3   4
BRANCH   3  11
HETATM   11  C   UNL     1      -8.972  12.380  68.030  1.00  0.00    -0.194 C  
BRANCH  11  12
HETATM   12  C   UNL     1      -7.708  11.574  68.380  1.00  0.00    -0.129 C  
BRANCH  12  13
HETATM   13  C   UNL     1      -8.094  10.105  68.533  1.00  0.00    -0.106 C  
HETATM   14  N   UNL     1      -9.698   9.599  69.743  1.00  0.00    -0.209 N  
HETATM   15  O   UNL     1      -7.702   9.651  71.000  1.00  0.00    -0.323 OA 
HETATM   16  C   UNL     1      -8.370   9.713  69.996  1.00  0.00    -0.182 C  
HETATM   17  C   UNL     1      -9.580   9.642  68.280  1.00  0.00    -0.140 C  
BRANCH  17  18
HETATM   18  C   UNL     1      -9.662   8.253  67.476  1.00  0.00    -0.212 A  
HETATM   19  H   UNL     1      -8.878   3.971  65.589  1.00  0.00     0.000 HD 
HETATM   20  C   UNL     1     -10.895   6.234  66.795  1.00  0.00    -0.367 A  
HETATM   21  C   UNL     1     -10.862   7.523  67.338  1.00  0.00    -0.272 A  
HETATM   22  C   UNL     1      -8.496   7.631  66.982  1.00  0.00    -0.125 A  
HETATM   23  C   UNL     1      -9.714   5.647  66.365  1.00  0.00    -0.156 A  
HETATM   24  O   UNL     1      -9.687   4.372  65.884  1.00  0.00    -0.174 OA 
HETATM   25  C   UNL     1      -8.518   6.342  66.435  1.00  0.00    -0.125 A  
ENDBRANCH  17  18
BRANCH  14  26
HETATM   26  C   UNL     1     -10.795   9.545  70.597  1.00  0.00    -0.306 A  
HETATM   27  C   UNL     1     -12.892  10.504  71.377  1.00  0.00    -0.551 A  
HETATM   28  F   UNL     1     -14.084   9.429  73.098  1.00  0.00    -0.230 F  
HETATM   29  C   UNL     1     -11.778  10.544  70.537  1.00  0.00    -0.443 A  
HETATM   30  C   UNL     1     -12.066   8.456  72.352  1.00  0.00    -0.443 A  
HETATM   31  C   UNL     1     -13.023   9.464  72.282  1.00  0.00    -0.400 A  
HETATM   32  C   UNL     1     -10.954   8.492  71.504  1.00  0.00    -0.337 A  
ENDBRANCH  14  26
ENDBRANCH  12  13
ENDBRANCH  11  12
ENDBRANCH   3  11
TORSDOF 6
ENDMDL
MODEL       88
REMARK 921   NORMALIZED FREE ENERGY PREDICTED BY IDOCK:   -5.95 KCAL/MOL
REMARK 922        TOTAL FREE ENERGY PREDICTED BY IDOCK:   -9.84 KCAL/MOL
REMARK 923 INTER-LIGAND FREE ENERGY PREDICTED BY IDOCK:   -8.67 KCAL/MOL
REMARK 924 INTRA-LIGAND FREE ENERGY PREDICTED BY IDOCK:   -1.16 KCAL/MOL
REMARK 927      BINDING AFFINITY PREDICTED BY RF-SCORE:    0.00 PKD
ROOT
HETATM    1  O   UNL     1     -11.329  10.831  70.904  1.00  0.00    -0.355 OA 
HETATM    2  H   UNL     1     -10.946  11.088  71.734  1.00  0.00     0.000 HD 
HETATM    3  C   UNL     1     -11.493  11.978  70.073  1.00  0.00    -0.101 C  
ENDROOT
BRANCH   3   4
HETATM    4  C   UNL     1     -12.287  13.046  70.794  1.00  0.00    -0.394 A  
HETATM    5  C   UNL     1     -13.302  12.712  71.705  1.00  0.00    -0.405 A  
HETATM    6  C   UNL     1     -12.015  14.405  70.552  1.00  0.00    -0.395 A  
HETATM    7  C   UNL     1     -14.009  13.706  72.381  1.00  0.00    -0.651 A  
HETATM    8  F   UNL     1     -14.368  15.994  72.808  1.00  0.00    -0.660 F  
HETATM    9  C   UNL     1     -12.720  15.399  71.232  1.00  0.00    -0.501 A  
HETATM   10  C   UNL     1     -13.705  15.040  72.144  1.00  0.00    -0.453 A  
ENDBRANCH   3   4
BRANCH   3  11
HETATM   11  C   UNL     1     -12.110  11.563  68.735  1.00  0.00    -0.234 C  
BRANCH  11  12
HETATM   12  C   UNL     1     -11.484  10.316  68.087  1.00  0.00    -0.118 C  
BRANCH  12  13
HETATM   13  C   UNL     1     -10.822  10.729  66.774  1.00  0.00    -0.256 C  
HETATM   14  N   UNL     1     -10.200  12.690  66.526  1.00  0.00    -0.239 N  
HETATM   15  O   UNL     1     -12.437  12.439  65.818  1.00  0.00    -0.615 OA 
HETATM   16  C   UNL     1     -11.366  12.063  66.230  1.00  0.00    -0.357 C  
HETATM   17  C   UNL     1      -9.429  11.467  66.783  1.00  0.00    -0.189 C  
BRANCH  17  18
HETATM   18  C   UNL     1      -8.447  10.939  65.626  1.00  0.00    -0.139 A  
HETATM   19  H   UNL     1      -5.051   8.815  63.082  1.00  0.00     0.000 HD 
HETATM   20  C   UNL     1      -8.082   9.985  63.387  1.00  0.00    -0.158 A  
HETATM   21  C   UNL     1      -8.902  10.610  64.332  1.00  0.00    -0.185 A  
HETATM   22  C   UNL     1      -7.092  10.653  65.900  1.00  0.00    -0.115 A  
HETATM   23  C   UNL     1      -6.769   9.683  63.719  1.00  0.00    -0.112 A  
HETATM   24  O   UNL     1      -5.949   9.022  62.854  1.00  0.00    -0.089 OA 
HETATM   25  C   UNL     1      -6.261  10.030  64.960  1.00  0.00    -0.115 A  
ENDBRANCH  17  18
BRANCH  14  26
HETATM   26  C   UNL     1      -9.884  14.041  66.628  1.00  0.00    -0.284 A  
HETATM   27  C   UNL     1      -8.907  15.874  67.898  1.00  0.00    -0.179 A  
HETATM   28  F   UNL     1      -8.905  18.041  66.981  1.00  0.00    -0.234 F  
HETATM   29  C   UNL     1      -9.244  14.525  67.779  1.00  0.00    -0.194 A  
HETATM   30  C   UNL     1      -9.839  16.285  65.709  1.00  0.00    -0.332 A  
HETATM   31  C   UNL     1      -9.215  16.743  66.865  1.00  0.00    -0.232 A  
HETATM   32  C   UNL     1     -10.169  14.931  65.587  1.00  0.00    -0.382 A  
ENDBRANCH  14  26
ENDBRANCH  12  13
ENDBRANCH  11  12
ENDBRANCH   3  11
TORSDOF 6
ENDMDL
MODEL       89
REMARK 921   NORMALIZED FREE ENERGY PREDICTED BY IDOCK:   -5.93 KCAL/MOL
REMARK 922        TOTAL FREE ENERGY PREDICTED BY IDOCK:   -9.81 KCAL/MOL
REMARK 923 INTER-LIGAND FREE ENERGY PREDICTED BY IDOCK:   -8.66 KCAL/MOL
REMARK 924 INTRA-LIGAND FREE ENERGY PREDICTED BY IDOCK:   -1.15 KCAL/MOL
REMARK 927      BINDING AFFINITY PREDICTED BY RF-SCORE:    0.00 PKD
ROOT
HETATM    1  O   UNL     1      -7.530   7.623  68.689  1.00  0.00    -0.098 OA 
HETATM    2  H   UNL     1      -7.699   6.809  69.149  1.00  0.00     0.000 HD 
HETATM    3  C   UNL     1      -8.649   7.953  67.868  1.00  0.00    -0.125 C  
ENDROOT
BRANCH   3   4
HETATM    4  C   UNL     1      -8.988   6.801  66.946  1.00  0.00    -0.133 A  
HETATM    5  C   UNL     1      -9.998   5.880  67.270  1.00  0.00    -0.179 A  
HETATM    6  C   UNL     1      -8.282   6.637  65.741  1.00  0.00    -0.135 A  
HETATM    7  C   UNL     1     -10.317   4.838  66.400  1.00  0.00    -0.312 A  
HETATM    8  F   UNL     1      -9.943   3.724  64.358  1.00  0.00    -0.149 F  
HETATM    9  C   UNL     1      -8.605   5.596  64.869  1.00  0.00    -0.086 A  
HETATM   10  C   UNL     1      -9.623   4.711  65.204  1.00  0.00    -0.128 A  
ENDBRANCH   3   4
BRANCH   3  11
HETATM   11  C   UNL     1      -8.377   9.264  67.126  1.00  0.00    -0.124 C  
BRANCH  11  12
HETATM   12  C   UNL     1      -8.489  10.535  67.987  1.00  0.00    -0.120 C  
BRANCH  12  13
HETATM   13  C   UNL     1      -9.588  11.422  67.406  1.00  0.00    -0.185 C  
HETATM   14  N   UNL     1     -10.955  12.310  68.685  1.00  0.00    -0.228 N  
HETATM   15  O   UNL     1     -11.719  10.182  68.011  1.00  0.00    -0.194 OA 
HETATM   16  C   UNL     1     -10.971  11.129  68.017  1.00  0.00    -0.252 C  
HETATM   17  C   UNL     1      -9.812  12.881  67.962  1.00  0.00    -0.223 C  
BRANCH  17  18
HETATM   18  C   UNL     1     -10.112  13.943  66.795  1.00  0.00    -0.265 A  
HETATM   19  H   UNL     1     -11.900  16.396  63.148  1.00  0.00     0.000 HD 
HETATM   20  C   UNL     1     -10.336  16.265  66.009  1.00  0.00    -0.363 A  
HETATM   21  C   UNL     1      -9.908  15.330  66.957  1.00  0.00    -0.233 A  
HETATM   22  C   UNL     1     -10.725  13.542  65.589  1.00  0.00    -0.284 A  
HETATM   23  C   UNL     1     -10.976  15.823  64.860  1.00  0.00    -0.427 A  
HETATM   24  O   UNL     1     -11.462  16.698  63.935  1.00  0.00    -1.186 OA 
HETATM   25  C   UNL     1     -11.156  14.469  64.631  1.00  0.00    -0.356 A  
ENDBRANCH  17  18
BRANCH  14  26
HETATM   26  C   UNL     1     -11.721  12.773  69.751  1.00  0.00    -0.282 A  
HETATM   27  C   UNL     1     -12.732  14.634  70.951  1.00  0.00    -0.413 A  
HETATM   28  F   UNL     1     -13.999  14.206  72.887  1.00  0.00    -0.505 F  
HETATM   29  C   UNL     1     -11.959  14.148  69.896  1.00  0.00    -0.398 A  
HETATM   30  C   UNL     1     -13.054  12.374  71.737  1.00  0.00    -0.446 A  
HETATM   31  C   UNL     1     -13.267  13.743  71.866  1.00  0.00    -0.403 A  
HETATM   32  C   UNL     1     -12.285  11.886  70.674  1.00  0.00    -0.424 A  
ENDBRANCH  14  26
ENDBRANCH  12  13
ENDBRANCH  11  12
ENDBRANCH   3  11
TORSDOF 6
ENDMDL
MODEL       90
REMARK 921   NORMALIZED FREE ENERGY PREDICTED BY IDOCK:   -5.90 KCAL/MOL
REMARK 922        TOTAL FREE ENERGY PREDICTED BY IDOCK:   -9.77 KCAL/MOL
REMARK 923 INTER-LIGAND FREE ENERGY PREDICTED BY IDOCK:   -8.46 KCAL/MOL
REMARK 924 INTRA-LIGAND FREE ENERGY PREDICTED BY IDOCK:   -1.31 KCAL/MOL
REMARK 927      BINDING AFFINITY PREDICTED BY RF-SCORE:    0.00 PKD
ROOT
HETATM    1  O   UNL     1     -11.438   6.590  66.634  1.00  0.00    -0.727 OA 
HETATM    2  H   UNL     1     -12.255   7.058  66.505  1.00  0.00     0.000 HD 
HETATM    3  C   UNL     1     -10.538   7.394  67.394  1.00  0.00    -0.301 C  
ENDROOT
BRANCH   3   4
HETATM    4  C   UNL     1     -10.357   8.748  66.741  1.00  0.00    -0.328 A  
HETATM    5  C   UNL     1      -9.650   8.889  65.535  1.00  0.00    -0.088 A  
HETATM    6  C   UNL     1     -10.898   9.896  67.347  1.00  0.00    -0.293 A  
HETATM    7  C   UNL     1      -9.513  10.138  64.932  1.00  0.00    -0.349 A  
HETATM    8  F   UNL     1      -9.964  12.451  64.948  1.00  0.00    -0.275 F  
HETATM    9  C   UNL     1     -10.762  11.146  66.741  1.00  0.00    -0.326 A  
HETATM   10  C   UNL     1     -10.077  11.254  65.536  1.00  0.00    -0.257 A  
ENDBRANCH   3   4
BRANCH   3  11
HETATM   11  C   UNL     1      -9.222   6.641  67.602  1.00  0.00    -0.110 C  
BRANCH  11  12
HETATM   12  C   UNL     1      -8.205   7.346  68.517  1.00  0.00    -0.125 C  
BRANCH  12  13
HETATM   13  C   UNL     1      -8.579   7.064  69.970  1.00  0.00    -0.141 C  
HETATM   14  N   UNL     1     -10.084   8.173  70.863  1.00  0.00    -0.187 N  
HETATM   15  O   UNL     1      -7.996   9.231  71.156  1.00  0.00    -0.292 OA 
HETATM   16  C   UNL     1      -8.741   8.350  70.802  1.00  0.00    -0.150 C  
HETATM   17  C   UNL     1     -10.080   6.790  70.367  1.00  0.00    -0.183 C  
BRANCH  17  18
HETATM   18  C   UNL     1     -10.226   5.604  71.440  1.00  0.00    -0.270 A  
HETATM   19  H   UNL     1     -11.750   2.454  74.645  1.00  0.00     0.000 HD 
HETATM   20  C   UNL     1      -9.829   3.277  72.139  1.00  0.00    -0.237 A  
HETATM   21  C   UNL     1      -9.563   4.366  71.302  1.00  0.00    -0.242 A  
HETATM   22  C   UNL     1     -11.139   5.704  72.512  1.00  0.00    -0.327 A  
HETATM   23  C   UNL     1     -10.770   3.411  73.150  1.00  0.00    -0.169 A  
HETATM   24  O   UNL     1     -11.106   2.362  73.953  1.00  0.00    -0.186 OA 
HETATM   25  C   UNL     1     -11.412   4.620  73.357  1.00  0.00    -0.335 A  
ENDBRANCH  17  18
BRANCH  14  26
HETATM   26  C   UNL     1     -11.112   9.046  71.204  1.00  0.00    -0.301 A  
HETATM   27  C   UNL     1     -12.189  11.214  70.951  1.00  0.00    -0.468 A  
HETATM   28  F   UNL     1     -14.149  11.678  72.170  1.00  0.00    -0.091 F  
HETATM   29  C   UNL     1     -11.162  10.325  70.631  1.00  0.00    -0.406 A  
HETATM   30  C   UNL     1     -13.146   9.556  72.423  1.00  0.00    -0.430 A  
HETATM   31  C   UNL     1     -13.168  10.824  71.850  1.00  0.00    -0.419 A  
HETATM   32  C   UNL     1     -12.120   8.662  72.095  1.00  0.00    -0.451 A  
ENDBRANCH  14  26
ENDBRANCH  12  13
ENDBRANCH  11  12
ENDBRANCH   3  11
TORSDOF 6
ENDMDL
MODEL       91
REMARK 921   NORMALIZED FREE ENERGY PREDICTED BY IDOCK:   -5.89 KCAL/MOL
REMARK 922        TOTAL FREE ENERGY PREDICTED BY IDOCK:   -9.77 KCAL/MOL
REMARK 923 INTER-LIGAND FREE ENERGY PREDICTED BY IDOCK:   -8.49 KCAL/MOL
REMARK 924 INTRA-LIGAND FREE ENERGY PREDICTED BY IDOCK:   -1.27 KCAL/MOL
REMARK 927      BINDING AFFINITY PREDICTED BY RF-SCORE:    0.00 PKD
ROOT
HETATM    1  O   UNL     1     -12.614  12.913  64.438  1.00  0.00    -0.598 OA 
HETATM    2  H   UNL     1     -13.201  13.649  64.311  1.00  0.00     0.000 HD 
HETATM    3  C   UNL     1     -12.201  12.855  65.801  1.00  0.00    -0.439 C  
ENDROOT
BRANCH   3   4
HETATM    4  C   UNL     1     -11.605  14.178  66.231  1.00  0.00    -0.379 A  
HETATM    5  C   UNL     1     -10.935  15.008  65.317  1.00  0.00    -0.391 A  
HETATM    6  C   UNL     1     -11.712  14.593  67.570  1.00  0.00    -0.403 A  
HETATM    7  C   UNL     1     -10.412  16.236  65.721  1.00  0.00    -0.379 A  
HETATM    8  F   UNL     1     -10.069  17.824  67.427  1.00  0.00    -0.291 F  
HETATM    9  C   UNL     1     -11.191  15.824  67.973  1.00  0.00    -0.338 A  
HETATM   10  C   UNL     1     -10.553  16.636  67.043  1.00  0.00    -0.247 A  
ENDBRANCH   3   4
BRANCH   3  11
HETATM   11  C   UNL     1     -11.256  11.669  66.005  1.00  0.00    -0.299 C  
BRANCH  11  12
HETATM   12  C   UNL     1     -11.271  11.058  67.419  1.00  0.00    -0.355 C  
BRANCH  12  13
HETATM   13  C   UNL     1     -10.319   9.865  67.444  1.00  0.00    -0.301 C  
HETATM   14  N   UNL     1     -10.330   8.594  69.081  1.00  0.00    -0.215 N  
HETATM   15  O   UNL     1      -8.808  10.364  69.422  1.00  0.00    -0.167 OA 
HETATM   16  C   UNL     1      -9.604   9.705  68.799  1.00  0.00    -0.152 C  
HETATM   17  C   UNL     1     -10.869   8.414  67.727  1.00  0.00     0.009 C  
BRANCH  17  18
HETATM   18  C   UNL     1     -10.186   7.305  66.786  1.00  0.00    -0.305 A  
HETATM   19  H   UNL     1      -7.204   4.578  64.299  1.00  0.00     0.000 HD 
HETATM   20  C   UNL     1      -9.915   4.964  66.073  1.00  0.00    -0.243 A  
HETATM   21  C   UNL     1     -10.621   5.963  66.754  1.00  0.00    -0.368 A  
HETATM   22  C   UNL     1      -9.024   7.600  66.042  1.00  0.00    -0.178 A  
HETATM   23  C   UNL     1      -8.752   5.297  65.393  1.00  0.00    -0.150 A  
HETATM   24  O   UNL     1      -8.000   4.350  64.764  1.00  0.00    -0.087 OA 
HETATM   25  C   UNL     1      -8.311   6.609  65.354  1.00  0.00    -0.130 A  
ENDBRANCH  17  18
BRANCH  14  26
HETATM   26  C   UNL     1     -10.546   7.917  70.277  1.00  0.00    -0.231 A  
HETATM   27  C   UNL     1     -10.615   5.823  71.516  1.00  0.00    -0.304 A  
HETATM   28  F   UNL     1     -11.161   5.854  73.805  1.00  0.00    -0.247 F  
HETATM   29  C   UNL     1     -10.413   6.521  70.325  1.00  0.00    -0.261 A  
HETATM   30  C   UNL     1     -11.080   7.907  72.643  1.00  0.00    -0.447 A  
HETATM   31  C   UNL     1     -10.954   6.522  72.663  1.00  0.00    -0.255 A  
HETATM   32  C   UNL     1     -10.870   8.608  71.450  1.00  0.00    -0.339 A  
ENDBRANCH  14  26
ENDBRANCH  12  13
ENDBRANCH  11  12
ENDBRANCH   3  11
TORSDOF 6
ENDMDL
MODEL       92
REMARK 921   NORMALIZED FREE ENERGY PREDICTED BY IDOCK:   -5.88 KCAL/MOL
REMARK 922        TOTAL FREE ENERGY PREDICTED BY IDOCK:   -9.75 KCAL/MOL
REMARK 923 INTER-LIGAND FREE ENERGY PREDICTED BY IDOCK:   -8.05 KCAL/MOL
REMARK 924 INTRA-LIGAND FREE ENERGY PREDICTED BY IDOCK:   -1.70 KCAL/MOL
REMARK 927      BINDING AFFINITY PREDICTED BY RF-SCORE:    0.00 PKD
ROOT
HETATM    1  O   UNL     1      -9.448  15.067  66.774  1.00  0.00    -0.222 OA 
HETATM    2  H   UNL     1      -9.311  15.448  65.914  1.00  0.00     0.000 HD 
HETATM    3  C   UNL     1      -9.350  13.647  66.694  1.00  0.00    -0.254 C  
ENDROOT
BRANCH   3   4
HETATM    4  C   UNL     1     -10.295  13.109  65.641  1.00  0.00    -0.291 A  
HETATM    5  C   UNL     1      -9.958  11.991  64.859  1.00  0.00    -0.253 A  
HETATM    6  C   UNL     1     -11.537  13.734  65.429  1.00  0.00    -0.330 A  
HETATM    7  C   UNL     1     -10.849  11.491  63.911  1.00  0.00    -0.469 A  
HETATM    8  F   UNL     1     -12.944  11.618  62.841  1.00  0.00    -0.619 F  
HETATM    9  C   UNL     1     -12.429  13.230  64.481  1.00  0.00    -0.381 A  
HETATM   10  C   UNL     1     -12.080  12.110  63.736  1.00  0.00    -0.525 A  
ENDBRANCH   3   4
BRANCH   3  11
HETATM   11  C   UNL     1      -9.571  13.034  68.078  1.00  0.00    -0.224 C  
BRANCH  11  12
HETATM   12  C   UNL     1      -8.704  11.802  68.392  1.00  0.00    -0.155 C  
BRANCH  12  13
HETATM   13  C   UNL     1      -9.561  10.777  69.131  1.00  0.00    -0.169 C  
HETATM   14  N   UNL     1      -9.820   8.892  68.311  1.00  0.00    -0.162 N  
HETATM   15  O   UNL     1     -11.490  10.366  67.532  1.00  0.00    -0.386 OA 
HETATM   16  C   UNL     1     -10.538  10.037  68.198  1.00  0.00    -0.227 C  
HETATM   17  C   UNL     1      -8.994   9.339  69.440  1.00  0.00    -0.147 C  
BRANCH  17  18
HETATM   18  C   UNL     1      -9.388   8.826  70.911  1.00  0.00    -0.266 A  
HETATM   19  H   UNL     1     -11.372   6.744  74.685  1.00  0.00     0.000 HD 
HETATM   20  C   UNL     1      -8.761   7.892  73.101  1.00  0.00    -0.278 A  
HETATM   21  C   UNL     1      -8.423   8.505  71.889  1.00  0.00    -0.234 A  
HETATM   22  C   UNL     1     -10.730   8.546  71.247  1.00  0.00    -0.302 A  
HETATM   23  C   UNL     1     -10.090   7.595  73.365  1.00  0.00    -0.319 A  
HETATM   24  O   UNL     1     -10.462   6.947  74.504  1.00  0.00    -0.166 OA 
HETATM   25  C   UNL     1     -11.080   7.935  72.458  1.00  0.00    -0.423 A  
ENDBRANCH  17  18
BRANCH  14  26
HETATM   26  C   UNL     1      -9.823   7.727  67.551  1.00  0.00    -0.171 A  
HETATM   27  C   UNL     1     -10.696   5.491  67.145  1.00  0.00    -0.265 A  
HETATM   28  F   UNL     1      -9.884   4.248  65.319  1.00  0.00    -0.159 F  
HETATM   29  C   UNL     1     -10.670   6.665  67.900  1.00  0.00    -0.341 A  
HETATM   30  C   UNL     1      -9.030   6.422  65.666  1.00  0.00    -0.022 A  
HETATM   31  C   UNL     1      -9.871   5.378  66.039  1.00  0.00    -0.094 A  
HETATM   32  C   UNL     1      -9.010   7.602  66.419  1.00  0.00    -0.198 A  
ENDBRANCH  14  26
ENDBRANCH  12  13
ENDBRANCH  11  12
ENDBRANCH   3  11
TORSDOF 6
ENDMDL
MODEL       93
REMARK 921   NORMALIZED FREE ENERGY PREDICTED BY IDOCK:   -5.88 KCAL/MOL
REMARK 922        TOTAL FREE ENERGY PREDICTED BY IDOCK:   -9.74 KCAL/MOL
REMARK 923 INTER-LIGAND FREE ENERGY PREDICTED BY IDOCK:   -7.96 KCAL/MOL
REMARK 924 INTRA-LIGAND FREE ENERGY PREDICTED BY IDOCK:   -1.79 KCAL/MOL
REMARK 927      BINDING AFFINITY PREDICTED BY RF-SCORE:    0.00 PKD
ROOT
HETATM    1  O   UNL     1      -6.445  13.795  70.176  1.00  0.00    -0.319 OA 
HETATM    2  H   UNL     1      -6.426  14.270  70.998  1.00  0.00     0.000 HD 
HETATM    3  C   UNL     1      -5.812  14.568  69.159  1.00  0.00    -0.092 C  
ENDROOT
BRANCH   3   4
HETATM    4  C   UNL     1      -6.439  15.944  69.072  1.00  0.00    -0.137 A  
HETATM    5  C   UNL     1      -5.733  17.094  69.460  1.00  0.00    -0.206 A  
HETATM    6  C   UNL     1      -7.757  16.085  68.600  1.00  0.00    -0.176 A  
HETATM    7  C   UNL     1      -6.314  18.357  69.351  1.00  0.00    -0.259 A  
HETATM    8  F   UNL     1      -8.157  19.687  68.733  1.00  0.00    -0.370 F  
HETATM    9  C   UNL     1      -8.336  17.350  68.488  1.00  0.00    -0.271 A  
HETATM   10  C   UNL     1      -7.606  18.474  68.858  1.00  0.00    -0.235 A  
ENDBRANCH   3   4
BRANCH   3  11
HETATM   11  C   UNL     1      -5.843  13.803  67.833  1.00  0.00    -0.135 C  
BRANCH  11  12
HETATM   12  C   UNL     1      -6.085  12.289  67.960  1.00  0.00    -0.070 C  
BRANCH  12  13
HETATM   13  C   UNL     1      -7.494  11.977  67.459  1.00  0.00    -0.140 C  
HETATM   14  N   UNL     1      -8.815  10.980  68.705  1.00  0.00    -0.163 N  
HETATM   15  O   UNL     1      -7.559   9.440  67.435  1.00  0.00    -0.094 OA 
HETATM   16  C   UNL     1      -7.932  10.535  67.777  1.00  0.00    -0.106 C  
HETATM   17  C   UNL     1      -8.753  12.394  68.313  1.00  0.00    -0.175 C  
BRANCH  17  18
HETATM   18  C   UNL     1      -9.944  12.978  67.407  1.00  0.00    -0.228 A  
HETATM   19  H   UNL     1     -13.355  13.694  64.188  1.00  0.00     0.000 HD 
HETATM   20  C   UNL     1     -12.129  14.089  67.185  1.00  0.00    -0.436 A  
HETATM   21  C   UNL     1     -11.006  13.736  67.942  1.00  0.00    -0.270 A  
HETATM   22  C   UNL     1     -10.047  12.641  66.040  1.00  0.00    -0.274 A  
HETATM   23  C   UNL     1     -12.205  13.695  65.858  1.00  0.00    -0.461 A  
HETATM   24  O   UNL     1     -13.303  13.965  65.097  1.00  0.00    -0.698 OA 
HETATM   25  C   UNL     1     -11.165  12.992  65.272  1.00  0.00    -0.316 A  
ENDBRANCH  17  18
BRANCH  14  26
HETATM   26  C   UNL     1      -9.483  10.317  69.730  1.00  0.00    -0.091 A  
HETATM   27  C   UNL     1     -11.552   9.850  70.925  1.00  0.00    -0.456 A  
HETATM   28  F   UNL     1     -11.522   8.363  72.748  1.00  0.00    -0.434 F  
HETATM   29  C   UNL     1     -10.860  10.513  69.910  1.00  0.00    -0.334 A  
HETATM   30  C   UNL     1      -9.500   8.772  71.600  1.00  0.00    -0.358 A  
HETATM   31  C   UNL     1     -10.864   8.991  71.765  1.00  0.00    -0.367 A  
HETATM   32  C   UNL     1      -8.808   9.430  70.577  1.00  0.00    -0.287 A  
ENDBRANCH  14  26
ENDBRANCH  12  13
ENDBRANCH  11  12
ENDBRANCH   3  11
TORSDOF 6
ENDMDL
MODEL       94
REMARK 921   NORMALIZED FREE ENERGY PREDICTED BY IDOCK:   -5.87 KCAL/MOL
REMARK 922        TOTAL FREE ENERGY PREDICTED BY IDOCK:   -9.73 KCAL/MOL
REMARK 923 INTER-LIGAND FREE ENERGY PREDICTED BY IDOCK:   -7.92 KCAL/MOL
REMARK 924 INTRA-LIGAND FREE ENERGY PREDICTED BY IDOCK:   -1.81 KCAL/MOL
REMARK 927      BINDING AFFINITY PREDICTED BY RF-SCORE:    0.00 PKD
ROOT
HETATM    1  O   UNL     1      -7.081  14.423  70.030  1.00  0.00    -0.376 OA 
HETATM    2  H   UNL     1      -7.225  15.215  70.534  1.00  0.00     0.000 HD 
HETATM    3  C   UNL     1      -6.806  14.759  68.672  1.00  0.00    -0.103 C  
ENDROOT
BRANCH   3   4
HETATM    4  C   UNL     1      -7.905  15.636  68.110  1.00  0.00    -0.129 A  
HETATM    5  C   UNL     1      -8.362  16.769  68.804  1.00  0.00    -0.248 A  
HETATM    6  C   UNL     1      -8.492  15.317  66.873  1.00  0.00    -0.286 A  
HETATM    7  C   UNL     1      -9.357  17.582  68.263  1.00  0.00    -0.281 A  
HETATM    8  F   UNL     1     -10.845  18.053  66.498  1.00  0.00    -0.310 F  
HETATM    9  C   UNL     1      -9.486  16.134  66.331  1.00  0.00    -0.323 A  
HETATM   10  C   UNL     1      -9.904  17.261  67.028  1.00  0.00    -0.281 A  
ENDBRANCH   3   4
BRANCH   3  11
HETATM   11  C   UNL     1      -6.575  13.482  67.860  1.00  0.00    -0.154 C  
BRANCH  11  12
HETATM   12  C   UNL     1      -7.318  12.237  68.377  1.00  0.00    -0.109 C  
BRANCH  12  13
HETATM   13  C   UNL     1      -8.112  11.630  67.222  1.00  0.00    -0.160 C  
HETATM   14  N   UNL     1      -9.018   9.783  67.475  1.00  0.00    -0.131 N  
HETATM   15  O   UNL     1      -6.817   9.518  66.668  1.00  0.00    -0.081 OA 
HETATM   16  C   UNL     1      -7.796  10.138  67.004  1.00  0.00    -0.102 C  
HETATM   17  C   UNL     1      -9.592  11.135  67.447  1.00  0.00    -0.168 C  
BRANCH  17  18
HETATM   18  C   UNL     1     -10.561  11.517  66.224  1.00  0.00    -0.309 A  
HETATM   19  H   UNL     1     -13.450  13.668  63.135  1.00  0.00     0.000 HD 
HETATM   20  C   UNL     1     -11.080  11.532  63.818  1.00  0.00    -0.471 A  
HETATM   21  C   UNL     1     -10.343  11.056  64.908  1.00  0.00    -0.378 A  
HETATM   22  C   UNL     1     -11.608  12.448  66.391  1.00  0.00    -0.442 A  
HETATM   23  C   UNL     1     -12.069  12.482  64.028  1.00  0.00    -0.473 A  
HETATM   24  O   UNL     1     -12.773  13.017  62.991  1.00  0.00    -0.522 OA 
HETATM   25  C   UNL     1     -12.354  12.929  65.307  1.00  0.00    -0.544 A  
ENDBRANCH  17  18
BRANCH  14  26
HETATM   26  C   UNL     1      -9.514   8.559  67.912  1.00  0.00    -0.139 A  
HETATM   27  C   UNL     1      -9.582   6.808  69.601  1.00  0.00    -0.150 A  
HETATM   28  F   UNL     1     -10.966   4.934  69.266  1.00  0.00    -0.064 F  
HETATM   29  C   UNL     1      -9.089   8.029  69.139  1.00  0.00    -0.145 A  
HETATM   30  C   UNL     1     -10.946   6.624  67.617  1.00  0.00    -0.392 A  
HETATM   31  C   UNL     1     -10.501   6.113  68.832  1.00  0.00    -0.238 A  
HETATM   32  C   UNL     1     -10.458   7.852  67.158  1.00  0.00    -0.414 A  
ENDBRANCH  14  26
ENDBRANCH  12  13
ENDBRANCH  11  12
ENDBRANCH   3  11
TORSDOF 6
ENDMDL
MODEL       95
REMARK 921   NORMALIZED FREE ENERGY PREDICTED BY IDOCK:   -5.86 KCAL/MOL
REMARK 922        TOTAL FREE ENERGY PREDICTED BY IDOCK:   -9.72 KCAL/MOL
REMARK 923 INTER-LIGAND FREE ENERGY PREDICTED BY IDOCK:   -8.40 KCAL/MOL
REMARK 924 INTRA-LIGAND FREE ENERGY PREDICTED BY IDOCK:   -1.33 KCAL/MOL
REMARK 927      BINDING AFFINITY PREDICTED BY RF-SCORE:    0.00 PKD
ROOT
HETATM    1  O   UNL     1      -8.795   9.000  64.203  1.00  0.00    -0.384 OA 
HETATM    2  H   UNL     1      -9.569   8.704  63.739  1.00  0.00     0.000 HD 
HETATM    3  C   UNL     1      -9.179   9.695  65.387  1.00  0.00    -0.238 C  
ENDROOT
BRANCH   3   4
HETATM    4  C   UNL     1     -10.143  10.814  65.055  1.00  0.00    -0.377 A  
HETATM    5  C   UNL     1     -10.349  11.231  63.729  1.00  0.00    -0.453 A  
HETATM    6  C   UNL     1     -10.849  11.460  66.085  1.00  0.00    -0.310 A  
HETATM    7  C   UNL     1     -11.259  12.246  63.435  1.00  0.00    -0.497 A  
HETATM    8  F   UNL     1     -12.853  13.811  64.184  1.00  0.00    -0.235 F  
HETATM    9  C   UNL     1     -11.763  12.473  65.790  1.00  0.00    -0.478 A  
HETATM   10  C   UNL     1     -11.963  12.852  64.467  1.00  0.00    -0.395 A  
ENDBRANCH   3   4
BRANCH   3  11
HETATM   11  C   UNL     1      -7.931  10.173  66.134  1.00  0.00    -0.125 C  
BRANCH  11  12
HETATM   12  C   UNL     1      -8.122  10.394  67.646  1.00  0.00    -0.107 C  
BRANCH  12  13
HETATM   13  C   UNL     1      -8.302   9.035  68.318  1.00  0.00    -0.121 C  
HETATM   14  N   UNL     1      -9.898   8.745  69.607  1.00  0.00    -0.179 N  
HETATM   15  O   UNL     1      -8.024   9.561  70.786  1.00  0.00    -0.251 OA 
HETATM   16  C   UNL     1      -8.622   9.153  69.820  1.00  0.00    -0.142 C  
HETATM   17  C   UNL     1      -9.684   8.280  68.231  1.00  0.00    -0.158 C  
BRANCH  17  18
HETATM   18  C   UNL     1      -9.509   6.702  67.987  1.00  0.00    -0.118 A  
HETATM   19  H   UNL     1      -9.147   1.989  68.406  1.00  0.00     0.000 HD 
HETATM   20  C   UNL     1     -10.040   4.648  66.738  1.00  0.00    -0.246 A  
HETATM   21  C   UNL     1     -10.039   6.042  66.859  1.00  0.00    -0.229 A  
HETATM   22  C   UNL     1      -8.923   5.877  68.971  1.00  0.00    -0.122 A  
HETATM   23  C   UNL     1      -9.492   3.878  67.755  1.00  0.00    -0.179 A  
HETATM   24  O   UNL     1      -9.521   2.516  67.710  1.00  0.00    -0.202 OA 
HETATM   25  C   UNL     1      -8.915   4.480  68.860  1.00  0.00    -0.151 A  
ENDBRANCH  17  18
BRANCH  14  26
HETATM   26  C   UNL     1     -11.034   8.825  70.407  1.00  0.00    -0.235 A  
HETATM   27  C   UNL     1     -12.625   7.746  71.900  1.00  0.00    -0.339 A  
HETATM   28  F   UNL     1     -14.392   9.007  72.809  1.00  0.00    -0.482 F  
HETATM   29  C   UNL     1     -11.495   7.686  71.084  1.00  0.00    -0.296 A  
HETATM   30  C   UNL     1     -12.855  10.094  71.385  1.00  0.00    -0.530 A  
HETATM   31  C   UNL     1     -13.300   8.949  72.037  1.00  0.00    -0.421 A  
HETATM   32  C   UNL     1     -11.716  10.035  70.574  1.00  0.00    -0.400 A  
ENDBRANCH  14  26
ENDBRANCH  12  13
ENDBRANCH  11  12
ENDBRANCH   3  11
TORSDOF 6
ENDMDL
MODEL       96
REMARK 921   NORMALIZED FREE ENERGY PREDICTED BY IDOCK:   -5.85 KCAL/MOL
REMARK 922        TOTAL FREE ENERGY PREDICTED BY IDOCK:   -9.71 KCAL/MOL
REMARK 923 INTER-LIGAND FREE ENERGY PREDICTED BY IDOCK:   -8.69 KCAL/MOL
REMARK 924 INTRA-LIGAND FREE ENERGY PREDICTED BY IDOCK:   -1.02 KCAL/MOL
REMARK 927      BINDING AFFINITY PREDICTED BY RF-SCORE:    0.00 PKD
ROOT
HETATM    1  O   UNL     1     -10.580  12.312  69.291  1.00  0.00    -0.435 OA 
HETATM    2  H   UNL     1     -10.846  13.043  68.746  1.00  0.00     0.000 HD 
HETATM    3  C   UNL     1     -11.719  11.761  69.947  1.00  0.00    -0.323 C  
ENDROOT
BRANCH   3   4
HETATM    4  C   UNL     1     -12.463  12.836  70.710  1.00  0.00    -0.357 A  
HETATM    5  C   UNL     1     -13.194  12.536  71.871  1.00  0.00    -0.495 A  
HETATM    6  C   UNL     1     -12.435  14.166  70.253  1.00  0.00    -0.416 A  
HETATM    7  C   UNL     1     -13.854  13.541  72.577  1.00  0.00    -0.624 A  
HETATM    8  F   UNL     1     -14.407  15.819  72.810  1.00  0.00    -0.638 F  
HETATM    9  C   UNL     1     -13.093  15.172  70.962  1.00  0.00    -0.513 A  
HETATM   10  C   UNL     1     -13.791  14.850  72.121  1.00  0.00    -0.471 A  
ENDBRANCH   3   4
BRANCH   3  11
HETATM   11  C   UNL     1     -11.291  10.582  70.825  1.00  0.00    -0.295 C  
BRANCH  11  12
HETATM   12  C   UNL     1     -11.208   9.226  70.101  1.00  0.00    -0.237 C  
BRANCH  12  13
HETATM   13  C   UNL     1     -10.221   9.353  68.943  1.00  0.00    -0.215 C  
HETATM   14  N   UNL     1      -9.586   7.642  67.960  1.00  0.00    -0.143 N  
HETATM   15  O   UNL     1      -8.169   8.118  69.785  1.00  0.00    -0.117 OA 
HETATM   16  C   UNL     1      -9.080   8.321  69.020  1.00  0.00    -0.147 C  
HETATM   17  C   UNL     1     -10.537   8.683  67.550  1.00  0.00    -0.222 C  
BRANCH  17  18
HETATM   18  C   UNL     1     -10.136   9.624  66.311  1.00  0.00    -0.322 A  
HETATM   19  H   UNL     1      -8.914  11.401  62.084  1.00  0.00     0.000 HD 
HETATM   20  C   UNL     1     -10.501  11.626  64.927  1.00  0.00    -0.339 A  
HETATM   21  C   UNL     1     -10.719  10.891  66.097  1.00  0.00    -0.225 A  
HETATM   22  C   UNL     1      -9.269   9.159  65.299  1.00  0.00    -0.243 A  
HETATM   23  C   UNL     1      -9.676  11.106  63.940  1.00  0.00    -0.286 A  
HETATM   24  O   UNL     1      -9.479  11.758  62.760  1.00  0.00    -0.347 OA 
HETATM   25  C   UNL     1      -9.041   9.889  64.125  1.00  0.00    -0.294 A  
ENDBRANCH  17  18
BRANCH  14  26
HETATM   26  C   UNL     1      -9.336   6.358  67.487  1.00  0.00    -0.118 A  
HETATM   27  C   UNL     1      -8.198   4.890  65.914  1.00  0.00    -0.113 A  
HETATM   28  F   UNL     1      -8.543   2.566  66.047  1.00  0.00    -0.092 F  
HETATM   29  C   UNL     1      -8.471   6.169  66.399  1.00  0.00    -0.123 A  
HETATM   30  C   UNL     1      -9.645   3.955  67.605  1.00  0.00    -0.205 A  
HETATM   31  C   UNL     1      -8.793   3.794  66.518  1.00  0.00    -0.125 A  
HETATM   32  C   UNL     1      -9.913   5.238  68.096  1.00  0.00    -0.209 A  
ENDBRANCH  14  26
ENDBRANCH  12  13
ENDBRANCH  11  12
ENDBRANCH   3  11
TORSDOF 6
ENDMDL
MODEL       97
REMARK 921   NORMALIZED FREE ENERGY PREDICTED BY IDOCK:   -5.84 KCAL/MOL
REMARK 922        TOTAL FREE ENERGY PREDICTED BY IDOCK:   -9.69 KCAL/MOL
REMARK 923 INTER-LIGAND FREE ENERGY PREDICTED BY IDOCK:   -7.88 KCAL/MOL
REMARK 924 INTRA-LIGAND FREE ENERGY PREDICTED BY IDOCK:   -1.81 KCAL/MOL
REMARK 927      BINDING AFFINITY PREDICTED BY RF-SCORE:    0.00 PKD
ROOT
HETATM    1  O   UNL     1     -11.529   6.582  67.353  1.00  0.00    -0.740 OA 
HETATM    2  H   UNL     1     -12.265   6.093  67.702  1.00  0.00     0.000 HD 
HETATM    3  C   UNL     1     -10.535   6.744  68.362  1.00  0.00    -0.205 C  
ENDROOT
BRANCH   3   4
HETATM    4  C   UNL     1     -11.137   7.370  69.602  1.00  0.00    -0.129 A  
HETATM    5  C   UNL     1     -10.916   8.721  69.919  1.00  0.00    -0.184 A  
HETATM    6  C   UNL     1     -11.930   6.593  70.465  1.00  0.00    -0.377 A  
HETATM    7  C   UNL     1     -11.497   9.291  71.051  1.00  0.00    -0.387 A  
HETATM    8  F   UNL     1     -12.872   9.062  72.950  1.00  0.00    -0.442 F  
HETATM    9  C   UNL     1     -12.514   7.166  71.596  1.00  0.00    -0.405 A  
HETATM   10  C   UNL     1     -12.297   8.511  71.874  1.00  0.00    -0.352 A  
ENDBRANCH   3   4
BRANCH   3  11
HETATM   11  C   UNL     1      -9.350   7.532  67.799  1.00  0.00    -0.150 C  
BRANCH  11  12
HETATM   12  C   UNL     1      -9.646   8.326  66.514  1.00  0.00    -0.312 C  
BRANCH  12  13
HETATM   13  C   UNL     1      -8.803   9.599  66.522  1.00  0.00    -0.158 C  
HETATM   14  N   UNL     1      -9.663  11.388  65.928  1.00  0.00    -0.218 N  
HETATM   15  O   UNL     1      -8.727  10.267  64.074  1.00  0.00    -0.176 OA 
HETATM   16  C   UNL     1      -8.980  10.437  65.242  1.00  0.00    -0.187 C  
HETATM   17  C   UNL     1      -9.319  10.890  67.266  1.00  0.00    -0.155 C  
BRANCH  17  18
HETATM   18  C   UNL     1      -8.151  11.643  68.072  1.00  0.00    -0.139 A  
HETATM   19  H   UNL     1      -5.500  14.685  70.569  1.00  0.00     0.000 HD 
HETATM   20  C   UNL     1      -6.364  11.643  69.766  1.00  0.00    -0.134 A  
HETATM   21  C   UNL     1      -7.260  10.966  68.932  1.00  0.00    -0.095 A  
HETATM   22  C   UNL     1      -8.049  13.051  68.056  1.00  0.00    -0.157 A  
HETATM   23  C   UNL     1      -6.334  13.030  69.747  1.00  0.00    -0.063 A  
HETATM   24  O   UNL     1      -5.521  13.736  70.582  1.00  0.00    -0.117 OA 
HETATM   25  C   UNL     1      -7.154  13.739  68.885  1.00  0.00    -0.107 A  
ENDBRANCH  17  18
BRANCH  14  26
HETATM   26  C   UNL     1     -10.477  12.428  65.492  1.00  0.00    -0.275 A  
HETATM   27  C   UNL     1     -10.710  14.723  64.715  1.00  0.00    -0.380 A  
HETATM   28  F   UNL     1     -12.847  15.549  64.177  1.00  0.00    -0.286 F  
HETATM   29  C   UNL     1      -9.913  13.669  65.164  1.00  0.00    -0.218 A  
HETATM   30  C   UNL     1     -12.659  13.310  64.903  1.00  0.00    -0.444 A  
HETATM   31  C   UNL     1     -12.077  14.536  64.595  1.00  0.00    -0.473 A  
HETATM   32  C   UNL     1     -11.858  12.251  65.346  1.00  0.00    -0.418 A  
ENDBRANCH  14  26
ENDBRANCH  12  13
ENDBRANCH  11  12
ENDBRANCH   3  11
TORSDOF 6
ENDMDL
MODEL       98
REMARK 921   NORMALIZED FREE ENERGY PREDICTED BY IDOCK:   -5.84 KCAL/MOL
REMARK 922        TOTAL FREE ENERGY PREDICTED BY IDOCK:   -9.69 KCAL/MOL
REMARK 923 INTER-LIGAND FREE ENERGY PREDICTED BY IDOCK:   -7.57 KCAL/MOL
REMARK 924 INTRA-LIGAND FREE ENERGY PREDICTED BY IDOCK:   -2.12 KCAL/MOL
REMARK 927      BINDING AFFINITY PREDICTED BY RF-SCORE:    0.00 PKD
ROOT
HETATM    1  O   UNL     1      -8.165  12.060  69.062  1.00  0.00    -0.355 OA 
HETATM    2  H   UNL     1      -8.535  12.920  69.221  1.00  0.00     0.000 HD 
HETATM    3  C   UNL     1      -8.033  11.844  67.659  1.00  0.00    -0.146 C  
ENDROOT
BRANCH   3   4
HETATM    4  C   UNL     1      -9.359  12.065  66.962  1.00  0.00    -0.191 A  
HETATM    5  C   UNL     1      -9.645  11.458  65.728  1.00  0.00    -0.260 A  
HETATM    6  C   UNL     1     -10.330  12.895  67.550  1.00  0.00    -0.223 A  
HETATM    7  C   UNL     1     -10.880  11.650  65.109  1.00  0.00    -0.346 A  
HETATM    8  F   UNL     1     -13.026  12.622  65.139  1.00  0.00    -0.550 F  
HETATM    9  C   UNL     1     -11.567  13.084  66.931  1.00  0.00    -0.419 A  
HETATM   10  C   UNL     1     -11.832  12.454  65.721  1.00  0.00    -0.406 A  
ENDBRANCH   3   4
BRANCH   3  11
HETATM   11  C   UNL     1      -7.436  10.458  67.402  1.00  0.00    -0.094 C  
BRANCH  11  12
HETATM   12  C   UNL     1      -6.942   9.718  68.658  1.00  0.00    -0.063 C  
BRANCH  12  13
HETATM   13  C   UNL     1      -7.643   8.364  68.732  1.00  0.00    -0.101 C  
HETATM   14  N   UNL     1      -9.460   8.215  69.717  1.00  0.00    -0.159 N  
HETATM   15  O   UNL     1      -7.676   7.858  71.220  1.00  0.00    -0.080 OA 
HETATM   16  C   UNL     1      -8.182   8.050  70.140  1.00  0.00    -0.120 C  
HETATM   17  C   UNL     1      -9.148   8.220  68.282  1.00  0.00    -0.135 C  
BRANCH  17  18
HETATM   18  C   UNL     1      -9.414   6.873  67.449  1.00  0.00    -0.151 A  
HETATM   19  H   UNL     1     -11.125   3.471  64.618  1.00  0.00     0.000 HD 
HETATM   20  C   UNL     1      -8.623   5.064  65.978  1.00  0.00    -0.121 A  
HETATM   21  C   UNL     1      -8.375   6.131  66.849  1.00  0.00    -0.106 A  
HETATM   22  C   UNL     1     -10.728   6.442  67.166  1.00  0.00    -0.433 A  
HETATM   23  C   UNL     1      -9.934   4.708  65.696  1.00  0.00    -0.211 A  
HETATM   24  O   UNL     1     -10.228   3.714  64.811  1.00  0.00    -0.168 OA 
HETATM   25  C   UNL     1     -10.989   5.374  66.299  1.00  0.00    -0.053 A  
ENDBRANCH  17  18
BRANCH  14  26
HETATM   26  C   UNL     1     -10.645   8.399  70.423  1.00  0.00    -0.223 A  
HETATM   27  C   UNL     1     -12.245   9.901  71.476  1.00  0.00    -0.505 A  
HETATM   28  F   UNL     1     -14.163   9.007  72.505  1.00  0.00    -0.474 F  
HETATM   29  C   UNL     1     -11.055   9.693  70.778  1.00  0.00    -0.403 A  
HETATM   30  C   UNL     1     -12.647   7.520  71.473  1.00  0.00    -0.385 A  
HETATM   31  C   UNL     1     -13.027   8.812  71.824  1.00  0.00    -0.361 A  
HETATM   32  C   UNL     1     -11.457   7.313  70.766  1.00  0.00    -0.328 A  
ENDBRANCH  14  26
ENDBRANCH  12  13
ENDBRANCH  11  12
ENDBRANCH   3  11
TORSDOF 6
ENDMDL
MODEL       99
REMARK 921   NORMALIZED FREE ENERGY PREDICTED BY IDOCK:   -5.83 KCAL/MOL
REMARK 922        TOTAL FREE ENERGY PREDICTED BY IDOCK:   -9.68 KCAL/MOL
REMARK 923 INTER-LIGAND FREE ENERGY PREDICTED BY IDOCK:   -8.00 KCAL/MOL
REMARK 924 INTRA-LIGAND FREE ENERGY PREDICTED BY IDOCK:   -1.68 KCAL/MOL
REMARK 927      BINDING AFFINITY PREDICTED BY RF-SCORE:    0.00 PKD
ROOT
HETATM    1  O   UNL     1     -13.167  14.297  70.898  1.00  0.00    -0.342 OA 
HETATM    2  H   UNL     1     -12.948  15.163  71.222  1.00  0.00     0.000 HD 
HETATM    3  C   UNL     1     -12.050  13.744  70.206  1.00  0.00    -0.355 C  
ENDROOT
BRANCH   3   4
HETATM    4  C   UNL     1     -11.578  14.689  69.121  1.00  0.00    -0.331 A  
HETATM    5  C   UNL     1     -11.579  14.307  67.769  1.00  0.00    -0.383 A  
HETATM    6  C   UNL     1     -11.122  15.975  69.461  1.00  0.00    -0.333 A  
HETATM    7  C   UNL     1     -11.165  15.196  66.778  1.00  0.00    -0.285 A  
HETATM    8  F   UNL     1     -10.366  17.331  66.183  1.00  0.00    -0.313 F  
HETATM    9  C   UNL     1     -10.712  16.865  68.468  1.00  0.00    -0.359 A  
HETATM   10  C   UNL     1     -10.744  16.469  67.136  1.00  0.00    -0.220 A  
ENDBRANCH   3   4
BRANCH   3  11
HETATM   11  C   UNL     1     -12.403  12.349  69.684  1.00  0.00    -0.040 C  
BRANCH  11  12
HETATM   12  C   UNL     1     -11.468  11.221  70.156  1.00  0.00    -0.336 C  
BRANCH  12  13
HETATM   13  C   UNL     1     -10.471  10.916  69.040  1.00  0.00    -0.244 C  
HETATM   14  N   UNL     1     -10.091   8.944  68.531  1.00  0.00    -0.183 N  
HETATM   15  O   UNL     1      -8.622   9.652  70.236  1.00  0.00    -0.203 OA 
HETATM   16  C   UNL     1      -9.493   9.786  69.410  1.00  0.00    -0.201 C  
HETATM   17  C   UNL     1     -10.879   9.975  67.843  1.00  0.00    -0.271 C  
BRANCH  17  18
HETATM   18  C   UNL     1     -10.343  10.513  66.427  1.00  0.00    -0.283 A  
HETATM   19  H   UNL     1      -8.573  10.985  62.050  1.00  0.00     0.000 HD 
HETATM   20  C   UNL     1     -10.602  11.923  64.427  1.00  0.00    -0.366 A  
HETATM   21  C   UNL     1     -10.959  11.576  65.734  1.00  0.00    -0.305 A  
HETATM   22  C   UNL     1      -9.299   9.849  65.747  1.00  0.00    -0.259 A  
HETATM   23  C   UNL     1      -9.601  11.210  63.783  1.00  0.00    -0.271 A  
HETATM   24  O   UNL     1      -9.258  11.473  62.490  1.00  0.00    -0.302 OA 
HETATM   25  C   UNL     1      -8.932  10.190  64.439  1.00  0.00    -0.264 A  
ENDBRANCH  17  18
BRANCH  14  26
HETATM   26  C   UNL     1     -10.029   7.561  68.396  1.00  0.00    -0.170 A  
HETATM   27  C   UNL     1     -10.488   5.561  67.087  1.00  0.00    -0.321 A  
HETATM   28  F   UNL     1      -9.860   3.457  67.934  1.00  0.00    -0.230 F  
HETATM   29  C   UNL     1     -10.549   6.946  67.247  1.00  0.00    -0.393 A  
HETATM   30  C   UNL     1      -9.376   5.375  69.222  1.00  0.00    -0.159 A  
HETATM   31  C   UNL     1      -9.909   4.787  68.079  1.00  0.00    -0.126 A  
HETATM   32  C   UNL     1      -9.430   6.765  69.379  1.00  0.00    -0.147 A  
ENDBRANCH  14  26
ENDBRANCH  12  13
ENDBRANCH  11  12
ENDBRANCH   3  11
TORSDOF 6
ENDMDL
MODEL      100
REMARK 921   NORMALIZED FREE ENERGY PREDICTED BY IDOCK:   -5.82 KCAL/MOL
REMARK 922        TOTAL FREE ENERGY PREDICTED BY IDOCK:   -9.67 KCAL/MOL
REMARK 923 INTER-LIGAND FREE ENERGY PREDICTED BY IDOCK:   -8.37 KCAL/MOL
REMARK 924 INTRA-LIGAND FREE ENERGY PREDICTED BY IDOCK:   -1.30 KCAL/MOL
REMARK 927      BINDING AFFINITY PREDICTED BY RF-SCORE:    0.00 PKD
ROOT
HETATM    1  O   UNL     1     -12.251  11.604  69.518  1.00  0.00    -0.271 OA 
HETATM    2  H   UNL     1     -12.056  11.257  70.380  1.00  0.00     0.000 HD 
HETATM    3  C   UNL     1     -11.737  12.929  69.404  1.00  0.00    -0.321 C  
ENDROOT
BRANCH   3   4
HETATM    4  C   UNL     1     -12.253  13.797  70.531  1.00  0.00    -0.440 A  
HETATM    5  C   UNL     1     -11.978  15.174  70.578  1.00  0.00    -0.371 A  
HETATM    6  C   UNL     1     -13.021  13.225  71.562  1.00  0.00    -0.426 A  
HETATM    7  C   UNL     1     -12.481  15.966  71.609  1.00  0.00    -0.502 A  
HETATM    8  F   UNL     1     -13.759  16.147  73.580  1.00  0.00    -0.633 F  
HETATM    9  C   UNL     1     -13.527  14.020  72.591  1.00  0.00    -0.650 A  
HETATM   10  C   UNL     1     -13.258  15.383  72.601  1.00  0.00    -0.468 A  
ENDBRANCH   3   4
BRANCH   3  11
HETATM   11  C   UNL     1     -12.052  13.488  68.015  1.00  0.00    -0.298 C  
BRANCH  11  12
HETATM   12  C   UNL     1     -12.027  12.454  66.874  1.00  0.00    -0.266 C  
BRANCH  12  13
HETATM   13  C   UNL     1     -10.632  12.447  66.254  1.00  0.00    -0.277 C  
HETATM   14  N   UNL     1      -9.250  13.872  66.849  1.00  0.00    -0.252 N  
HETATM   15  O   UNL     1     -10.523  14.668  65.029  1.00  0.00    -0.393 OA 
HETATM   16  C   UNL     1     -10.158  13.853  65.841  1.00  0.00    -0.317 C  
HETATM   17  C   UNL     1      -9.351  12.444  67.175  1.00  0.00    -0.199 C  
BRANCH  17  18
HETATM   18  C   UNL     1      -8.203  11.463  66.627  1.00  0.00    -0.163 A  
HETATM   19  H   UNL     1      -5.367   8.702  64.010  1.00  0.00     0.000 HD 
HETATM   20  C   UNL     1      -5.836  10.810  66.456  1.00  0.00    -0.093 A  
HETATM   21  C   UNL     1      -6.863  11.541  67.062  1.00  0.00    -0.147 A  
HETATM   22  C   UNL     1      -8.463  10.557  65.576  1.00  0.00    -0.177 A  
HETATM   23  C   UNL     1      -6.135   9.967  65.396  1.00  0.00    -0.084 A  
HETATM   24  O   UNL     1      -5.161   9.278  64.736  1.00  0.00    -0.047 OA 
HETATM   25  C   UNL     1      -7.443   9.818  64.964  1.00  0.00    -0.127 A  
ENDBRANCH  17  18
BRANCH  14  26
HETATM   26  C   UNL     1      -8.535  14.919  67.422  1.00  0.00    -0.195 A  
HETATM   27  C   UNL     1      -7.564  15.959  69.397  1.00  0.00    -0.210 A  
HETATM   28  F   UNL     1      -6.406  17.996  69.178  1.00  0.00    -0.206 F  
HETATM   29  C   UNL     1      -8.288  14.924  68.803  1.00  0.00    -0.170 A  
HETATM   30  C   UNL     1      -7.313  17.006  67.236  1.00  0.00    -0.190 A  
HETATM   31  C   UNL     1      -7.089  16.995  68.609  1.00  0.00    -0.210 A  
HETATM   32  C   UNL     1      -8.031  15.964  66.639  1.00  0.00    -0.270 A  
ENDBRANCH  14  26
ENDBRANCH  12  13
ENDBRANCH  11  12
ENDBRANCH   3  11
TORSDOF 6
ENDMDL
MODEL      101
REMARK 921   NORMALIZED FREE ENERGY PREDICTED BY IDOCK:   -5.82 KCAL/MOL
REMARK 922        TOTAL FREE ENERGY PREDICTED BY IDOCK:   -9.67 KCAL/MOL
REMARK 923 INTER-LIGAND FREE ENERGY PREDICTED BY IDOCK:   -7.79 KCAL/MOL
REMARK 924 INTRA-LIGAND FREE ENERGY PREDICTED BY IDOCK:   -1.87 KCAL/MOL
REMARK 927      BINDING AFFINITY PREDICTED BY RF-SCORE:    0.00 PKD
ROOT
HETATM    1  O   UNL     1     -12.230  15.599  68.624  1.00  0.00    -0.560 OA 
HETATM    2  H   UNL     1     -12.181  16.321  68.009  1.00  0.00     0.000 HD 
HETATM    3  C   UNL     1     -11.263  14.609  68.284  1.00  0.00    -0.285 C  
ENDROOT
BRANCH   3   4
HETATM    4  C   UNL     1     -11.429  14.179  66.842  1.00  0.00    -0.373 A  
HETATM    5  C   UNL     1     -12.693  13.869  66.313  1.00  0.00    -0.260 A  
HETATM    6  C   UNL     1     -10.302  14.080  66.006  1.00  0.00    -0.312 A  
HETATM    7  C   UNL     1     -12.834  13.499  64.976  1.00  0.00    -0.330 A  
HETATM    8  F   UNL     1     -11.848  13.098  62.875  1.00  0.00    -0.523 F  
HETATM    9  C   UNL     1     -10.446  13.713  64.667  1.00  0.00    -0.442 A  
HETATM   10  C   UNL     1     -11.710  13.432  64.164  1.00  0.00    -0.419 A  
ENDBRANCH   3   4
BRANCH   3  11
HETATM   11  C   UNL     1     -11.343  13.446  69.276  1.00  0.00    -0.314 C  
BRANCH  11  12
HETATM   12  C   UNL     1     -10.174  12.446  69.204  1.00  0.00     0.205 C  
BRANCH  12  13
HETATM   13  C   UNL     1     -10.746  11.031  69.169  1.00  0.00    -0.274 C  
HETATM   14  N   UNL     1      -9.784   9.576  68.050  1.00  0.00    -0.144 N  
HETATM   15  O   UNL     1     -11.376  10.713  66.731  1.00  0.00    -0.201 OA 
HETATM   16  C   UNL     1     -10.785  10.440  67.747  1.00  0.00    -0.279 C  
HETATM   17  C   UNL     1      -9.827   9.792  69.502  1.00  0.00    -0.214 C  
BRANCH  17  18
HETATM   18  C   UNL     1     -10.577   8.696  70.405  1.00  0.00    -0.244 A  
HETATM   19  H   UNL     1     -12.167   4.720  72.449  1.00  0.00     0.000 HD 
HETATM   20  C   UNL     1     -11.332   7.870  72.598  1.00  0.00    -0.468 A  
HETATM   21  C   UNL     1     -10.843   8.892  71.777  1.00  0.00    -0.436 A  
HETATM   22  C   UNL     1     -10.887   7.419  69.888  1.00  0.00    -0.259 A  
HETATM   23  C   UNL     1     -11.577   6.619  72.052  1.00  0.00    -0.301 A  
HETATM   24  O   UNL     1     -11.999   5.576  72.822  1.00  0.00    -0.237 OA 
HETATM   25  C   UNL     1     -11.379   6.390  70.701  1.00  0.00    -0.419 A  
ENDBRANCH  17  18
BRANCH  14  26
HETATM   26  C   UNL     1      -8.953   8.812  67.237  1.00  0.00    -0.132 A  
HETATM   27  C   UNL     1      -6.709   8.118  66.599  1.00  0.00    -0.063 A  
HETATM   28  F   UNL     1      -6.434   6.556  64.861  1.00  0.00    -0.037 F  
HETATM   29  C   UNL     1      -7.561   8.883  67.396  1.00  0.00    -0.089 A  
HETATM   30  C   UNL     1      -8.626   7.186  65.467  1.00  0.00    -0.093 A  
HETATM   31  C   UNL     1      -7.249   7.282  65.636  1.00  0.00    -0.070 A  
HETATM   32  C   UNL     1      -9.481   7.947  66.273  1.00  0.00    -0.220 A  
ENDBRANCH  14  26
ENDBRANCH  12  13
ENDBRANCH  11  12
ENDBRANCH   3  11
TORSDOF 6
ENDMDL
MODEL      102
REMARK 921   NORMALIZED FREE ENERGY PREDICTED BY IDOCK:   -5.81 KCAL/MOL
REMARK 922        TOTAL FREE ENERGY PREDICTED BY IDOCK:   -9.66 KCAL/MOL
REMARK 923 INTER-LIGAND FREE ENERGY PREDICTED BY IDOCK:   -7.01 KCAL/MOL
REMARK 924 INTRA-LIGAND FREE ENERGY PREDICTED BY IDOCK:   -2.65 KCAL/MOL
REMARK 927      BINDING AFFINITY PREDICTED BY RF-SCORE:    0.00 PKD
ROOT
HETATM    1  O   UNL     1      -9.747   6.773  71.269  1.00  0.00    -0.173 OA 
HETATM    2  H   UNL     1      -9.540   5.859  71.429  1.00  0.00     0.000 HD 
HETATM    3  C   UNL     1     -10.852   6.867  70.373  1.00  0.00    -0.261 C  
ENDROOT
BRANCH   3   4
HETATM    4  C   UNL     1     -10.577   6.083  69.108  1.00  0.00    -0.362 A  
HETATM    5  C   UNL     1     -11.148   6.456  67.879  1.00  0.00    -0.370 A  
HETATM    6  C   UNL     1      -9.739   4.955  69.150  1.00  0.00    -0.252 A  
HETATM    7  C   UNL     1     -10.866   5.740  66.717  1.00  0.00    -0.327 A  
HETATM    8  F   UNL     1      -9.727   3.969  65.660  1.00  0.00    -0.155 F  
HETATM    9  C   UNL     1      -9.454   4.241  67.985  1.00  0.00    -0.212 A  
HETATM   10  C   UNL     1     -10.015   4.644  66.779  1.00  0.00    -0.225 A  
ENDBRANCH   3   4
BRANCH   3  11
HETATM   11  C   UNL     1     -11.185   8.338  70.115  1.00  0.00    -0.132 C  
BRANCH  11  12
HETATM   12  C   UNL     1     -10.128   9.342  70.611  1.00  0.00    -0.356 C  
BRANCH  12  13
HETATM   13  C   UNL     1      -9.844  10.342  69.492  1.00  0.00    -0.244 C  
HETATM   14  N   UNL     1      -8.750   9.731  67.841  1.00  0.00    -0.125 N  
HETATM   15  O   UNL     1      -7.314  10.551  69.524  1.00  0.00    -0.120 OA 
HETATM   16  C   UNL     1      -8.379  10.299  69.016  1.00  0.00    -0.148 C  
HETATM   17  C   UNL     1     -10.188   9.982  67.996  1.00  0.00    -0.181 C  
BRANCH  17  18
HETATM   18  C   UNL     1     -10.827  11.221  67.198  1.00  0.00    -0.321 A  
HETATM   19  H   UNL     1     -12.976  14.068  64.068  1.00  0.00     0.000 HD 
HETATM   20  C   UNL     1     -12.225  13.246  67.135  1.00  0.00    -0.281 A  
HETATM   21  C   UNL     1     -11.519  12.267  67.843  1.00  0.00    -0.390 A  
HETATM   22  C   UNL     1     -10.838  11.247  65.786  1.00  0.00    -0.257 A  
HETATM   23  C   UNL     1     -12.243  13.202  65.748  1.00  0.00    -0.456 A  
HETATM   24  O   UNL     1     -12.964  14.098  65.017  1.00  0.00    -0.721 OA 
HETATM   25  C   UNL     1     -11.539  12.223  65.067  1.00  0.00    -0.394 A  
ENDBRANCH  17  18
BRANCH  14  26
HETATM   26  C   UNL     1      -8.010   9.066  66.869  1.00  0.00    -0.105 A  
HETATM   27  C   UNL     1      -6.692   9.139  64.824  1.00  0.00    -0.078 A  
HETATM   28  F   UNL     1      -5.791   7.145  63.959  1.00  0.00    -0.034 F  
HETATM   29  C   UNL     1      -7.446   9.785  65.804  1.00  0.00    -0.105 A  
HETATM   30  C   UNL     1      -7.043   7.037  65.957  1.00  0.00    -0.073 A  
HETATM   31  C   UNL     1      -6.503   7.769  64.905  1.00  0.00    -0.044 A  
HETATM   32  C   UNL     1      -7.793   7.686  66.945  1.00  0.00    -0.111 A  
ENDBRANCH  14  26
ENDBRANCH  12  13
ENDBRANCH  11  12
ENDBRANCH   3  11
TORSDOF 6
ENDMDL
MODEL      103
REMARK 921   NORMALIZED FREE ENERGY PREDICTED BY IDOCK:   -5.79 KCAL/MOL
REMARK 922        TOTAL FREE ENERGY PREDICTED BY IDOCK:   -9.63 KCAL/MOL
REMARK 923 INTER-LIGAND FREE ENERGY PREDICTED BY IDOCK:   -9.22 KCAL/MOL
REMARK 924 INTRA-LIGAND FREE ENERGY PREDICTED BY IDOCK:   -0.41 KCAL/MOL
REMARK 927      BINDING AFFINITY PREDICTED BY RF-SCORE:    0.00 PKD
ROOT
HETATM    1  O   UNL     1     -12.728  14.281  67.956  1.00  0.00    -0.278 OA 
HETATM    2  H   UNL     1     -12.928  13.478  67.490  1.00  0.00     0.000 HD 
HETATM    3  C   UNL     1     -11.721  14.032  68.935  1.00  0.00    -0.340 C  
ENDROOT
BRANCH   3   4
HETATM    4  C   UNL     1     -12.138  12.899  69.847  1.00  0.00    -0.335 A  
HETATM    5  C   UNL     1     -11.925  11.557  69.489  1.00  0.00    -0.402 A  
HETATM    6  C   UNL     1     -12.758  13.181  71.078  1.00  0.00    -0.361 A  
HETATM    7  C   UNL     1     -12.291  10.523  70.350  1.00  0.00    -0.409 A  
HETATM    8  F   UNL     1     -13.211   9.837  72.407  1.00  0.00    -0.471 F  
HETATM    9  C   UNL     1     -13.121  12.145  71.940  1.00  0.00    -0.475 A  
HETATM   10  C   UNL     1     -12.878  10.827  71.571  1.00  0.00    -0.462 A  
ENDBRANCH   3   4
BRANCH   3  11
HETATM   11  C   UNL     1     -11.399  15.327  69.685  1.00  0.00    -0.304 C  
BRANCH  11  12
HETATM   12  C   UNL     1      -9.951  15.440  70.196  1.00  0.00    -0.082 C  
BRANCH  12  13
HETATM   13  C   UNL     1      -9.029  15.670  69.001  1.00  0.00    -0.239 C  
HETATM   14  N   UNL     1      -9.351  14.604  67.253  1.00  0.00    -0.201 N  
HETATM   15  O   UNL     1      -7.904  13.416  68.688  1.00  0.00    -0.132 OA 
HETATM   16  C   UNL     1      -8.577  14.355  68.339  1.00  0.00    -0.174 C  
HETATM   17  C   UNL     1      -9.632  16.007  67.583  1.00  0.00    -0.218 C  
BRANCH  17  18
HETATM   18  C   UNL     1      -8.798  17.145  66.815  1.00  0.00    -0.270 A  
HETATM   19  H   UNL     1      -6.717  21.169  65.402  1.00  0.00     0.000 HD 
HETATM   20  C   UNL     1      -6.745  17.919  65.698  1.00  0.00    -0.181 A  
HETATM   21  C   UNL     1      -7.549  16.894  66.208  1.00  0.00    -0.312 A  
HETATM   22  C   UNL     1      -9.222  18.491  66.829  1.00  0.00    -0.297 A  
HETATM   23  C   UNL     1      -7.187  19.232  65.777  1.00  0.00    -0.264 A  
HETATM   24  O   UNL     1      -6.415  20.270  65.347  1.00  0.00    -0.236 OA 
HETATM   25  C   UNL     1      -8.427  19.525  66.319  1.00  0.00    -0.370 A  
ENDBRANCH  17  18
BRANCH  14  26
HETATM   26  C   UNL     1      -9.788  13.774  66.226  1.00  0.00    -0.303 A  
HETATM   27  C   UNL     1      -9.985  11.541  65.277  1.00  0.00    -0.302 A  
HETATM   28  F   UNL     1     -11.078  11.257  63.212  1.00  0.00    -0.443 F  
HETATM   29  C   UNL     1      -9.546  12.394  66.290  1.00  0.00    -0.245 A  
HETATM   30  C   UNL     1     -10.928  13.434  64.112  1.00  0.00    -0.329 A  
HETATM   31  C   UNL     1     -10.666  12.070  64.193  1.00  0.00    -0.357 A  
HETATM   32  C   UNL     1     -10.495  14.288  65.133  1.00  0.00    -0.432 A  
ENDBRANCH  14  26
ENDBRANCH  12  13
ENDBRANCH  11  12
ENDBRANCH   3  11
TORSDOF 6
ENDMDL
MODEL      104
REMARK 921   NORMALIZED FREE ENERGY PREDICTED BY IDOCK:   -5.78 KCAL/MOL
REMARK 922        TOTAL FREE ENERGY PREDICTED BY IDOCK:   -9.62 KCAL/MOL
REMARK 923 INTER-LIGAND FREE ENERGY PREDICTED BY IDOCK:   -7.74 KCAL/MOL
REMARK 924 INTRA-LIGAND FREE ENERGY PREDICTED BY IDOCK:   -1.88 KCAL/MOL
REMARK 927      BINDING AFFINITY PREDICTED BY RF-SCORE:    0.00 PKD
ROOT
HETATM    1  O   UNL     1      -7.754   9.220  64.319  1.00  0.00    -0.111 OA 
HETATM    2  H   UNL     1      -7.770   8.350  63.939  1.00  0.00     0.000 HD 
HETATM    3  C   UNL     1      -7.338   9.144  65.681  1.00  0.00    -0.086 C  
ENDROOT
BRANCH   3   4
HETATM    4  C   UNL     1      -8.209   8.171  66.447  1.00  0.00    -0.108 A  
HETATM    5  C   UNL     1      -7.652   7.224  67.322  1.00  0.00    -0.104 A  
HETATM    6  C   UNL     1      -9.606   8.203  66.284  1.00  0.00    -0.248 A  
HETATM    7  C   UNL     1      -8.468   6.351  68.040  1.00  0.00    -0.118 A  
HETATM    8  F   UNL     1     -10.631   5.594  68.586  1.00  0.00    -0.238 F  
HETATM    9  C   UNL     1     -10.422   7.330  67.006  1.00  0.00    -0.398 A  
HETATM   10  C   UNL     1      -9.845   6.418  67.881  1.00  0.00    -0.123 A  
ENDBRANCH   3   4
BRANCH   3  11
HETATM   11  C   UNL     1      -7.312  10.546  66.293  1.00  0.00    -0.133 C  
BRANCH  11  12
HETATM   12  C   UNL     1      -6.910  10.602  67.778  1.00  0.00    -0.073 C  
BRANCH  12  13
HETATM   13  C   UNL     1      -8.055  11.229  68.570  1.00  0.00    -0.148 C  
HETATM   14  N   UNL     1      -9.495  12.332  67.568  1.00  0.00    -0.178 N  
HETATM   15  O   UNL     1      -7.706  13.720  68.229  1.00  0.00    -0.119 OA 
HETATM   16  C   UNL     1      -8.329  12.688  68.162  1.00  0.00    -0.175 C  
HETATM   17  C   UNL     1      -9.551  10.980  68.139  1.00  0.00    -0.171 C  
BRANCH  17  18
HETATM   18  C   UNL     1     -10.520  10.732  69.396  1.00  0.00    -0.229 A  
HETATM   19  H   UNL     1     -14.160  10.508  72.432  1.00  0.00     0.000 HD 
HETATM   20  C   UNL     1     -11.423   9.269  71.158  1.00  0.00    -0.403 A  
HETATM   21  C   UNL     1     -10.466   9.560  70.180  1.00  0.00    -0.299 A  
HETATM   22  C   UNL     1     -11.568  11.630  69.693  1.00  0.00    -0.401 A  
HETATM   23  C   UNL     1     -12.461  10.163  71.380  1.00  0.00    -0.423 A  
HETATM   24  O   UNL     1     -13.449   9.897  72.281  1.00  0.00    -0.430 OA 
HETATM   25  C   UNL     1     -12.530  11.350  70.671  1.00  0.00    -0.419 A  
ENDBRANCH  17  18
BRANCH  14  26
HETATM   26  C   UNL     1     -10.308  13.004  66.661  1.00  0.00    -0.260 A  
HETATM   27  C   UNL     1     -12.065  12.944  64.977  1.00  0.00    -0.480 A  
HETATM   28  F   UNL     1     -12.758  14.949  63.960  1.00  0.00    -0.433 F  
HETATM   29  C   UNL     1     -11.233  12.288  65.886  1.00  0.00    -0.381 A  
HETATM   30  C   UNL     1     -11.068  15.051  65.605  1.00  0.00    -0.349 A  
HETATM   31  C   UNL     1     -11.970  14.319  64.840  1.00  0.00    -0.425 A  
HETATM   32  C   UNL     1     -10.240  14.395  66.523  1.00  0.00    -0.276 A  
ENDBRANCH  14  26
ENDBRANCH  12  13
ENDBRANCH  11  12
ENDBRANCH   3  11
TORSDOF 6
ENDMDL
MODEL      105
REMARK 921   NORMALIZED FREE ENERGY PREDICTED BY IDOCK:   -5.77 KCAL/MOL
REMARK 922        TOTAL FREE ENERGY PREDICTED BY IDOCK:   -9.60 KCAL/MOL
REMARK 923 INTER-LIGAND FREE ENERGY PREDICTED BY IDOCK:   -8.67 KCAL/MOL
REMARK 924 INTRA-LIGAND FREE ENERGY PREDICTED BY IDOCK:   -0.93 KCAL/MOL
REMARK 927      BINDING AFFINITY PREDICTED BY RF-SCORE:    0.00 PKD
ROOT
HETATM    1  O   UNL     1     -12.029   6.520  69.194  1.00  0.00    -0.463 OA 
HETATM    2  H   UNL     1     -11.897   6.256  68.291  1.00  0.00     0.000 HD 
HETATM    3  C   UNL     1     -10.785   6.495  69.891  1.00  0.00    -0.257 C  
ENDROOT
BRANCH   3   4
HETATM    4  C   UNL     1     -10.129   5.138  69.753  1.00  0.00    -0.336 A  
HETATM    5  C   UNL     1      -9.845   4.588  68.491  1.00  0.00    -0.160 A  
HETATM    6  C   UNL     1      -9.795   4.400  70.903  1.00  0.00    -0.266 A  
HETATM    7  C   UNL     1      -9.217   3.348  68.379  1.00  0.00    -0.230 A  
HETATM    8  F   UNL     1      -8.253   1.470  69.424  1.00  0.00    -0.050 F  
HETATM    9  C   UNL     1      -9.164   3.161  70.790  1.00  0.00    -0.205 A  
HETATM   10  C   UNL     1      -8.875   2.650  69.530  1.00  0.00    -0.093 A  
ENDBRANCH   3   4
BRANCH   3  11
HETATM   11  C   UNL     1     -10.999   6.920  71.346  1.00  0.00    -0.270 C  
BRANCH  11  12
HETATM   12  C   UNL     1     -12.204   7.848  71.583  1.00  0.00    -0.339 C  
BRANCH  12  13
HETATM   13  C   UNL     1     -11.707   9.291  71.624  1.00  0.00    -0.462 C  
HETATM   14  N   UNL     1     -10.632  10.039  70.017  1.00  0.00    -0.276 N  
HETATM   15  O   UNL     1      -9.180   9.042  71.587  1.00  0.00    -0.288 OA 
HETATM   16  C   UNL     1     -10.243   9.428  71.164  1.00  0.00    -0.291 C  
HETATM   17  C   UNL     1     -12.021  10.275  70.432  1.00  0.00    -0.303 C  
BRANCH  17  18
HETATM   18  C   UNL     1     -12.416  11.748  70.938  1.00  0.00    -0.416 A  
HETATM   19  H   UNL     1     -13.534  16.344  71.311  1.00  0.00     0.000 HD 
HETATM   20  C   UNL     1     -13.805  13.249  72.308  1.00  0.00    -0.637 A  
HETATM   21  C   UNL     1     -13.329  11.972  71.989  1.00  0.00    -0.447 A  
HETATM   22  C   UNL     1     -11.959  12.896  70.256  1.00  0.00    -0.359 A  
HETATM   23  C   UNL     1     -13.361  14.341  71.577  1.00  0.00    -0.354 A  
HETATM   24  O   UNL     1     -13.838  15.596  71.811  1.00  0.00    -0.474 OA 
HETATM   25  C   UNL     1     -12.426  14.179  70.568  1.00  0.00    -0.431 A  
ENDBRANCH  17  18
BRANCH  14  26
HETATM   26  C   UNL     1      -9.952  10.277  68.827  1.00  0.00    -0.179 A  
HETATM   27  C   UNL     1      -9.502   9.669  66.513  1.00  0.00    -0.233 A  
HETATM   28  F   UNL     1      -7.972  10.945  65.261  1.00  0.00    -0.139 F  
HETATM   29  C   UNL     1     -10.166   9.442  67.720  1.00  0.00    -0.273 A  
HETATM   30  C   UNL     1      -8.401  11.580  67.494  1.00  0.00    -0.143 A  
HETATM   31  C   UNL     1      -8.620  10.732  66.413  1.00  0.00    -0.158 A  
HETATM   32  C   UNL     1      -9.072  11.357  68.701  1.00  0.00    -0.138 A  
ENDBRANCH  14  26
ENDBRANCH  12  13
ENDBRANCH  11  12
ENDBRANCH   3  11
TORSDOF 6
ENDMDL
MODEL      106
REMARK 921   NORMALIZED FREE ENERGY PREDICTED BY IDOCK:   -5.75 KCAL/MOL
REMARK 922        TOTAL FREE ENERGY PREDICTED BY IDOCK:   -9.57 KCAL/MOL
REMARK 923 INTER-LIGAND FREE ENERGY PREDICTED BY IDOCK:   -8.60 KCAL/MOL
REMARK 924 INTRA-LIGAND FREE ENERGY PREDICTED BY IDOCK:   -0.97 KCAL/MOL
REMARK 927      BINDING AFFINITY PREDICTED BY RF-SCORE:    0.00 PKD
ROOT
HETATM    1  O   UNL     1     -10.700  17.814  65.404  1.00  0.00    -0.626 OA 
HETATM    2  H   UNL     1     -10.630  18.725  65.146  1.00  0.00     0.000 HD 
HETATM    3  C   UNL     1     -10.508  17.695  66.812  1.00  0.00    -0.289 C  
ENDROOT
BRANCH   3   4
HETATM    4  C   UNL     1      -9.201  18.337  67.224  1.00  0.00    -0.256 A  
HETATM    5  C   UNL     1      -8.528  17.939  68.392  1.00  0.00    -0.300 A  
HETATM    6  C   UNL     1      -8.640  19.356  66.435  1.00  0.00    -0.372 A  
HETATM    7  C   UNL     1      -7.312  18.521  68.747  1.00  0.00    -0.312 A  
HETATM    8  F   UNL     1      -5.588  20.053  68.267  1.00  0.00    -0.213 F  
HETATM    9  C   UNL     1      -7.421  19.936  66.789  1.00  0.00    -0.280 A  
HETATM   10  C   UNL     1      -6.766  19.508  67.938  1.00  0.00    -0.237 A  
ENDBRANCH   3   4
BRANCH   3  11
HETATM   11  C   UNL     1     -10.621  16.226  67.227  1.00  0.00    -0.298 C  
BRANCH  11  12
HETATM   12  C   UNL     1     -11.169  15.282  66.142  1.00  0.00    -0.225 C  
BRANCH  12  13
HETATM   13  C   UNL     1     -10.248  14.069  66.041  1.00  0.00    -0.313 C  
HETATM   14  N   UNL     1     -10.435  12.535  67.422  1.00  0.00    -0.218 N  
HETATM   15  O   UNL     1      -8.916  14.164  68.200  1.00  0.00    -0.174 OA 
HETATM   16  C   UNL     1      -9.664  13.651  67.404  1.00  0.00    -0.228 C  
HETATM   17  C   UNL     1     -10.850  12.611  66.016  1.00  0.00    -0.277 C  
BRANCH  17  18
HETATM   18  C   UNL     1     -10.106  11.658  64.958  1.00  0.00    -0.305 A  
HETATM   19  H   UNL     1      -7.991   8.069  62.686  1.00  0.00     0.000 HD 
HETATM   20  C   UNL     1      -9.877  10.732  62.689  1.00  0.00    -0.166 A  
HETATM   21  C   UNL     1     -10.394  11.681  63.577  1.00  0.00    -0.488 A  
HETATM   22  C   UNL     1      -9.216  10.651  65.391  1.00  0.00    -0.226 A  
HETATM   23  C   UNL     1      -9.043   9.733  63.171  1.00  0.00    -0.243 A  
HETATM   24  O   UNL     1      -8.562   8.753  62.356  1.00  0.00    -0.212 OA 
HETATM   25  C   UNL     1      -8.691   9.697  64.510  1.00  0.00    -0.227 A  
ENDBRANCH  17  18
BRANCH  14  26
HETATM   26  C   UNL     1     -10.774  11.670  68.457  1.00  0.00    -0.218 A  
HETATM   27  C   UNL     1     -10.156   9.858  69.961  1.00  0.00    -0.308 A  
HETATM   28  F   UNL     1     -11.721   9.082  71.538  1.00  0.00    -0.317 F  
HETATM   29  C   UNL     1      -9.841  10.729  68.917  1.00  0.00    -0.209 A  
HETATM   30  C   UNL     1     -12.349  10.857  70.114  1.00  0.00    -0.399 A  
HETATM   31  C   UNL     1     -11.410   9.925  70.545  1.00  0.00    -0.327 A  
HETATM   32  C   UNL     1     -12.029  11.736  69.072  1.00  0.00    -0.341 A  
ENDBRANCH  14  26
ENDBRANCH  12  13
ENDBRANCH  11  12
ENDBRANCH   3  11
TORSDOF 6
ENDMDL
MODEL      107
REMARK 921   NORMALIZED FREE ENERGY PREDICTED BY IDOCK:   -5.75 KCAL/MOL
REMARK 922        TOTAL FREE ENERGY PREDICTED BY IDOCK:   -9.57 KCAL/MOL
REMARK 923 INTER-LIGAND FREE ENERGY PREDICTED BY IDOCK:   -8.67 KCAL/MOL
REMARK 924 INTRA-LIGAND FREE ENERGY PREDICTED BY IDOCK:   -0.90 KCAL/MOL
REMARK 927      BINDING AFFINITY PREDICTED BY RF-SCORE:    0.00 PKD
ROOT
HETATM    1  O   UNL     1     -12.848   9.038  70.596  1.00  0.00    -0.480 OA 
HETATM    2  H   UNL     1     -13.370   8.307  70.905  1.00  0.00     0.000 HD 
HETATM    3  C   UNL     1     -11.562   8.575  70.193  1.00  0.00     0.097 C  
ENDROOT
BRANCH   3   4
HETATM    4  C   UNL     1     -10.903   7.799  71.314  1.00  0.00    -0.255 A  
HETATM    5  C   UNL     1     -10.170   8.450  72.320  1.00  0.00    -0.396 A  
HETATM    6  C   UNL     1     -11.015   6.398  71.356  1.00  0.00    -0.316 A  
HETATM    7  C   UNL     1      -9.589   7.724  73.360  1.00  0.00    -0.352 A  
HETATM    8  F   UNL     1      -9.196   5.649  74.404  1.00  0.00    -0.119 F  
HETATM    9  C   UNL     1     -10.436   5.673  72.399  1.00  0.00    -0.255 A  
HETATM   10  C   UNL     1      -9.735   6.344  73.394  1.00  0.00    -0.165 A  
ENDBRANCH   3   4
BRANCH   3  11
HETATM   11  C   UNL     1     -10.720   9.753  69.696  1.00  0.00    -0.264 C  
BRANCH  11  12
HETATM   12  C   UNL     1     -11.450  11.108  69.665  1.00  0.00    -0.383 C  
BRANCH  12  13
HETATM   13  C   UNL     1     -10.851  11.959  68.548  1.00  0.00    -0.257 C  
HETATM   14  N   UNL     1      -9.991  11.023  66.911  1.00  0.00    -0.191 N  
HETATM   15  O   UNL     1      -8.386  11.354  68.609  1.00  0.00    -0.153 OA 
HETATM   16  C   UNL     1      -9.471  11.451  68.089  1.00  0.00    -0.181 C  
HETATM   17  C   UNL     1     -11.277  11.719  67.048  1.00  0.00    -0.322 C  
BRANCH  17  18
HETATM   18  C   UNL     1     -11.481  13.092  66.240  1.00  0.00    -0.379 A  
HETATM   19  H   UNL     1     -10.960  17.277  64.065  1.00  0.00     0.000 HD 
HETATM   20  C   UNL     1     -12.355  14.337  64.305  1.00  0.00    -0.407 A  
HETATM   21  C   UNL     1     -12.318  13.193  65.109  1.00  0.00    -0.525 A  
HETATM   22  C   UNL     1     -10.718  14.238  66.553  1.00  0.00    -0.297 A  
HETATM   23  C   UNL     1     -11.552  15.421  64.628  1.00  0.00    -0.311 A  
HETATM   24  O   UNL     1     -11.510  16.535  63.843  1.00  0.00    -1.145 OA 
HETATM   25  C   UNL     1     -10.749  15.390  65.756  1.00  0.00    -0.360 A  
ENDBRANCH  17  18
BRANCH  14  26
HETATM   26  C   UNL     1      -9.491  10.152  65.949  1.00  0.00    -0.196 A  
HETATM   27  C   UNL     1      -8.555   7.980  65.372  1.00  0.00    -0.138 A  
HETATM   28  F   UNL     1      -8.011   7.515  63.131  1.00  0.00    -0.128 F  
HETATM   29  C   UNL     1      -9.050   8.874  66.323  1.00  0.00    -0.236 A  
HETATM   30  C   UNL     1      -8.939   9.624  63.647  1.00  0.00    -0.248 A  
HETATM   31  C   UNL     1      -8.497   8.366  64.043  1.00  0.00     0.012 A  
HETATM   32  C   UNL     1      -9.443  10.517  64.599  1.00  0.00    -0.316 A  
ENDBRANCH  14  26
ENDBRANCH  12  13
ENDBRANCH  11  12
ENDBRANCH   3  11
TORSDOF 6
ENDMDL
MODEL      108
REMARK 921   NORMALIZED FREE ENERGY PREDICTED BY IDOCK:   -5.73 KCAL/MOL
REMARK 922        TOTAL FREE ENERGY PREDICTED BY IDOCK:   -9.54 KCAL/MOL
REMARK 923 INTER-LIGAND FREE ENERGY PREDICTED BY IDOCK:   -8.20 KCAL/MOL
REMARK 924 INTRA-LIGAND FREE ENERGY PREDICTED BY IDOCK:   -1.35 KCAL/MOL
REMARK 927      BINDING AFFINITY PREDICTED BY RF-SCORE:    0.00 PKD
ROOT
HETATM    1  O   UNL     1     -12.707   8.464  71.515  1.00  0.00    -0.311 OA 
HETATM    2  H   UNL     1     -13.362   7.839  71.802  1.00  0.00     0.000 HD 
HETATM    3  C   UNL     1     -11.868   7.864  70.530  1.00  0.00    -0.023 C  
ENDROOT
BRANCH   3   4
HETATM    4  C   UNL     1     -11.275   6.574  71.054  1.00  0.00    -0.362 A  
HETATM    5  C   UNL     1     -10.493   5.743  70.235  1.00  0.00    -0.349 A  
HETATM    6  C   UNL     1     -11.510   6.184  72.385  1.00  0.00    -0.349 A  
HETATM    7  C   UNL     1      -9.932   4.570  70.738  1.00  0.00    -0.269 A  
HETATM    8  F   UNL     1      -9.603   3.103  72.552  1.00  0.00    -0.142 F  
HETATM    9  C   UNL     1     -10.946   5.011  72.888  1.00  0.00    -0.342 A  
HETATM   10  C   UNL     1     -10.157   4.219  72.062  1.00  0.00    -0.174 A  
ENDBRANCH   3   4
BRANCH   3  11
HETATM   11  C   UNL     1     -10.812   8.872  70.067  1.00  0.00    -0.239 C  
BRANCH  11  12
HETATM   12  C   UNL     1     -11.264  10.343  70.084  1.00  0.00    -0.393 C  
BRANCH  12  13
HETATM   13  C   UNL     1     -10.705  11.039  68.845  1.00  0.00    -0.249 C  
HETATM   14  N   UNL     1      -9.780   9.906  67.377  1.00  0.00    -0.157 N  
HETATM   15  O   UNL     1      -8.210  10.592  68.999  1.00  0.00    -0.138 OA 
HETATM   16  C   UNL     1      -9.295  10.544  68.472  1.00  0.00    -0.168 C  
HETATM   17  C   UNL     1     -11.104  10.540  67.404  1.00  0.00    -0.252 C  
BRANCH  17  18
HETATM   18  C   UNL     1     -11.379  11.754  66.388  1.00  0.00    -0.361 A  
HETATM   19  H   UNL     1     -12.457  14.487  62.662  1.00  0.00     0.000 HD 
HETATM   20  C   UNL     1     -12.376  13.946  65.878  1.00  0.00    -0.517 A  
HETATM   21  C   UNL     1     -11.977  12.966  66.793  1.00  0.00    -0.418 A  
HETATM   22  C   UNL     1     -11.151  11.606  65.002  1.00  0.00    -0.312 A  
HETATM   23  C   UNL     1     -12.172  13.734  64.523  1.00  0.00    -0.403 A  
HETATM   24  O   UNL     1     -12.596  14.633  63.590  1.00  0.00    -0.773 OA 
HETATM   25  C   UNL     1     -11.545  12.582  64.078  1.00  0.00    -0.485 A  
ENDBRANCH  17  18
BRANCH  14  26
HETATM   26  C   UNL     1      -9.224   8.923  66.564  1.00  0.00    -0.183 A  
HETATM   27  C   UNL     1      -7.925   8.319  64.597  1.00  0.00    -0.145 A  
HETATM   28  F   UNL     1      -7.538   6.047  64.122  1.00  0.00    -0.065 F  
HETATM   29  C   UNL     1      -8.500   9.288  65.420  1.00  0.00    -0.157 A  
HETATM   30  C   UNL     1      -8.782   6.594  66.053  1.00  0.00    -0.155 A  
HETATM   31  C   UNL     1      -8.078   6.980  64.917  1.00  0.00    -0.107 A  
HETATM   32  C   UNL     1      -9.351   7.566  66.882  1.00  0.00    -0.197 A  
ENDBRANCH  14  26
ENDBRANCH  12  13
ENDBRANCH  11  12
ENDBRANCH   3  11
TORSDOF 6
ENDMDL
MODEL      109
REMARK 921   NORMALIZED FREE ENERGY PREDICTED BY IDOCK:   -5.71 KCAL/MOL
REMARK 922        TOTAL FREE ENERGY PREDICTED BY IDOCK:   -9.52 KCAL/MOL
REMARK 923 INTER-LIGAND FREE ENERGY PREDICTED BY IDOCK:   -8.41 KCAL/MOL
REMARK 924 INTRA-LIGAND FREE ENERGY PREDICTED BY IDOCK:   -1.12 KCAL/MOL
REMARK 927      BINDING AFFINITY PREDICTED BY RF-SCORE:    0.00 PKD
ROOT
HETATM    1  O   UNL     1     -11.727   6.573  67.870  1.00  0.00    -0.531 OA 
HETATM    2  H   UNL     1     -12.317   5.830  67.838  1.00  0.00     0.000 HD 
HETATM    3  C   UNL     1     -10.797   6.496  66.791  1.00  0.00    -0.275 C  
ENDROOT
BRANCH   3   4
HETATM    4  C   UNL     1     -10.083   5.161  66.801  1.00  0.00    -0.264 A  
HETATM    5  C   UNL     1      -9.644   4.577  68.001  1.00  0.00    -0.209 A  
HETATM    6  C   UNL     1      -9.844   4.486  65.591  1.00  0.00    -0.227 A  
HETATM    7  C   UNL     1      -9.010   3.335  67.997  1.00  0.00    -0.188 A  
HETATM    8  F   UNL     1      -8.218   1.474  66.790  1.00  0.00    -0.067 F  
HETATM    9  C   UNL     1      -9.213   3.241  65.589  1.00  0.00    -0.150 A  
HETATM   10  C   UNL     1      -8.808   2.675  66.793  1.00  0.00    -0.131 A  
ENDBRANCH   3   4
BRANCH   3  11
HETATM   11  C   UNL     1      -9.845   7.694  66.842  1.00  0.00    -0.304 C  
BRANCH  11  12
HETATM   12  C   UNL     1     -10.498   9.029  67.242  1.00  0.00    -0.343 C  
BRANCH  12  13
HETATM   13  C   UNL     1     -10.116   9.345  68.686  1.00  0.00    -0.208 C  
HETATM   14  N   UNL     1     -10.960  10.989  69.622  1.00  0.00    -0.247 N  
HETATM   15  O   UNL     1      -8.973  11.605  68.509  1.00  0.00    -0.172 OA 
HETATM   16  C   UNL     1      -9.817  10.839  68.909  1.00  0.00    -0.199 C  
HETATM   17  C   UNL     1     -11.234   9.555  69.778  1.00  0.00    -0.144 C  
BRANCH  17  18
HETATM   18  C   UNL     1     -10.862   8.865  71.180  1.00  0.00    -0.352 A  
HETATM   19  H   UNL     1     -10.563   6.064  74.999  1.00  0.00     0.000 HD 
HETATM   20  C   UNL     1      -9.197   8.049  72.799  1.00  0.00    -0.318 A  
HETATM   21  C   UNL     1      -9.541   8.803  71.672  1.00  0.00    -0.363 A  
HETATM   22  C   UNL     1     -11.836   8.166  71.926  1.00  0.00    -0.366 A  
HETATM   23  C   UNL     1     -10.183   7.342  73.471  1.00  0.00    -0.349 A  
HETATM   24  O   UNL     1      -9.887   6.548  74.539  1.00  0.00    -0.288 OA 
HETATM   25  C   UNL     1     -11.503   7.410  73.057  1.00  0.00    -0.210 A  
ENDBRANCH  17  18
BRANCH  14  26
HETATM   26  C   UNL     1     -11.666  12.128  69.999  1.00  0.00    -0.252 A  
HETATM   27  C   UNL     1     -13.265  13.206  71.483  1.00  0.00    -0.368 A  
HETATM   28  F   UNL     1     -13.777  15.482  71.171  1.00  0.00    -0.520 F  
HETATM   29  C   UNL     1     -12.555  12.074  71.082  1.00  0.00    -0.372 A  
HETATM   30  C   UNL     1     -12.203  14.477  69.727  1.00  0.00    -0.360 A  
HETATM   31  C   UNL     1     -13.088  14.397  70.797  1.00  0.00    -0.285 A  
HETATM   32  C   UNL     1     -11.485  13.344  69.330  1.00  0.00    -0.345 A  
ENDBRANCH  14  26
ENDBRANCH  12  13
ENDBRANCH  11  12
ENDBRANCH   3  11
TORSDOF 6
ENDMDL
MODEL      110
REMARK 921   NORMALIZED FREE ENERGY PREDICTED BY IDOCK:   -5.70 KCAL/MOL
REMARK 922        TOTAL FREE ENERGY PREDICTED BY IDOCK:   -9.50 KCAL/MOL
REMARK 923 INTER-LIGAND FREE ENERGY PREDICTED BY IDOCK:   -7.35 KCAL/MOL
REMARK 924 INTRA-LIGAND FREE ENERGY PREDICTED BY IDOCK:   -2.15 KCAL/MOL
REMARK 927      BINDING AFFINITY PREDICTED BY RF-SCORE:    0.00 PKD
ROOT
HETATM    1  O   UNL     1     -11.321   6.275  66.932  1.00  0.00    -0.615 OA 
HETATM    2  H   UNL     1     -12.182   6.176  67.319  1.00  0.00     0.000 HD 
HETATM    3  C   UNL     1     -10.369   5.513  67.672  1.00  0.00    -0.200 C  
ENDROOT
BRANCH   3   4
HETATM    4  C   UNL     1     -10.415   5.888  69.138  1.00  0.00    -0.338 A  
HETATM    5  C   UNL     1      -9.365   5.555  70.010  1.00  0.00    -0.187 A  
HETATM    6  C   UNL     1     -11.528   6.578  69.650  1.00  0.00    -0.417 A  
HETATM    7  C   UNL     1      -9.409   5.928  71.352  1.00  0.00    -0.165 A  
HETATM    8  F   UNL     1     -10.541   7.008  73.114  1.00  0.00    -0.232 F  
HETATM    9  C   UNL     1     -11.569   6.954  70.994  1.00  0.00    -0.374 A  
HETATM   10  C   UNL     1     -10.507   6.631  71.830  1.00  0.00    -0.209 A  
ENDBRANCH   3   4
BRANCH   3  11
HETATM   11  C   UNL     1      -8.981   5.674  67.048  1.00  0.00    -0.114 C  
BRANCH  11  12
HETATM   12  C   UNL     1      -8.916   6.619  65.835  1.00  0.00    -0.096 C  
BRANCH  12  13
HETATM   13  C   UNL     1      -8.260   7.927  66.270  1.00  0.00    -0.117 C  
HETATM   14  N   UNL     1      -9.324   9.698  66.108  1.00  0.00    -0.178 N  
HETATM   15  O   UNL     1      -8.136   9.265  64.116  1.00  0.00    -0.128 OA 
HETATM   16  C   UNL     1      -8.477   9.066  65.257  1.00  0.00    -0.166 C  
HETATM   17  C   UNL     1      -8.992   8.885  67.286  1.00  0.00    -0.128 C  
BRANCH  17  18
HETATM   18  C   UNL     1      -7.989   9.510  68.373  1.00  0.00    -0.093 A  
HETATM   19  H   UNL     1      -5.386  12.353  71.141  1.00  0.00     0.000 HD 
HETATM   20  C   UNL     1      -7.103   9.619  70.667  1.00  0.00    -0.117 A  
HETATM   21  C   UNL     1      -7.838   8.972  69.669  1.00  0.00    -0.088 A  
HETATM   22  C   UNL     1      -7.304  10.718  68.119  1.00  0.00    -0.088 A  
HETATM   23  C   UNL     1      -6.486  10.829  70.382  1.00  0.00    -0.074 A  
HETATM   24  O   UNL     1      -5.808  11.525  71.337  1.00  0.00    -0.346 OA 
HETATM   25  C   UNL     1      -6.563  11.374  69.111  1.00  0.00    -0.095 A  
ENDBRANCH  17  18
BRANCH  14  26
HETATM   26  C   UNL     1     -10.248  10.716  65.898  1.00  0.00    -0.251 A  
HETATM   27  C   UNL     1     -11.770  12.384  66.805  1.00  0.00    -0.430 A  
HETATM   28  F   UNL     1     -12.990  13.756  65.333  1.00  0.00    -0.512 F  
HETATM   29  C   UNL     1     -10.848  11.354  66.993  1.00  0.00    -0.331 A  
HETATM   30  C   UNL     1     -11.506  12.166  64.415  1.00  0.00    -0.417 A  
HETATM   31  C   UNL     1     -12.096  12.776  65.518  1.00  0.00    -0.465 A  
HETATM   32  C   UNL     1     -10.575  11.139  64.604  1.00  0.00    -0.386 A  
ENDBRANCH  14  26
ENDBRANCH  12  13
ENDBRANCH  11  12
ENDBRANCH   3  11
TORSDOF 6
ENDMDL
MODEL      111
REMARK 921   NORMALIZED FREE ENERGY PREDICTED BY IDOCK:   -5.67 KCAL/MOL
REMARK 922        TOTAL FREE ENERGY PREDICTED BY IDOCK:   -9.47 KCAL/MOL
REMARK 923 INTER-LIGAND FREE ENERGY PREDICTED BY IDOCK:   -8.45 KCAL/MOL
REMARK 924 INTRA-LIGAND FREE ENERGY PREDICTED BY IDOCK:   -1.02 KCAL/MOL
REMARK 927      BINDING AFFINITY PREDICTED BY RF-SCORE:    0.00 PKD
ROOT
HETATM    1  O   UNL     1      -7.322  10.753  68.626  1.00  0.00    -0.085 OA 
HETATM    2  H   UNL     1      -7.211   9.810  68.616  1.00  0.00     0.000 HD 
HETATM    3  C   UNL     1      -8.483  11.110  67.880  1.00  0.00    -0.131 C  
ENDROOT
BRANCH   3   4
HETATM    4  C   UNL     1      -8.415  10.529  66.484  1.00  0.00    -0.139 A  
HETATM    5  C   UNL     1      -9.580  10.194  65.774  1.00  0.00    -0.288 A  
HETATM    6  C   UNL     1      -7.166  10.310  65.876  1.00  0.00    -0.131 A  
HETATM    7  C   UNL     1      -9.503   9.683  64.479  1.00  0.00    -0.182 A  
HETATM    8  F   UNL     1      -8.185   9.028  62.639  1.00  0.00    -0.139 F  
HETATM    9  C   UNL     1      -7.090   9.802  64.578  1.00  0.00    -0.128 A  
HETATM   10  C   UNL     1      -8.259   9.499  63.890  1.00  0.00    -0.161 A  
ENDBRANCH   3   4
BRANCH   3  11
HETATM   11  C   UNL     1      -8.662  12.630  67.896  1.00  0.00    -0.181 C  
BRANCH  11  12
HETATM   12  C   UNL     1      -9.188  13.238  66.583  1.00  0.00    -0.222 C  
BRANCH  12  13
HETATM   13  C   UNL     1      -9.741  14.630  66.879  1.00  0.00    -0.249 C  
HETATM   14  N   UNL     1     -10.800  14.950  68.631  1.00  0.00    -0.242 N  
HETATM   15  O   UNL     1     -12.254  14.270  66.902  1.00  0.00    -0.438 OA 
HETATM   16  C   UNL     1     -11.196  14.597  67.382  1.00  0.00    -0.342 C  
HETATM   17  C   UNL     1      -9.433  15.334  68.256  1.00  0.00    -0.205 C  
BRANCH  17  18
HETATM   18  C   UNL     1      -9.108  16.898  68.089  1.00  0.00    -0.231 A  
HETATM   19  H   UNL     1      -7.058  21.152  67.624  1.00  0.00     0.000 HD 
HETATM   20  C   UNL     1      -9.481  19.063  66.979  1.00  0.00    -0.358 A  
HETATM   21  C   UNL     1      -9.870  17.750  67.262  1.00  0.00    -0.312 A  
HETATM   22  C   UNL     1      -7.951  17.465  68.667  1.00  0.00    -0.271 A  
HETATM   23  C   UNL     1      -8.311  19.560  67.535  1.00  0.00    -0.297 A  
HETATM   24  O   UNL     1      -7.859  20.813  67.243  1.00  0.00    -0.337 OA 
HETATM   25  C   UNL     1      -7.553  18.780  68.393  1.00  0.00    -0.329 A  
ENDBRANCH  17  18
BRANCH  14  26
HETATM   26  C   UNL     1     -11.456  14.885  69.856  1.00  0.00    -0.284 A  
HETATM   27  C   UNL     1     -12.073  15.939  71.961  1.00  0.00    -0.591 A  
HETATM   28  F   UNL     1     -13.399  14.753  73.502  1.00  0.00    -0.530 F  
HETATM   29  C   UNL     1     -11.413  15.979  70.732  1.00  0.00    -0.444 A  
HETATM   30  C   UNL     1     -12.841  13.706  71.460  1.00  0.00    -0.445 A  
HETATM   31  C   UNL     1     -12.775  14.800  72.318  1.00  0.00    -0.332 A  
HETATM   32  C   UNL     1     -12.187  13.750  70.224  1.00  0.00    -0.429 A  
ENDBRANCH  14  26
ENDBRANCH  12  13
ENDBRANCH  11  12
ENDBRANCH   3  11
TORSDOF 6
ENDMDL
MODEL      112
REMARK 921   NORMALIZED FREE ENERGY PREDICTED BY IDOCK:   -5.64 KCAL/MOL
REMARK 922        TOTAL FREE ENERGY PREDICTED BY IDOCK:   -9.43 KCAL/MOL
REMARK 923 INTER-LIGAND FREE ENERGY PREDICTED BY IDOCK:   -8.83 KCAL/MOL
REMARK 924 INTRA-LIGAND FREE ENERGY PREDICTED BY IDOCK:   -0.60 KCAL/MOL
REMARK 927      BINDING AFFINITY PREDICTED BY RF-SCORE:    0.00 PKD
ROOT
HETATM    1  O   UNL     1     -11.026  17.096  67.924  1.00  0.00    -0.343 OA 
HETATM    2  H   UNL     1     -11.088  17.326  68.844  1.00  0.00     0.000 HD 
HETATM    3  C   UNL     1     -10.064  16.058  67.750  1.00  0.00    -0.243 C  
ENDROOT
BRANCH   3   4
HETATM    4  C   UNL     1      -8.737  16.458  68.360  1.00  0.00    -0.213 A  
HETATM    5  C   UNL     1      -8.173  17.721  68.117  1.00  0.00    -0.260 A  
HETATM    6  C   UNL     1      -8.044  15.553  69.184  1.00  0.00    -0.244 A  
HETATM    7  C   UNL     1      -6.962  18.085  68.705  1.00  0.00    -0.264 A  
HETATM    8  F   UNL     1      -5.156  17.540  70.117  1.00  0.00    -0.156 F  
HETATM    9  C   UNL     1      -6.834  15.920  69.775  1.00  0.00    -0.101 A  
HETATM   10  C   UNL     1      -6.308  17.184  69.535  1.00  0.00    -0.230 A  
ENDBRANCH   3   4
BRANCH   3  11
HETATM   11  C   UNL     1      -9.963  15.690  66.268  1.00  0.00    -0.315 C  
BRANCH  11  12
HETATM   12  C   UNL     1     -11.247  15.103  65.654  1.00  0.00    -0.296 C  
BRANCH  12  13
HETATM   13  C   UNL     1     -11.848  14.105  66.641  1.00  0.00    -0.447 C  
HETATM   14  N   UNL     1     -10.996  12.225  66.826  1.00  0.00    -0.263 N  
HETATM   15  O   UNL     1     -12.653  12.217  65.147  1.00  0.00    -0.585 OA 
HETATM   16  C   UNL     1     -11.998  12.695  66.041  1.00  0.00    -0.417 C  
HETATM   17  C   UNL     1     -10.933  13.395  67.711  1.00  0.00    -0.262 C  
BRANCH  17  18
HETATM   18  C   UNL     1     -11.639  13.290  69.150  1.00  0.00    -0.370 A  
HETATM   19  H   UNL     1     -14.409  13.799  72.969  1.00  0.00     0.000 HD 
HETATM   20  C   UNL     1     -12.593  11.953  70.984  1.00  0.00    -0.381 A  
HETATM   21  C   UNL     1     -11.823  12.063  69.820  1.00  0.00    -0.401 A  
HETATM   22  C   UNL     1     -12.231  14.422  69.752  1.00  0.00    -0.370 A  
HETATM   23  C   UNL     1     -13.193  13.087  71.511  1.00  0.00    -0.272 A  
HETATM   24  O   UNL     1     -13.999  13.022  72.608  1.00  0.00    -0.657 OA 
HETATM   25  C   UNL     1     -13.002  14.324  70.918  1.00  0.00    -0.395 A  
ENDBRANCH  17  18
BRANCH  14  26
HETATM   26  C   UNL     1     -10.239  11.061  66.751  1.00  0.00    -0.229 A  
HETATM   27  C   UNL     1      -8.794   9.427  67.832  1.00  0.00    -0.124 A  
HETATM   28  F   UNL     1      -7.986   7.599  66.590  1.00  0.00    -0.098 F  
HETATM   29  C   UNL     1      -9.551  10.599  67.883  1.00  0.00    -0.174 A  
HETATM   30  C   UNL     1      -9.404   9.149  65.513  1.00  0.00    -0.287 A  
HETATM   31  C   UNL     1      -8.722   8.717  66.646  1.00  0.00    -0.123 A  
HETATM   32  C   UNL     1     -10.170  10.319  65.566  1.00  0.00    -0.308 A  
ENDBRANCH  14  26
ENDBRANCH  12  13
ENDBRANCH  11  12
ENDBRANCH   3  11
TORSDOF 6
ENDMDL
MODEL      113
REMARK 921   NORMALIZED FREE ENERGY PREDICTED BY IDOCK:   -5.62 KCAL/MOL
REMARK 922        TOTAL FREE ENERGY PREDICTED BY IDOCK:   -9.40 KCAL/MOL
REMARK 923 INTER-LIGAND FREE ENERGY PREDICTED BY IDOCK:   -7.85 KCAL/MOL
REMARK 924 INTRA-LIGAND FREE ENERGY PREDICTED BY IDOCK:   -1.55 KCAL/MOL
REMARK 927      BINDING AFFINITY PREDICTED BY RF-SCORE:    0.00 PKD
ROOT
HETATM    1  O   UNL     1     -11.822  15.886  63.892  1.00  0.00    -1.153 OA 
HETATM    2  H   UNL     1     -11.109  15.948  63.267  1.00  0.00     0.000 HD 
HETATM    3  C   UNL     1     -11.458  15.006  64.953  1.00  0.00    -0.399 C  
ENDROOT
BRANCH   3   4
HETATM    4  C   UNL     1     -11.026  13.663  64.402  1.00  0.00    -0.379 A  
HETATM    5  C   UNL     1     -11.819  12.964  63.477  1.00  0.00    -0.605 A  
HETATM    6  C   UNL     1      -9.812  13.092  64.822  1.00  0.00    -0.036 A  
HETATM    7  C   UNL     1     -11.397  11.740  62.960  1.00  0.00    -0.008 A  
HETATM    8  F   UNL     1      -9.766  10.043  62.857  1.00  0.00    -0.318 F  
HETATM    9  C   UNL     1      -9.389  11.868  64.300  1.00  0.00     0.184 A  
HETATM   10  C   UNL     1     -10.182  11.208  63.370  1.00  0.00    -0.380 A  
ENDBRANCH   3   4
BRANCH   3  11
HETATM   11  C   UNL     1     -12.607  14.907  65.960  1.00  0.00     0.382 C  
BRANCH  11  12
HETATM   12  C   UNL     1     -12.648  13.602  66.776  1.00  0.00    -0.082 C  
BRANCH  12  13
HETATM   13  C   UNL     1     -11.517  13.632  67.800  1.00  0.00    -0.351 C  
HETATM   14  N   UNL     1     -11.433  12.165  69.261  1.00  0.00    -0.287 N  
HETATM   15  O   UNL     1     -12.730  13.991  70.001  1.00  0.00    -0.276 OA 
HETATM   16  C   UNL     1     -12.012  13.392  69.239  1.00  0.00    -0.317 C  
HETATM   17  C   UNL     1     -10.630  12.352  68.046  1.00  0.00    -0.221 C  
BRANCH  17  18
HETATM   18  C   UNL     1      -9.073  12.706  68.218  1.00  0.00    -0.181 A  
HETATM   19  H   UNL     1      -4.885  14.633  69.346  1.00  0.00     0.000 HD 
HETATM   20  C   UNL     1      -6.759  12.035  68.722  1.00  0.00    -0.087 A  
HETATM   21  C   UNL     1      -8.082  11.718  68.395  1.00  0.00    -0.150 A  
HETATM   22  C   UNL     1      -8.642  14.046  68.334  1.00  0.00    -0.174 A  
HETATM   23  C   UNL     1      -6.395  13.366  68.870  1.00  0.00    -0.099 A  
HETATM   24  O   UNL     1      -5.134  13.722  69.244  1.00  0.00    -0.081 OA 
HETATM   25  C   UNL     1      -7.320  14.375  68.658  1.00  0.00    -0.123 A  
ENDBRANCH  17  18
BRANCH  14  26
HETATM   26  C   UNL     1     -11.614  11.079  70.111  1.00  0.00    -0.334 A  
HETATM   27  C   UNL     1     -13.004   9.874  71.705  1.00  0.00    -0.549 A  
HETATM   28  F   UNL     1     -12.212   7.866  72.641  1.00  0.00    -0.331 F  
HETATM   29  C   UNL     1     -12.797  10.961  70.855  1.00  0.00    -0.418 A  
HETATM   30  C   UNL     1     -10.845   8.992  71.081  1.00  0.00    -0.364 A  
HETATM   31  C   UNL     1     -12.023   8.903  71.816  1.00  0.00    -0.359 A  
HETATM   32  C   UNL     1     -10.642  10.078  70.222  1.00  0.00    -0.354 A  
ENDBRANCH  14  26
ENDBRANCH  12  13
ENDBRANCH  11  12
ENDBRANCH   3  11
TORSDOF 6
ENDMDL
MODEL      114
REMARK 921   NORMALIZED FREE ENERGY PREDICTED BY IDOCK:   -5.60 KCAL/MOL
REMARK 922        TOTAL FREE ENERGY PREDICTED BY IDOCK:   -9.37 KCAL/MOL
REMARK 923 INTER-LIGAND FREE ENERGY PREDICTED BY IDOCK:   -8.05 KCAL/MOL
REMARK 924 INTRA-LIGAND FREE ENERGY PREDICTED BY IDOCK:   -1.32 KCAL/MOL
REMARK 927      BINDING AFFINITY PREDICTED BY RF-SCORE:    0.00 PKD
ROOT
HETATM    1  O   UNL     1     -11.838  10.675  70.709  1.00  0.00    -0.323 OA 
HETATM    2  H   UNL     1     -12.568  10.146  71.009  1.00  0.00     0.000 HD 
HETATM    3  C   UNL     1     -11.266  10.089  69.541  1.00  0.00    -0.208 C  
ENDROOT
BRANCH   3   4
HETATM    4  C   UNL     1     -10.894   8.645  69.801  1.00  0.00    -0.185 A  
HETATM    5  C   UNL     1     -11.481   7.916  70.849  1.00  0.00    -0.294 A  
HETATM    6  C   UNL     1      -9.939   8.010  68.987  1.00  0.00    -0.186 A  
HETATM    7  C   UNL     1     -11.147   6.579  71.061  1.00  0.00    -0.339 A  
HETATM    8  F   UNL     1      -9.915   4.677  70.418  1.00  0.00    -0.252 F  
HETATM    9  C   UNL     1      -9.609   6.670  69.198  1.00  0.00    -0.136 A  
HETATM   10  C   UNL     1     -10.221   5.967  70.229  1.00  0.00    -0.218 A  
ENDBRANCH   3   4
BRANCH   3  11
HETATM   11  C   UNL     1     -10.090  10.941  69.058  1.00  0.00    -0.212 C  
BRANCH  11  12
HETATM   12  C   UNL     1     -10.153  11.359  67.578  1.00  0.00    -0.205 C  
BRANCH  12  13
HETATM   13  C   UNL     1     -10.164  12.884  67.502  1.00  0.00    -0.213 C  
HETATM   14  N   UNL     1     -11.027  13.968  69.043  1.00  0.00    -0.257 N  
HETATM   15  O   UNL     1     -12.638  13.446  67.400  1.00  0.00    -0.015 OA 
HETATM   16  C   UNL     1     -11.530  13.487  67.879  1.00  0.00    -0.318 C  
HETATM   17  C   UNL     1      -9.615  13.744  68.704  1.00  0.00    -0.121 C  
BRANCH  17  18
HETATM   18  C   UNL     1      -8.749  15.005  68.213  1.00  0.00    -0.166 A  
HETATM   19  H   UNL     1      -5.439  18.338  67.540  1.00  0.00     0.000 HD 
HETATM   20  C   UNL     1      -7.802  16.391  66.412  1.00  0.00    -0.297 A  
HETATM   21  C   UNL     1      -8.692  15.410  66.863  1.00  0.00    -0.285 A  
HETATM   22  C   UNL     1      -7.893  15.688  69.103  1.00  0.00    -0.220 A  
HETATM   23  C   UNL     1      -6.948  17.001  67.319  1.00  0.00    -0.165 A  
HETATM   24  O   UNL     1      -6.024  17.920  66.920  1.00  0.00    -0.133 OA 
HETATM   25  C   UNL     1      -7.000  16.674  68.664  1.00  0.00    -0.172 A  
ENDBRANCH  17  18
BRANCH  14  26
HETATM   26  C   UNL     1     -11.655  14.436  70.192  1.00  0.00    -0.265 A  
HETATM   27  C   UNL     1     -11.945  16.188  71.857  1.00  0.00    -0.583 A  
HETATM   28  F   UNL     1     -13.501  15.882  73.596  1.00  0.00    -0.578 F  
HETATM   29  C   UNL     1     -11.320  15.695  70.711  1.00  0.00    -0.400 A  
HETATM   30  C   UNL     1     -13.266  14.171  71.987  1.00  0.00    -0.488 A  
HETATM   31  C   UNL     1     -12.908  15.418  72.489  1.00  0.00    -0.397 A  
HETATM   32  C   UNL     1     -12.644  13.681  70.833  1.00  0.00    -0.421 A  
ENDBRANCH  14  26
ENDBRANCH  12  13
ENDBRANCH  11  12
ENDBRANCH   3  11
TORSDOF 6
ENDMDL
MODEL      115
REMARK 921   NORMALIZED FREE ENERGY PREDICTED BY IDOCK:   -5.55 KCAL/MOL
REMARK 922        TOTAL FREE ENERGY PREDICTED BY IDOCK:   -9.31 KCAL/MOL
REMARK 923 INTER-LIGAND FREE ENERGY PREDICTED BY IDOCK:   -8.06 KCAL/MOL
REMARK 924 INTRA-LIGAND FREE ENERGY PREDICTED BY IDOCK:   -1.24 KCAL/MOL
REMARK 927      BINDING AFFINITY PREDICTED BY RF-SCORE:    0.00 PKD
ROOT
HETATM    1  O   UNL     1     -11.711  16.111  67.509  1.00  0.00     0.108 OA 
HETATM    2  H   UNL     1     -11.760  16.238  68.449  1.00  0.00     0.000 HD 
HETATM    3  C   UNL     1     -10.394  15.704  67.146  1.00  0.00    -0.285 C  
ENDROOT
BRANCH   3   4
HETATM    4  C   UNL     1      -9.370  16.687  67.672  1.00  0.00    -0.224 A  
HETATM    5  C   UNL     1      -8.019  16.330  67.813  1.00  0.00    -0.154 A  
HETATM    6  C   UNL     1      -9.769  17.986  68.037  1.00  0.00    -0.309 A  
HETATM    7  C   UNL     1      -7.083  17.254  68.276  1.00  0.00    -0.197 A  
HETATM    8  F   UNL     1      -6.594  19.431  69.030  1.00  0.00    -0.283 F  
HETATM    9  C   UNL     1      -8.830  18.910  68.497  1.00  0.00    -0.387 A  
HETATM   10  C   UNL     1      -7.495  18.537  68.606  1.00  0.00    -0.301 A  
ENDBRANCH   3   4
BRANCH   3  11
HETATM   11  C   UNL     1     -10.315  15.500  65.630  1.00  0.00    -0.407 C  
BRANCH  11  12
HETATM   12  C   UNL     1     -11.525  14.784  65.005  1.00  0.00    -0.389 C  
BRANCH  12  13
HETATM   13  C   UNL     1     -11.710  13.439  65.704  1.00  0.00    -0.374 C  
HETATM   14  N   UNL     1     -10.681  11.782  65.003  1.00  0.00    -0.283 N  
HETATM   15  O   UNL     1     -12.760  11.985  63.908  1.00  0.00    -0.558 OA 
HETATM   16  C   UNL     1     -11.910  12.277  64.713  1.00  0.00    -0.364 C  
HETATM   17  C   UNL     1     -10.456  12.616  66.191  1.00  0.00    -0.258 C  
BRANCH  17  18
HETATM   18  C   UNL     1     -10.682  11.948  67.635  1.00  0.00    -0.253 A  
HETATM   19  H   UNL     1     -12.353   9.651  71.435  1.00  0.00     0.000 HD 
HETATM   20  C   UNL     1      -9.881  10.583  69.520  1.00  0.00    -0.170 A  
HETATM   21  C   UNL     1      -9.645  11.316  68.352  1.00  0.00    -0.195 A  
HETATM   22  C   UNL     1     -11.975  11.848  68.193  1.00  0.00    -0.222 A  
HETATM   23  C   UNL     1     -11.177  10.475  70.004  1.00  0.00    -0.315 A  
HETATM   24  O   UNL     1     -11.466   9.725  71.104  1.00  0.00    -0.343 OA 
HETATM   25  C   UNL     1     -12.223  11.118  69.363  1.00  0.00    -0.329 A  
ENDBRANCH  17  18
BRANCH  14  26
HETATM   26  C   UNL     1      -9.882  10.857  64.339  1.00  0.00    -0.309 A  
HETATM   27  C   UNL     1      -8.688   8.736  64.342  1.00  0.00    -0.053 A  
HETATM   28  F   UNL     1      -7.523   8.064  62.411  1.00  0.00    -0.092 F  
HETATM   29  C   UNL     1      -9.480   9.683  64.993  1.00  0.00    -0.312 A  
HETATM   30  C   UNL     1      -8.690  10.116  62.361  1.00  0.00    -0.238 A  
HETATM   31  C   UNL     1      -8.294   8.964  63.034  1.00  0.00    -0.190 A  
HETATM   32  C   UNL     1      -9.491  11.061  63.011  1.00  0.00    -0.379 A  
ENDBRANCH  14  26
ENDBRANCH  12  13
ENDBRANCH  11  12
ENDBRANCH   3  11
TORSDOF 6
ENDMDL
MODEL      116
REMARK 921   NORMALIZED FREE ENERGY PREDICTED BY IDOCK:   -5.53 KCAL/MOL
REMARK 922        TOTAL FREE ENERGY PREDICTED BY IDOCK:   -9.27 KCAL/MOL
REMARK 923 INTER-LIGAND FREE ENERGY PREDICTED BY IDOCK:   -7.79 KCAL/MOL
REMARK 924 INTRA-LIGAND FREE ENERGY PREDICTED BY IDOCK:   -1.49 KCAL/MOL
REMARK 927      BINDING AFFINITY PREDICTED BY RF-SCORE:    0.00 PKD
ROOT
HETATM    1  O   UNL     1     -13.426  15.860  70.347  1.00  0.00    -0.690 OA 
HETATM    2  H   UNL     1     -13.286  16.787  70.500  1.00  0.00     0.000 HD 
HETATM    3  C   UNL     1     -12.175  15.212  70.131  1.00  0.00    -0.352 C  
ENDROOT
BRANCH   3   4
HETATM    4  C   UNL     1     -11.410  15.895  69.017  1.00  0.00    -0.371 A  
HETATM    5  C   UNL     1     -10.600  17.015  69.267  1.00  0.00    -0.276 A  
HETATM    6  C   UNL     1     -11.507  15.410  67.701  1.00  0.00    -0.255 A  
HETATM    7  C   UNL     1      -9.881  17.619  68.236  1.00  0.00    -0.324 A  
HETATM    8  F   UNL     1      -9.267  17.672  65.963  1.00  0.00    -0.254 F  
HETATM    9  C   UNL     1     -10.784  16.013  66.670  1.00  0.00    -0.247 A  
HETATM   10  C   UNL     1      -9.973  17.107  66.949  1.00  0.00    -0.288 A  
ENDBRANCH   3   4
BRANCH   3  11
HETATM   11  C   UNL     1     -12.402  13.719  69.884  1.00  0.00    -0.334 C  
BRANCH  11  12
HETATM   12  C   UNL     1     -11.122  12.866  69.823  1.00  0.00     0.124 C  
BRANCH  12  13
HETATM   13  C   UNL     1     -11.510  11.426  69.498  1.00  0.00    -0.381 C  
HETATM   14  N   UNL     1     -10.379  10.354  68.132  1.00  0.00    -0.163 N  
HETATM   15  O   UNL     1     -12.109  11.523  67.033  1.00  0.00    -0.443 OA 
HETATM   16  C   UNL     1     -11.483  11.130  67.987  1.00  0.00    -0.293 C  
HETATM   17  C   UNL     1     -10.441  10.271  69.597  1.00  0.00    -0.253 C  
BRANCH  17  18
HETATM   18  C   UNL     1     -11.041   8.932  70.251  1.00  0.00    -0.251 A  
HETATM   19  H   UNL     1     -11.710   4.649  72.182  1.00  0.00     0.000 HD 
HETATM   20  C   UNL     1     -12.492   7.804  71.888  1.00  0.00    -0.343 A  
HETATM   21  C   UNL     1     -12.094   8.949  71.189  1.00  0.00    -0.326 A  
HETATM   22  C   UNL     1     -10.443   7.676  70.010  1.00  0.00    -0.229 A  
HETATM   23  C   UNL     1     -11.843   6.601  71.649  1.00  0.00    -0.336 A  
HETATM   24  O   UNL     1     -12.155   5.472  72.345  1.00  0.00    -0.146 OA 
HETATM   25  C   UNL     1     -10.836   6.523  70.701  1.00  0.00    -0.317 A  
ENDBRANCH  17  18
BRANCH  14  26
HETATM   26  C   UNL     1      -9.463   9.877  67.200  1.00  0.00    -0.158 A  
HETATM   27  C   UNL     1      -7.227   9.938  66.239  1.00  0.00    -0.102 A  
HETATM   28  F   UNL     1      -6.694   8.488  64.464  1.00  0.00    -0.065 F  
HETATM   29  C   UNL     1      -8.166  10.409  67.159  1.00  0.00    -0.122 A  
HETATM   30  C   UNL     1      -8.865   8.383  65.386  1.00  0.00    -0.146 A  
HETATM   31  C   UNL     1      -7.588   8.934  65.356  1.00  0.00    -0.087 A  
HETATM   32  C   UNL     1      -9.803   8.850  66.313  1.00  0.00    -0.355 A  
ENDBRANCH  14  26
ENDBRANCH  12  13
ENDBRANCH  11  12
ENDBRANCH   3  11
TORSDOF 6
ENDMDL
MODEL      117
REMARK 921   NORMALIZED FREE ENERGY PREDICTED BY IDOCK:   -5.51 KCAL/MOL
REMARK 922        TOTAL FREE ENERGY PREDICTED BY IDOCK:   -9.25 KCAL/MOL
REMARK 923 INTER-LIGAND FREE ENERGY PREDICTED BY IDOCK:   -6.24 KCAL/MOL
REMARK 924 INTRA-LIGAND FREE ENERGY PREDICTED BY IDOCK:   -3.01 KCAL/MOL
REMARK 927      BINDING AFFINITY PREDICTED BY RF-SCORE:    0.00 PKD
ROOT
HETATM    1  O   UNL     1      -6.587  12.123  66.414  1.00  0.00    -0.401 OA 
HETATM    2  H   UNL     1      -6.690  12.379  65.506  1.00  0.00     0.000 HD 
HETATM    3  C   UNL     1      -5.875  10.890  66.491  1.00  0.00    -0.106 C  
ENDROOT
BRANCH   3   4
HETATM    4  C   UNL     1      -6.552   9.834  65.643  1.00  0.00    -0.087 A  
HETATM    5  C   UNL     1      -7.907   9.942  65.285  1.00  0.00    -0.131 A  
HETATM    6  C   UNL     1      -5.823   8.715  65.203  1.00  0.00    -0.048 A  
HETATM    7  C   UNL     1      -8.511   8.974  64.483  1.00  0.00    -0.191 A  
HETATM    8  F   UNL     1      -8.337   6.973  63.253  1.00  0.00    -0.083 F  
HETATM    9  C   UNL     1      -6.428   7.749  64.397  1.00  0.00    -0.052 A  
HETATM   10  C   UNL     1      -7.763   7.892  64.040  1.00  0.00    -0.133 A  
ENDBRANCH   3   4
BRANCH   3  11
HETATM   11  C   UNL     1      -5.710  10.477  67.956  1.00  0.00    -0.040 C  
BRANCH  11  12
HETATM   12  C   UNL     1      -6.975  10.625  68.821  1.00  0.00    -0.068 C  
BRANCH  12  13
HETATM   13  C   UNL     1      -7.586   9.241  69.030  1.00  0.00    -0.074 C  
HETATM   14  N   UNL     1      -9.417   9.076  69.985  1.00  0.00    -0.176 N  
HETATM   15  O   UNL     1      -7.659   9.011  71.557  1.00  0.00    -0.275 OA 
HETATM   16  C   UNL     1      -8.144   9.048  70.453  1.00  0.00    -0.143 C  
HETATM   17  C   UNL     1      -9.063   8.945  68.566  1.00  0.00    -0.137 C  
BRANCH  17  18
HETATM   18  C   UNL     1      -9.214   7.499  67.883  1.00  0.00    -0.137 A  
HETATM   19  H   UNL     1     -10.543   3.730  65.323  1.00  0.00     0.000 HD 
HETATM   20  C   UNL     1      -8.236   5.545  66.749  1.00  0.00    -0.105 A  
HETATM   21  C   UNL     1      -8.103   6.717  67.502  1.00  0.00    -0.118 A  
HETATM   22  C   UNL     1     -10.482   7.001  67.509  1.00  0.00    -0.320 A  
HETATM   23  C   UNL     1      -9.501   5.122  66.367  1.00  0.00    -0.153 A  
HETATM   24  O   UNL     1      -9.677   4.020  65.585  1.00  0.00    -0.176 OA 
HETATM   25  C   UNL     1     -10.626   5.828  66.758  1.00  0.00    -0.373 A  
ENDBRANCH  17  18
BRANCH  14  26
HETATM   26  C   UNL     1     -10.632   9.253  70.639  1.00  0.00    -0.262 A  
HETATM   27  C   UNL     1     -12.691  10.520  70.928  1.00  0.00    -0.495 A  
HETATM   28  F   UNL     1     -14.260   9.822  72.537  1.00  0.00    -0.332 F  
HETATM   29  C   UNL     1     -11.463  10.329  70.293  1.00  0.00    -0.395 A  
HETATM   30  C   UNL     1     -12.286   8.554  72.269  1.00  0.00    -0.450 A  
HETATM   31  C   UNL     1     -13.088   9.635  71.916  1.00  0.00    -0.436 A  
HETATM   32  C   UNL     1     -11.059   8.358  71.626  1.00  0.00    -0.344 A  
ENDBRANCH  14  26
ENDBRANCH  12  13
ENDBRANCH  11  12
ENDBRANCH   3  11
TORSDOF 6
ENDMDL
MODEL      118
REMARK 921   NORMALIZED FREE ENERGY PREDICTED BY IDOCK:   -5.50 KCAL/MOL
REMARK 922        TOTAL FREE ENERGY PREDICTED BY IDOCK:   -9.24 KCAL/MOL
REMARK 923 INTER-LIGAND FREE ENERGY PREDICTED BY IDOCK:   -7.81 KCAL/MOL
REMARK 924 INTRA-LIGAND FREE ENERGY PREDICTED BY IDOCK:   -1.43 KCAL/MOL
REMARK 927      BINDING AFFINITY PREDICTED BY RF-SCORE:    0.00 PKD
ROOT
HETATM    1  O   UNL     1     -10.283  15.429  65.809  1.00  0.00    -0.301 OA 
HETATM    2  H   UNL     1      -9.561  15.480  65.193  1.00  0.00     0.000 HD 
HETATM    3  C   UNL     1     -10.287  14.152  66.443  1.00  0.00    -0.287 C  
ENDROOT
BRANCH   3   4
HETATM    4  C   UNL     1     -10.302  13.047  65.409  1.00  0.00    -0.313 A  
HETATM    5  C   UNL     1     -11.056  13.161  64.229  1.00  0.00    -0.426 A  
HETATM    6  C   UNL     1      -9.555  11.875  65.625  1.00  0.00    -0.221 A  
HETATM    7  C   UNL     1     -11.041  12.146  63.273  1.00  0.00    -0.408 A  
HETATM    8  F   UNL     1     -10.244  10.043  62.571  1.00  0.00    -0.010 F  
HETATM    9  C   UNL     1      -9.538  10.861  64.666  1.00  0.00    -0.305 A  
HETATM   10  C   UNL     1     -10.276  11.009  63.497  1.00  0.00    -0.365 A  
ENDBRANCH   3   4
BRANCH   3  11
HETATM   11  C   UNL     1     -11.450  14.071  67.435  1.00  0.00    -0.373 C  
BRANCH  11  12
HETATM   12  C   UNL     1     -11.898  12.644  67.798  1.00  0.00    -0.381 C  
BRANCH  12  13
HETATM   13  C   UNL     1     -10.999  12.120  68.915  1.00  0.00    -0.269 C  
HETATM   14  N   UNL     1     -11.625  10.499  70.045  1.00  0.00    -0.288 N  
HETATM   15  O   UNL     1     -12.377  12.516  71.010  1.00  0.00    -0.351 OA 
HETATM   16  C   UNL     1     -11.772  11.837  70.216  1.00  0.00    -0.228 C  
HETATM   17  C   UNL     1     -10.617  10.591  68.980  1.00  0.00    -0.222 C  
BRANCH  17  18
HETATM   18  C   UNL     1      -9.078  10.358  69.376  1.00  0.00    -0.170 A  
HETATM   19  H   UNL     1      -4.481  10.815  70.460  1.00  0.00     0.000 HD 
HETATM   20  C   UNL     1      -7.359   9.314  70.796  1.00  0.00    -0.134 A  
HETATM   21  C   UNL     1      -8.674   9.393  70.323  1.00  0.00    -0.261 A  
HETATM   22  C   UNL     1      -8.065  11.210  68.885  1.00  0.00    -0.115 A  
HETATM   23  C   UNL     1      -6.410  10.205  70.316  1.00  0.00    -0.117 A  
HETATM   24  O   UNL     1      -5.131  10.205  70.788  1.00  0.00    -0.039 OA 
HETATM   25  C   UNL     1      -6.746  11.138  69.350  1.00  0.00    -0.120 A  
ENDBRANCH  17  18
BRANCH  14  26
HETATM   26  C   UNL     1     -12.278   9.420  70.631  1.00  0.00    -0.086 A  
HETATM   27  C   UNL     1     -12.304   7.061  71.232  1.00  0.00    -0.426 A  
HETATM   28  F   UNL     1     -14.164   6.181  72.372  1.00  0.00    -0.269 F  
HETATM   29  C   UNL     1     -11.671   8.155  70.640  1.00  0.00    -0.148 A  
HETATM   30  C   UNL     1     -14.165   8.478  71.829  1.00  0.00    -0.525 A  
HETATM   31  C   UNL     1     -13.549   7.231  71.815  1.00  0.00    -0.299 A  
HETATM   32  C   UNL     1     -13.527   9.577  71.242  1.00  0.00    -0.352 A  
ENDBRANCH  14  26
ENDBRANCH  12  13
ENDBRANCH  11  12
ENDBRANCH   3  11
TORSDOF 6
ENDMDL
MODEL      119
REMARK 921   NORMALIZED FREE ENERGY PREDICTED BY IDOCK:   -5.48 KCAL/MOL
REMARK 922        TOTAL FREE ENERGY PREDICTED BY IDOCK:   -9.21 KCAL/MOL
REMARK 923 INTER-LIGAND FREE ENERGY PREDICTED BY IDOCK:   -7.17 KCAL/MOL
REMARK 924 INTRA-LIGAND FREE ENERGY PREDICTED BY IDOCK:   -2.04 KCAL/MOL
REMARK 927      BINDING AFFINITY PREDICTED BY RF-SCORE:    0.00 PKD
ROOT
HETATM    1  O   UNL     1     -10.850  12.043  62.834  1.00  0.00    -0.640 OA 
HETATM    2  H   UNL     1     -11.558  12.605  62.542  1.00  0.00     0.000 HD 
HETATM    3  C   UNL     1     -10.937  11.851  64.244  1.00  0.00    -0.353 C  
ENDROOT
BRANCH   3   4
HETATM    4  C   UNL     1     -10.976  13.186  64.959  1.00  0.00    -0.322 A  
HETATM    5  C   UNL     1      -9.881  14.065  64.925  1.00  0.00     0.002 A  
HETATM    6  C   UNL     1     -12.125  13.562  65.678  1.00  0.00    -0.467 A  
HETATM    7  C   UNL     1      -9.940  15.301  65.567  1.00  0.00    -0.383 A  
HETATM    8  F   UNL     1     -11.160  16.857  66.848  1.00  0.00    -0.159 F  
HETATM    9  C   UNL     1     -12.184  14.802  66.316  1.00  0.00    -0.034 A  
HETATM   10  C   UNL     1     -11.094  15.662  66.249  1.00  0.00    -0.127 A  
ENDBRANCH   3   4
BRANCH   3  11
HETATM   11  C   UNL     1      -9.796  10.946  64.715  1.00  0.00    -0.343 C  
BRANCH  11  12
HETATM   12  C   UNL     1     -10.238   9.685  65.479  1.00  0.00    -0.016 C  
BRANCH  12  13
HETATM   13  C   UNL     1      -9.641   9.733  66.884  1.00  0.00    -0.228 C  
HETATM   14  N   UNL     1     -10.014  11.378  68.087  1.00  0.00    -0.182 N  
HETATM   15  O   UNL     1      -8.077  11.730  66.788  1.00  0.00    -0.166 OA 
HETATM   16  C   UNL     1      -9.013  11.099  67.216  1.00  0.00    -0.147 C  
HETATM   17  C   UNL     1     -10.564  10.017  68.131  1.00  0.00    -0.227 C  
BRANCH  17  18
HETATM   18  C   UNL     1     -10.192   9.094  69.393  1.00  0.00    -0.212 A  
HETATM   19  H   UNL     1      -8.907   5.577  72.306  1.00  0.00     0.000 HD 
HETATM   20  C   UNL     1      -9.016   8.743  71.526  1.00  0.00    -0.306 A  
HETATM   21  C   UNL     1      -9.492   9.585  70.515  1.00  0.00    -0.306 A  
HETATM   22  C   UNL     1     -10.439   7.704  69.373  1.00  0.00    -0.220 A  
HETATM   23  C   UNL     1      -9.244   7.378  71.438  1.00  0.00    -0.141 A  
HETATM   24  O   UNL     1      -8.751   6.511  72.367  1.00  0.00    -0.127 OA 
HETATM   25  C   UNL     1      -9.969   6.853  70.381  1.00  0.00    -0.190 A  
ENDBRANCH  17  18
BRANCH  14  26
HETATM   26  C   UNL     1     -10.419  12.575  68.669  1.00  0.00    -0.200 A  
HETATM   27  C   UNL     1     -12.108  13.859  69.862  1.00  0.00    -0.406 A  
HETATM   28  F   UNL     1     -11.670  16.101  70.426  1.00  0.00    -0.332 F  
HETATM   29  C   UNL     1     -11.686  12.671  69.264  1.00  0.00    -0.379 A  
HETATM   30  C   UNL     1      -9.997  14.881  69.291  1.00  0.00    -0.181 A  
HETATM   31  C   UNL     1     -11.263  14.956  69.864  1.00  0.00    -0.275 A  
HETATM   32  C   UNL     1      -9.571  13.688  68.698  1.00  0.00    -0.100 A  
ENDBRANCH  14  26
ENDBRANCH  12  13
ENDBRANCH  11  12
ENDBRANCH   3  11
TORSDOF 6
ENDMDL
MODEL      120
REMARK 921   NORMALIZED FREE ENERGY PREDICTED BY IDOCK:   -5.47 KCAL/MOL
REMARK 922        TOTAL FREE ENERGY PREDICTED BY IDOCK:   -9.19 KCAL/MOL
REMARK 923 INTER-LIGAND FREE ENERGY PREDICTED BY IDOCK:   -6.72 KCAL/MOL
REMARK 924 INTRA-LIGAND FREE ENERGY PREDICTED BY IDOCK:   -2.48 KCAL/MOL
REMARK 927      BINDING AFFINITY PREDICTED BY RF-SCORE:    0.00 PKD
ROOT
HETATM    1  O   UNL     1     -13.083  13.984  65.350  1.00  0.00    -0.763 OA 
HETATM    2  H   UNL     1     -13.537  14.812  65.456  1.00  0.00     0.000 HD 
HETATM    3  C   UNL     1     -12.302  13.709  66.510  1.00  0.00    -0.361 C  
ENDROOT
BRANCH   3   4
HETATM    4  C   UNL     1     -11.374  14.867  66.811  1.00  0.00    -0.328 A  
HETATM    5  C   UNL     1     -11.382  15.502  68.064  1.00  0.00    -0.332 A  
HETATM    6  C   UNL     1     -10.486  15.328  65.823  1.00  0.00    -0.365 A  
HETATM    7  C   UNL     1     -10.504  16.551  68.335  1.00  0.00    -0.307 A  
HETATM    8  F   UNL     1      -8.761  17.966  67.619  1.00  0.00    -0.233 F  
HETATM    9  C   UNL     1      -9.605  16.376  66.097  1.00  0.00    -0.356 A  
HETATM   10  C   UNL     1      -9.619  16.973  67.352  1.00  0.00    -0.246 A  
ENDBRANCH   3   4
BRANCH   3  11
HETATM   11  C   UNL     1     -11.571  12.375  66.338  1.00  0.00    -0.442 C  
BRANCH  11  12
HETATM   12  C   UNL     1     -11.524  11.491  67.596  1.00  0.00    -0.357 C  
BRANCH  12  13
HETATM   13  C   UNL     1     -10.073  11.378  68.058  1.00  0.00    -0.193 C  
HETATM   14  N   UNL     1      -8.621  10.786  66.703  1.00  0.00    -0.139 N  
HETATM   15  O   UNL     1      -9.559   8.908  67.780  1.00  0.00    -0.142 OA 
HETATM   16  C   UNL     1      -9.393  10.085  67.571  1.00  0.00    -0.144 C  
HETATM   17  C   UNL     1      -8.924  12.110  67.261  1.00  0.00    -0.184 C  
BRANCH  17  18
HETATM   18  C   UNL     1      -7.838  12.786  68.232  1.00  0.00    -0.141 A  
HETATM   19  H   UNL     1      -5.523  15.430  71.420  1.00  0.00     0.000 HD 
HETATM   20  C   UNL     1      -6.007  12.602  69.867  1.00  0.00    -0.141 A  
HETATM   21  C   UNL     1      -6.835  12.041  68.889  1.00  0.00    -0.103 A  
HETATM   22  C   UNL     1      -7.923  14.152  68.576  1.00  0.00    -0.145 A  
HETATM   23  C   UNL     1      -6.160  13.939  70.203  1.00  0.00    -0.147 A  
HETATM   24  O   UNL     1      -5.417  14.515  71.190  1.00  0.00    -0.142 OA 
HETATM   25  C   UNL     1      -7.097  14.725  69.552  1.00  0.00    -0.172 A  
ENDBRANCH  17  18
BRANCH  14  26
HETATM   26  C   UNL     1      -7.867  10.377  65.608  1.00  0.00    -0.154 A  
HETATM   27  C   UNL     1      -5.735   9.653  64.684  1.00  0.00    -0.076 A  
HETATM   28  F   UNL     1      -5.583   9.145  62.391  1.00  0.00    -0.084 F  
HETATM   29  C   UNL     1      -6.507  10.074  65.767  1.00  0.00    -0.099 A  
HETATM   30  C   UNL     1      -7.674   9.820  63.255  1.00  0.00    -0.138 A  
HETATM   31  C   UNL     1      -6.324   9.537  63.435  1.00  0.00    -0.101 A  
HETATM   32  C   UNL     1      -8.449  10.235  64.343  1.00  0.00    -0.182 A  
ENDBRANCH  14  26
ENDBRANCH  12  13
ENDBRANCH  11  12
ENDBRANCH   3  11
TORSDOF 6
ENDMDL
MODEL      121
REMARK 921   NORMALIZED FREE ENERGY PREDICTED BY IDOCK:   -5.42 KCAL/MOL
REMARK 922        TOTAL FREE ENERGY PREDICTED BY IDOCK:   -9.13 KCAL/MOL
REMARK 923 INTER-LIGAND FREE ENERGY PREDICTED BY IDOCK:   -7.73 KCAL/MOL
REMARK 924 INTRA-LIGAND FREE ENERGY PREDICTED BY IDOCK:   -1.40 KCAL/MOL
REMARK 927      BINDING AFFINITY PREDICTED BY RF-SCORE:    0.00 PKD
ROOT
HETATM    1  O   UNL     1     -10.717  12.131  69.255  1.00  0.00    -0.417 OA 
HETATM    2  H   UNL     1     -10.926  12.859  68.683  1.00  0.00     0.000 HD 
HETATM    3  C   UNL     1     -11.890  11.711  69.950  1.00  0.00    -0.358 C  
ENDROOT
BRANCH   3   4
HETATM    4  C   UNL     1     -12.524  12.880  70.673  1.00  0.00    -0.333 A  
HETATM    5  C   UNL     1     -13.196  12.705  71.895  1.00  0.00    -0.504 A  
HETATM    6  C   UNL     1     -12.451  14.171  70.119  1.00  0.00    -0.391 A  
HETATM    7  C   UNL     1     -13.754  13.795  72.562  1.00  0.00    -0.667 A  
HETATM    8  F   UNL     1     -14.164  16.113  72.659  1.00  0.00    -0.563 F  
HETATM    9  C   UNL     1     -13.007  15.261  70.790  1.00  0.00    -0.492 A  
HETATM   10  C   UNL     1     -13.647  15.063  72.008  1.00  0.00    -0.420 A  
ENDBRANCH   3   4
BRANCH   3  11
HETATM   11  C   UNL     1     -11.552  10.538  70.873  1.00  0.00    -0.385 C  
BRANCH  11  12
HETATM   12  C   UNL     1     -11.453   9.168  70.177  1.00  0.00    -0.110 C  
BRANCH  12  13
HETATM   13  C   UNL     1     -10.012   8.959  69.717  1.00  0.00    -0.196 C  
HETATM   14  N   UNL     1      -9.564   7.356  68.482  1.00  0.00    -0.145 N  
HETATM   15  O   UNL     1      -9.386   6.726  70.749  1.00  0.00    -0.161 OA 
HETATM   16  C   UNL     1      -9.559   7.492  69.832  1.00  0.00    -0.160 C  
HETATM   17  C   UNL     1      -9.682   8.790  68.184  1.00  0.00    -0.158 C  
BRANCH  17  18
HETATM   18  C   UNL     1      -8.352   9.581  67.751  1.00  0.00    -0.118 A  
HETATM   19  H   UNL     1      -5.012  12.082  65.493  1.00  0.00     0.000 HD 
HETATM   20  C   UNL     1      -6.574  11.215  68.223  1.00  0.00    -0.058 A  
HETATM   21  C   UNL     1      -7.622  10.390  68.645  1.00  0.00    -0.092 A  
HETATM   22  C   UNL     1      -7.929   9.604  66.404  1.00  0.00    -0.108 A  
HETATM   23  C   UNL     1      -6.225  11.237  66.881  1.00  0.00    -0.123 A  
HETATM   24  O   UNL     1      -5.250  12.067  66.412  1.00  0.00    -0.334 OA 
HETATM   25  C   UNL     1      -6.879  10.424  65.971  1.00  0.00    -0.128 A  
ENDBRANCH  17  18
BRANCH  14  26
HETATM   26  C   UNL     1      -9.547   6.225  67.672  1.00  0.00    -0.114 A  
HETATM   27  C   UNL     1     -10.571   4.894  65.911  1.00  0.00    -0.280 A  
HETATM   28  F   UNL     1      -9.540   2.891  65.230  1.00  0.00    -0.153 F  
HETATM   29  C   UNL     1     -10.574   6.016  66.740  1.00  0.00    -0.359 A  
HETATM   30  C   UNL     1      -8.504   4.167  66.924  1.00  0.00    -0.100 A  
HETATM   31  C   UNL     1      -9.539   3.976  66.015  1.00  0.00    -0.194 A  
HETATM   32  C   UNL     1      -8.503   5.297  67.750  1.00  0.00    -0.105 A  
ENDBRANCH  14  26
ENDBRANCH  12  13
ENDBRANCH  11  12
ENDBRANCH   3  11
TORSDOF 6
ENDMDL
MODEL      122
REMARK 921   NORMALIZED FREE ENERGY PREDICTED BY IDOCK:   -5.41 KCAL/MOL
REMARK 922        TOTAL FREE ENERGY PREDICTED BY IDOCK:   -9.11 KCAL/MOL
REMARK 923 INTER-LIGAND FREE ENERGY PREDICTED BY IDOCK:   -7.93 KCAL/MOL
REMARK 924 INTRA-LIGAND FREE ENERGY PREDICTED BY IDOCK:   -1.18 KCAL/MOL
REMARK 927      BINDING AFFINITY PREDICTED BY RF-SCORE:    0.00 PKD
ROOT
HETATM    1  O   UNL     1      -8.482  16.397  69.548  1.00  0.00    -0.068 OA 
HETATM    2  H   UNL     1      -8.276  17.092  70.162  1.00  0.00     0.000 HD 
HETATM    3  C   UNL     1      -7.466  16.316  68.551  1.00  0.00    -0.176 C  
ENDROOT
BRANCH   3   4
HETATM    4  C   UNL     1      -7.267  17.663  67.888  1.00  0.00    -0.205 A  
HETATM    5  C   UNL     1      -6.168  17.907  67.047  1.00  0.00    -0.182 A  
HETATM    6  C   UNL     1      -8.190  18.699  68.114  1.00  0.00    -0.327 A  
HETATM    7  C   UNL     1      -6.011  19.144  66.423  1.00  0.00    -0.181 A  
HETATM    8  F   UNL     1      -6.810  21.324  66.026  1.00  0.00    -0.192 F  
HETATM    9  C   UNL     1      -8.033  19.935  67.486  1.00  0.00    -0.331 A  
HETATM   10  C   UNL     1      -6.949  20.143  66.641  1.00  0.00    -0.233 A  
ENDBRANCH   3   4
BRANCH   3  11
HETATM   11  C   UNL     1      -7.800  15.197  67.562  1.00  0.00    -0.203 C  
BRANCH  11  12
HETATM   12  C   UNL     1      -7.505  13.773  68.066  1.00  0.00    -0.139 C  
BRANCH  12  13
HETATM   13  C   UNL     1      -8.489  12.809  67.408  1.00  0.00    -0.191 C  
HETATM   14  N   UNL     1      -9.982  11.943  68.555  1.00  0.00    -0.208 N  
HETATM   15  O   UNL     1      -8.036  10.609  68.591  1.00  0.00    -0.116 OA 
HETATM   16  C   UNL     1      -8.725  11.537  68.244  1.00  0.00    -0.162 C  
HETATM   17  C   UNL     1     -10.043  13.027  67.565  1.00  0.00    -0.218 C  
BRANCH  17  18
HETATM   18  C   UNL     1     -10.844  12.755  66.199  1.00  0.00    -0.303 A  
HETATM   19  H   UNL     1     -12.619  10.966  62.179  1.00  0.00     0.000 HD 
HETATM   20  C   UNL     1     -12.935  12.737  64.901  1.00  0.00    -0.187 A  
HETATM   21  C   UNL     1     -12.191  13.132  66.019  1.00  0.00    -0.478 A  
HETATM   22  C   UNL     1     -10.264  12.001  65.156  1.00  0.00    -0.308 A  
HETATM   23  C   UNL     1     -12.333  11.957  63.925  1.00  0.00    -0.383 A  
HETATM   24  O   UNL     1     -13.031  11.500  62.847  1.00  0.00    -0.170 OA 
HETATM   25  C   UNL     1     -10.998  11.603  64.032  1.00  0.00    -0.456 A  
ENDBRANCH  17  18
BRANCH  14  26
HETATM   26  C   UNL     1     -10.868  11.517  69.539  1.00  0.00    -0.064 A  
HETATM   27  C   UNL     1     -12.726  11.997  71.035  1.00  0.00    -0.337 A  
HETATM   28  F   UNL     1     -13.534  10.302  72.454  1.00  0.00    -0.492 F  
HETATM   29  C   UNL     1     -11.822  12.406  70.055  1.00  0.00    -0.363 A  
HETATM   30  C   UNL     1     -11.746   9.791  71.000  1.00  0.00    -0.453 A  
HETATM   31  C   UNL     1     -12.676  10.695  71.504  1.00  0.00    -0.444 A  
HETATM   32  C   UNL     1     -10.844  10.200  70.011  1.00  0.00    -0.361 A  
ENDBRANCH  14  26
ENDBRANCH  12  13
ENDBRANCH  11  12
ENDBRANCH   3  11
TORSDOF 6
ENDMDL
MODEL      123
REMARK 921   NORMALIZED FREE ENERGY PREDICTED BY IDOCK:   -5.38 KCAL/MOL
REMARK 922        TOTAL FREE ENERGY PREDICTED BY IDOCK:   -9.08 KCAL/MOL
REMARK 923 INTER-LIGAND FREE ENERGY PREDICTED BY IDOCK:   -7.71 KCAL/MOL
REMARK 924 INTRA-LIGAND FREE ENERGY PREDICTED BY IDOCK:   -1.37 KCAL/MOL
REMARK 927      BINDING AFFINITY PREDICTED BY RF-SCORE:    0.00 PKD
ROOT
HETATM    1  O   UNL     1      -8.728  11.342  64.157  1.00  0.00    -0.377 OA 
HETATM    2  H   UNL     1      -9.003  11.357  63.248  1.00  0.00     0.000 HD 
HETATM    3  C   UNL     1      -9.869  11.420  65.008  1.00  0.00    -0.261 C  
ENDROOT
BRANCH   3   4
HETATM    4  C   UNL     1     -10.709  12.630  64.657  1.00  0.00    -0.353 A  
HETATM    5  C   UNL     1     -10.290  13.930  64.983  1.00  0.00    -0.418 A  
HETATM    6  C   UNL     1     -11.939  12.461  63.995  1.00  0.00    -0.546 A  
HETATM    7  C   UNL     1     -11.062  15.037  64.631  1.00  0.00    -0.335 A  
HETATM    8  F   UNL     1     -12.991  15.910  63.599  1.00  0.00     0.176 F  
HETATM    9  C   UNL     1     -12.708  13.570  63.640  1.00  0.00     0.099 A  
HETATM   10  C   UNL     1     -12.259  14.847  63.956  1.00  0.00    -0.123 A  
ENDBRANCH   3   4
BRANCH   3  11
HETATM   11  C   UNL     1      -9.425  11.395  66.473  1.00  0.00    -0.218 C  
BRANCH  11  12
HETATM   12  C   UNL     1     -10.559  11.190  67.494  1.00  0.00    -0.258 C  
BRANCH  12  13
HETATM   13  C   UNL     1     -10.344  12.151  68.661  1.00  0.00    -0.211 C  
HETATM   14  N   UNL     1      -9.563  14.035  68.292  1.00  0.00    -0.220 N  
HETATM   15  O   UNL     1      -7.827  12.486  68.686  1.00  0.00    -0.120 OA 
HETATM   16  C   UNL     1      -8.975  12.854  68.606  1.00  0.00     0.051 C  
HETATM   17  C   UNL     1     -10.934  13.612  68.608  1.00  0.00    -0.267 C  
BRANCH  17  18
HETATM   18  C   UNL     1     -11.559  14.073  70.014  1.00  0.00    -0.302 A  
HETATM   19  H   UNL     1     -13.143  16.487  73.780  1.00  0.00     0.000 HD 
HETATM   20  C   UNL     1     -13.338  13.970  71.712  1.00  0.00    -0.465 A  
HETATM   21  C   UNL     1     -12.692  13.455  70.584  1.00  0.00    -0.246 A  
HETATM   22  C   UNL     1     -11.074  15.218  70.683  1.00  0.00    -0.341 A  
HETATM   23  C   UNL     1     -12.850  15.124  72.308  1.00  0.00    -0.343 A  
HETATM   24  O   UNL     1     -13.478  15.697  73.373  1.00  0.00    -0.489 OA 
HETATM   25  C   UNL     1     -11.711  15.741  71.816  1.00  0.00    -0.562 A  
ENDBRANCH  17  18
BRANCH  14  26
HETATM   26  C   UNL     1      -9.040  15.212  67.768  1.00  0.00    -0.179 A  
HETATM   27  C   UNL     1      -7.224  16.380  66.644  1.00  0.00    -0.208 A  
HETATM   28  F   UNL     1      -7.439  18.678  66.184  1.00  0.00    -0.246 F  
HETATM   29  C   UNL     1      -7.764  15.212  67.185  1.00  0.00    -0.223 A  
HETATM   30  C   UNL     1      -9.231  17.575  67.254  1.00  0.00    -0.240 A  
HETATM   31  C   UNL     1      -7.959  17.553  66.690  1.00  0.00    -0.253 A  
HETATM   32  C   UNL     1      -9.776  16.402  67.788  1.00  0.00    -0.235 A  
ENDBRANCH  14  26
ENDBRANCH  12  13
ENDBRANCH  11  12
ENDBRANCH   3  11
TORSDOF 6
ENDMDL
MODEL      124
REMARK 921   NORMALIZED FREE ENERGY PREDICTED BY IDOCK:   -5.35 KCAL/MOL
REMARK 922        TOTAL FREE ENERGY PREDICTED BY IDOCK:   -9.03 KCAL/MOL
REMARK 923 INTER-LIGAND FREE ENERGY PREDICTED BY IDOCK:   -7.82 KCAL/MOL
REMARK 924 INTRA-LIGAND FREE ENERGY PREDICTED BY IDOCK:   -1.21 KCAL/MOL
REMARK 927      BINDING AFFINITY PREDICTED BY RF-SCORE:    0.00 PKD
ROOT
HETATM    1  O   UNL     1      -7.752   7.352  71.297  1.00  0.00    -0.085 OA 
HETATM    2  H   UNL     1      -7.961   6.916  72.114  1.00  0.00     0.000 HD 
HETATM    3  C   UNL     1      -8.606   8.480  71.120  1.00  0.00    -0.169 C  
ENDROOT
BRANCH   3   4
HETATM    4  C   UNL     1     -10.058   8.066  71.224  1.00  0.00    -0.222 A  
HETATM    5  C   UNL     1     -10.569   6.998  70.467  1.00  0.00    -0.245 A  
HETATM    6  C   UNL     1     -10.925   8.759  72.088  1.00  0.00    -0.404 A  
HETATM    7  C   UNL     1     -11.903   6.611  70.591  1.00  0.00    -0.443 A  
HETATM    8  F   UNL     1     -14.008   6.911  71.606  1.00  0.00    -0.423 F  
HETATM    9  C   UNL     1     -12.259   8.368  72.215  1.00  0.00    -0.449 A  
HETATM   10  C   UNL     1     -12.733   7.295  71.470  1.00  0.00    -0.384 A  
ENDBRANCH   3   4
BRANCH   3  11
HETATM   11  C   UNL     1      -8.269   9.183  69.803  1.00  0.00    -0.128 C  
BRANCH  11  12
HETATM   12  C   UNL     1      -9.338  10.169  69.298  1.00  0.00    -0.227 C  
BRANCH  12  13
HETATM   13  C   UNL     1      -8.640  11.308  68.559  1.00  0.00    -0.156 C  
HETATM   14  N   UNL     1      -9.532  12.120  66.874  1.00  0.00    -0.204 N  
HETATM   15  O   UNL     1      -8.141  10.308  66.280  1.00  0.00    -0.121 OA 
HETATM   16  C   UNL     1      -8.638  11.111  67.032  1.00  0.00    -0.147 C  
HETATM   17  C   UNL     1      -9.416  12.644  68.241  1.00  0.00    -0.203 C  
BRANCH  17  18
HETATM   18  C   UNL     1      -8.510  13.950  68.472  1.00  0.00    -0.127 A  
HETATM   19  H   UNL     1      -6.803  18.226  69.620  1.00  0.00     0.000 HD 
HETATM   20  C   UNL     1      -6.419  15.011  69.222  1.00  0.00    -0.124 A  
HETATM   21  C   UNL     1      -7.153  13.879  68.849  1.00  0.00    -0.110 A  
HETATM   22  C   UNL     1      -9.079  15.242  68.437  1.00  0.00    -0.189 A  
HETATM   23  C   UNL     1      -7.036  16.253  69.215  1.00  0.00    -0.222 A  
HETATM   24  O   UNL     1      -6.381  17.376  69.625  1.00  0.00    -0.250 OA 
HETATM   25  C   UNL     1      -8.353  16.382  68.806  1.00  0.00    -0.242 A  
ENDBRANCH  17  18
BRANCH  14  26
HETATM   26  C   UNL     1     -10.339  12.471  65.797  1.00  0.00    -0.265 A  
HETATM   27  C   UNL     1     -11.473  11.846  63.736  1.00  0.00    -0.542 A  
HETATM   28  F   UNL     1     -12.744  13.456  62.583  1.00  0.00    -0.148 F  
HETATM   29  C   UNL     1     -10.657  11.517  64.819  1.00  0.00    -0.362 A  
HETATM   30  C   UNL     1     -11.679  14.094  64.591  1.00  0.00    -0.427 A  
HETATM   31  C   UNL     1     -11.971  13.134  63.628  1.00  0.00    -0.514 A  
HETATM   32  C   UNL     1     -10.867  13.762  65.681  1.00  0.00    -0.287 A  
ENDBRANCH  14  26
ENDBRANCH  12  13
ENDBRANCH  11  12
ENDBRANCH   3  11
TORSDOF 6
ENDMDL
MODEL      125
REMARK 921   NORMALIZED FREE ENERGY PREDICTED BY IDOCK:   -5.35 KCAL/MOL
REMARK 922        TOTAL FREE ENERGY PREDICTED BY IDOCK:   -9.03 KCAL/MOL
REMARK 923 INTER-LIGAND FREE ENERGY PREDICTED BY IDOCK:   -7.32 KCAL/MOL
REMARK 924 INTRA-LIGAND FREE ENERGY PREDICTED BY IDOCK:   -1.71 KCAL/MOL
REMARK 927      BINDING AFFINITY PREDICTED BY RF-SCORE:    0.00 PKD
ROOT
HETATM    1  O   UNL     1      -7.923  15.653  69.489  1.00  0.00    -0.230 OA 
HETATM    2  H   UNL     1      -7.975  16.515  69.885  1.00  0.00     0.000 HD 
HETATM    3  C   UNL     1      -7.553  15.774  68.117  1.00  0.00    -0.124 C  
ENDROOT
BRANCH   3   4
HETATM    4  C   UNL     1      -8.498  16.710  67.394  1.00  0.00    -0.204 A  
HETATM    5  C   UNL     1      -8.457  18.098  67.609  1.00  0.00    -0.245 A  
HETATM    6  C   UNL     1      -9.444  16.192  66.492  1.00  0.00    -0.289 A  
HETATM    7  C   UNL     1      -9.316  18.951  66.918  1.00  0.00    -0.333 A  
HETATM    8  F   UNL     1     -11.035  19.239  65.332  1.00  0.00    -0.529 F  
HETATM    9  C   UNL     1     -10.301  17.048  65.797  1.00  0.00    -0.275 A  
HETATM   10  C   UNL     1     -10.224  18.419  66.012  1.00  0.00    -0.336 A  
ENDBRANCH   3   4
BRANCH   3  11
HETATM   11  C   UNL     1      -7.471  14.385  67.480  1.00  0.00    -0.206 C  
BRANCH  11  12
HETATM   12  C   UNL     1      -7.088  13.247  68.443  1.00  0.00    -0.107 C  
BRANCH  12  13
HETATM   13  C   UNL     1      -8.219  12.221  68.459  1.00  0.00    -0.096 C  
HETATM   14  N   UNL     1      -9.670  12.289  66.981  1.00  0.00    -0.201 N  
HETATM   15  O   UNL     1     -10.293  13.642  68.810  1.00  0.00    -0.231 OA 
HETATM   16  C   UNL     1      -9.600  12.856  68.211  1.00  0.00    -0.212 C  
HETATM   17  C   UNL     1      -8.540  11.370  67.171  1.00  0.00    -0.151 C  
BRANCH  17  18
HETATM   18  C   UNL     1      -8.867   9.835  67.514  1.00  0.00    -0.129 A  
HETATM   19  H   UNL     1      -9.554   5.141  67.423  1.00  0.00     0.000 HD 
HETATM   20  C   UNL     1      -8.644   7.865  68.972  1.00  0.00    -0.135 A  
HETATM   21  C   UNL     1      -8.520   9.240  68.745  1.00  0.00    -0.129 A  
HETATM   22  C   UNL     1      -9.404   8.971  66.535  1.00  0.00    -0.246 A  
HETATM   23  C   UNL     1      -9.134   7.050  67.962  1.00  0.00    -0.127 A  
HETATM   24  O   UNL     1      -9.219   5.698  68.115  1.00  0.00    -0.110 OA 
HETATM   25  C   UNL     1      -9.535   7.594  66.753  1.00  0.00    -0.244 A  
ENDBRANCH  17  18
BRANCH  14  26
HETATM   26  C   UNL     1     -10.490  12.559  65.890  1.00  0.00    -0.265 A  
HETATM   27  C   UNL     1     -10.999  12.264  63.528  1.00  0.00    -0.521 A  
HETATM   28  F   UNL     1     -12.898  13.314  62.616  1.00  0.00    -0.003 F  
HETATM   29  C   UNL     1     -10.185  12.015  64.633  1.00  0.00    -0.313 A  
HETATM   30  C   UNL     1     -12.450  13.604  64.916  1.00  0.00    -0.423 A  
HETATM   31  C   UNL     1     -12.121  13.062  63.678  1.00  0.00    -0.531 A  
HETATM   32  C   UNL     1     -11.638  13.347  66.026  1.00  0.00    -0.375 A  
ENDBRANCH  14  26
ENDBRANCH  12  13
ENDBRANCH  11  12
ENDBRANCH   3  11
TORSDOF 6
ENDMDL
MODEL      126
REMARK 921   NORMALIZED FREE ENERGY PREDICTED BY IDOCK:   -5.34 KCAL/MOL
REMARK 922        TOTAL FREE ENERGY PREDICTED BY IDOCK:   -9.02 KCAL/MOL
REMARK 923 INTER-LIGAND FREE ENERGY PREDICTED BY IDOCK:   -7.80 KCAL/MOL
REMARK 924 INTRA-LIGAND FREE ENERGY PREDICTED BY IDOCK:   -1.22 KCAL/MOL
REMARK 927      BINDING AFFINITY PREDICTED BY RF-SCORE:    0.00 PKD
ROOT
HETATM    1  O   UNL     1     -13.232  10.041  71.702  1.00  0.00    -0.383 OA 
HETATM    2  H   UNL     1     -13.859   9.409  72.033  1.00  0.00     0.000 HD 
HETATM    3  C   UNL     1     -12.398   9.426  70.723  1.00  0.00    -0.120 C  
ENDROOT
BRANCH   3   4
HETATM    4  C   UNL     1     -11.752   8.178  71.286  1.00  0.00    -0.310 A  
HETATM    5  C   UNL     1     -11.494   8.046  72.661  1.00  0.00    -0.465 A  
HETATM    6  C   UNL     1     -11.394   7.124  70.426  1.00  0.00    -0.325 A  
HETATM    7  C   UNL     1     -10.921   6.881  73.169  1.00  0.00    -0.297 A  
HETATM    8  F   UNL     1     -10.069   4.717  72.793  1.00  0.00    -0.176 F  
HETATM    9  C   UNL     1     -10.824   5.957  70.936  1.00  0.00    -0.347 A  
HETATM   10  C   UNL     1     -10.599   5.844  72.303  1.00  0.00    -0.217 A  
ENDBRANCH   3   4
BRANCH   3  11
HETATM   11  C   UNL     1     -11.387  10.444  70.190  1.00  0.00    -0.397 C  
BRANCH  11  12
HETATM   12  C   UNL     1     -11.937  11.869  69.997  1.00  0.00    -0.409 C  
BRANCH  12  13
HETATM   13  C   UNL     1     -11.772  12.260  68.531  1.00  0.00    -0.381 C  
HETATM   14  N   UNL     1     -10.561  13.869  68.041  1.00  0.00    -0.243 N  
HETATM   15  O   UNL     1     -12.773  14.591  68.431  1.00  0.00     0.279 OA 
HETATM   16  C   UNL     1     -11.889  13.779  68.305  1.00  0.00    -0.378 C  
HETATM   17  C   UNL     1     -10.333  12.424  67.907  1.00  0.00    -0.210 C  
BRANCH  17  18
HETATM   18  C   UNL     1     -10.232  11.811  66.426  1.00  0.00    -0.248 A  
HETATM   19  H   UNL     1     -10.562  10.923  61.776  1.00  0.00     0.000 HD 
HETATM   20  C   UNL     1      -8.916  10.829  64.592  1.00  0.00    -0.191 A  
HETATM   21  C   UNL     1      -9.060  11.199  65.933  1.00  0.00    -0.218 A  
HETATM   22  C   UNL     1     -11.282  11.979  65.498  1.00  0.00    -0.372 A  
HETATM   23  C   UNL     1      -9.961  11.057  63.708  1.00  0.00    -0.350 A  
HETATM   24  O   UNL     1      -9.847  10.767  62.381  1.00  0.00    -0.132 OA 
HETATM   25  C   UNL     1     -11.150  11.609  64.153  1.00  0.00    -0.435 A  
ENDBRANCH  17  18
BRANCH  14  26
HETATM   26  C   UNL     1      -9.705  14.964  67.997  1.00  0.00    -0.212 A  
HETATM   27  C   UNL     1      -7.756  16.136  68.865  1.00  0.00    -0.207 A  
HETATM   28  F   UNL     1      -7.120  18.188  67.905  1.00  0.00    -0.202 F  
HETATM   29  C   UNL     1      -8.633  15.051  68.898  1.00  0.00    -0.189 A  
HETATM   30  C   UNL     1      -9.001  17.070  67.020  1.00  0.00    -0.236 A  
HETATM   31  C   UNL     1      -7.952  17.139  67.931  1.00  0.00    -0.192 A  
HETATM   32  C   UNL     1      -9.876  15.978  67.048  1.00  0.00    -0.240 A  
ENDBRANCH  14  26
ENDBRANCH  12  13
ENDBRANCH  11  12
ENDBRANCH   3  11
TORSDOF 6
ENDMDL
MODEL      127
REMARK 921   NORMALIZED FREE ENERGY PREDICTED BY IDOCK:   -5.34 KCAL/MOL
REMARK 922        TOTAL FREE ENERGY PREDICTED BY IDOCK:   -9.01 KCAL/MOL
REMARK 923 INTER-LIGAND FREE ENERGY PREDICTED BY IDOCK:   -7.96 KCAL/MOL
REMARK 924 INTRA-LIGAND FREE ENERGY PREDICTED BY IDOCK:   -1.05 KCAL/MOL
REMARK 927      BINDING AFFINITY PREDICTED BY RF-SCORE:    0.00 PKD
ROOT
HETATM    1  O   UNL     1     -11.783   4.401  64.856  1.00  0.00    -0.979 OA 
HETATM    2  H   UNL     1     -11.787   4.301  63.912  1.00  0.00     0.000 HD 
HETATM    3  C   UNL     1     -10.519   4.903  65.283  1.00  0.00     0.116 C  
ENDROOT
BRANCH   3   4
HETATM    4  C   UNL     1      -9.398   4.025  64.767  1.00  0.00    -0.162 A  
HETATM    5  C   UNL     1      -9.107   2.787  65.364  1.00  0.00    -0.145 A  
HETATM    6  C   UNL     1      -8.623   4.448  63.673  1.00  0.00    -0.122 A  
HETATM    7  C   UNL     1      -8.089   1.977  64.864  1.00  0.00    -0.078 A  
HETATM    8  F   UNL     1      -6.389   1.619  63.272  1.00  0.00    -0.011 F  
HETATM    9  C   UNL     1      -7.606   3.635  63.171  1.00  0.00    -0.055 A  
HETATM   10  C   UNL     1      -7.353   2.405  63.766  1.00  0.00    -0.053 A  
ENDBRANCH   3   4
BRANCH   3  11
HETATM   11  C   UNL     1     -10.512   5.063  66.805  1.00  0.00    -0.273 C  
BRANCH  11  12
HETATM   12  C   UNL     1     -10.552   6.518  67.308  1.00  0.00    -0.383 C  
BRANCH  12  13
HETATM   13  C   UNL     1     -10.171   6.533  68.786  1.00  0.00    -0.194 C  
HETATM   14  N   UNL     1     -10.973   7.988  70.025  1.00  0.00    -0.235 N  
HETATM   15  O   UNL     1      -8.960   8.748  69.056  1.00  0.00    -0.136 OA 
HETATM   16  C   UNL     1      -9.829   7.945  69.297  1.00  0.00    -0.177 C  
HETATM   17  C   UNL     1     -11.290   6.560  69.897  1.00  0.00    -0.406 C  
BRANCH  17  18
HETATM   18  C   UNL     1     -10.949   5.597  71.137  1.00  0.00    -0.248 A  
HETATM   19  H   UNL     1      -8.893   2.741  74.320  1.00  0.00     0.000 HD 
HETATM   20  C   UNL     1     -11.031   5.080  73.542  1.00  0.00    -0.393 A  
HETATM   21  C   UNL     1     -11.469   5.809  72.431  1.00  0.00    -0.343 A  
HETATM   22  C   UNL     1      -9.996   4.563  71.012  1.00  0.00    -0.257 A  
HETATM   23  C   UNL     1     -10.059   4.105  73.375  1.00  0.00    -0.139 A  
HETATM   24  O   UNL     1      -9.559   3.409  74.435  1.00  0.00    -0.095 OA 
HETATM   25  C   UNL     1      -9.552   3.825  72.116  1.00  0.00    -0.212 A  
ENDBRANCH  17  18
BRANCH  14  26
HETATM   26  C   UNL     1     -11.646   9.052  70.616  1.00  0.00    -0.224 A  
HETATM   27  C   UNL     1     -12.046  11.447  70.781  1.00  0.00    -0.433 A  
HETATM   28  F   UNL     1     -13.627  12.250  72.327  1.00  0.00    -0.589 F  
HETATM   29  C   UNL     1     -11.374  10.366  70.209  1.00  0.00    -0.406 A  
HETATM   30  C   UNL     1     -13.285   9.919  72.180  1.00  0.00    -0.511 A  
HETATM   31  C   UNL     1     -12.990  11.214  71.767  1.00  0.00    -0.421 A  
HETATM   32  C   UNL     1     -12.618   8.834  71.600  1.00  0.00    -0.393 A  
ENDBRANCH  14  26
ENDBRANCH  12  13
ENDBRANCH  11  12
ENDBRANCH   3  11
TORSDOF 6
ENDMDL
MODEL      128
REMARK 921   NORMALIZED FREE ENERGY PREDICTED BY IDOCK:   -5.33 KCAL/MOL
REMARK 922        TOTAL FREE ENERGY PREDICTED BY IDOCK:   -9.01 KCAL/MOL
REMARK 923 INTER-LIGAND FREE ENERGY PREDICTED BY IDOCK:   -7.79 KCAL/MOL
REMARK 924 INTRA-LIGAND FREE ENERGY PREDICTED BY IDOCK:   -1.22 KCAL/MOL
REMARK 927      BINDING AFFINITY PREDICTED BY RF-SCORE:    0.00 PKD
ROOT
HETATM    1  O   UNL     1     -12.386  10.838  68.623  1.00  0.00    -0.825 OA 
HETATM    2  H   UNL     1     -12.719  11.641  69.005  1.00  0.00     0.000 HD 
HETATM    3  C   UNL     1     -11.222  11.119  67.849  1.00  0.00    -0.302 C  
ENDROOT
BRANCH   3   4
HETATM    4  C   UNL     1     -11.515  12.194  66.824  1.00  0.00    -0.418 A  
HETATM    5  C   UNL     1     -11.740  13.527  67.208  1.00  0.00    -0.423 A  
HETATM    6  C   UNL     1     -11.571  11.864  65.458  1.00  0.00    -0.281 A  
HETATM    7  C   UNL     1     -11.983  14.512  66.252  1.00  0.00    -0.335 A  
HETATM    8  F   UNL     1     -12.221  15.115  63.987  1.00  0.00    -0.477 F  
HETATM    9  C   UNL     1     -11.811  12.852  64.502  1.00  0.00    -0.429 A  
HETATM   10  C   UNL     1     -12.008  14.167  64.907  1.00  0.00    -0.417 A  
ENDBRANCH   3   4
BRANCH   3  11
HETATM   11  C   UNL     1     -10.686   9.824  67.233  1.00  0.00    -0.296 C  
BRANCH  11  12
HETATM   12  C   UNL     1      -9.610   9.103  68.065  1.00  0.00    -0.165 C  
BRANCH  12  13
HETATM   13  C   UNL     1     -10.210   7.816  68.626  1.00  0.00    -0.217 C  
HETATM   14  N   UNL     1      -9.497   5.989  67.956  1.00  0.00    -0.113 N  
HETATM   15  O   UNL     1     -11.274   6.731  66.592  1.00  0.00    -0.205 OA 
HETATM   16  C   UNL     1     -10.517   6.777  67.531  1.00  0.00    -0.239 C  
HETATM   17  C   UNL     1      -9.274   6.696  69.224  1.00  0.00    -0.140 C  
BRANCH  17  18
HETATM   18  C   UNL     1      -9.874   6.045  70.564  1.00  0.00    -0.222 A  
HETATM   19  H   UNL     1     -10.534   4.032  74.810  1.00  0.00     0.000 HD 
HETATM   20  C   UNL     1     -11.464   6.077  72.444  1.00  0.00    -0.357 A  
HETATM   21  C   UNL     1     -11.045   6.526  71.186  1.00  0.00    -0.332 A  
HETATM   22  C   UNL     1      -9.171   5.037  71.258  1.00  0.00    -0.186 A  
HETATM   23  C   UNL     1     -10.713   5.116  73.106  1.00  0.00    -0.265 A  
HETATM   24  O   UNL     1     -11.048   4.689  74.357  1.00  0.00    -0.252 OA 
HETATM   25  C   UNL     1      -9.582   4.577  72.516  1.00  0.00    -0.183 A  
ENDBRANCH  17  18
BRANCH  14  26
HETATM   26  C   UNL     1      -8.842   4.925  67.344  1.00  0.00    -0.103 A  
HETATM   27  C   UNL     1      -6.792   3.957  66.459  1.00  0.00    -0.058 A  
HETATM   28  F   UNL     1      -6.840   1.790  65.542  1.00  0.00    -0.031 F  
HETATM   29  C   UNL     1      -7.471   5.016  67.062  1.00  0.00    -0.087 A  
HETATM   30  C   UNL     1      -8.844   2.686  66.413  1.00  0.00    -0.136 A  
HETATM   31  C   UNL     1      -7.486   2.804  66.133  1.00  0.00    -0.072 A  
HETATM   32  C   UNL     1      -9.523   3.745  67.025  1.00  0.00    -0.227 A  
ENDBRANCH  14  26
ENDBRANCH  12  13
ENDBRANCH  11  12
ENDBRANCH   3  11
TORSDOF 6
ENDMDL
MODEL      129
REMARK 921   NORMALIZED FREE ENERGY PREDICTED BY IDOCK:   -5.29 KCAL/MOL
REMARK 922        TOTAL FREE ENERGY PREDICTED BY IDOCK:   -8.95 KCAL/MOL
REMARK 923 INTER-LIGAND FREE ENERGY PREDICTED BY IDOCK:   -7.45 KCAL/MOL
REMARK 924 INTRA-LIGAND FREE ENERGY PREDICTED BY IDOCK:   -1.51 KCAL/MOL
REMARK 927      BINDING AFFINITY PREDICTED BY RF-SCORE:    0.00 PKD
ROOT
HETATM    1  O   UNL     1     -10.648   7.477  66.612  1.00  0.00    -0.493 OA 
HETATM    2  H   UNL     1     -11.534   7.820  66.637  1.00  0.00     0.000 HD 
HETATM    3  C   UNL     1      -9.726   8.498  66.984  1.00  0.00    -0.204 C  
ENDROOT
BRANCH   3   4
HETATM    4  C   UNL     1      -9.918   9.727  66.120  1.00  0.00    -0.338 A  
HETATM    5  C   UNL     1     -10.632  10.843  66.586  1.00  0.00    -0.305 A  
HETATM    6  C   UNL     1      -9.381   9.761  64.821  1.00  0.00    -0.327 A  
HETATM    7  C   UNL     1     -10.781  11.977  65.788  1.00  0.00    -0.319 A  
HETATM    8  F   UNL     1     -10.343  13.093  63.760  1.00  0.00    -0.396 F  
HETATM    9  C   UNL     1      -9.527  10.898  64.025  1.00  0.00    -0.298 A  
HETATM   10  C   UNL     1     -10.219  11.997  64.519  1.00  0.00    -0.286 A  
ENDBRANCH   3   4
BRANCH   3  11
HETATM   11  C   UNL     1      -8.299   7.946  66.943  1.00  0.00    -0.116 C  
BRANCH  11  12
HETATM   12  C   UNL     1      -7.317   8.603  67.931  1.00  0.00    -0.092 C  
BRANCH  12  13
HETATM   13  C   UNL     1      -7.478   7.936  69.294  1.00  0.00    -0.092 C  
HETATM   14  N   UNL     1      -9.178   8.319  70.416  1.00  0.00    -0.150 N  
HETATM   15  O   UNL     1      -7.494   9.896  70.907  1.00  0.00    -0.314 OA 
HETATM   16  C   UNL     1      -7.960   8.915  70.381  1.00  0.00    -0.117 C  
HETATM   17  C   UNL     1      -8.793   7.135  69.639  1.00  0.00    -0.141 C  
BRANCH  17  18
HETATM   18  C   UNL     1      -8.491   5.774  70.438  1.00  0.00    -0.129 A  
HETATM   19  H   UNL     1      -8.522   1.377  72.221  1.00  0.00     0.000 HD 
HETATM   20  C   UNL     1      -6.927   4.040  71.216  1.00  0.00    -0.032 A  
HETATM   21  C   UNL     1      -7.182   5.307  70.680  1.00  0.00    -0.068 A  
HETATM   22  C   UNL     1      -9.540   4.910  70.821  1.00  0.00    -0.251 A  
HETATM   23  C   UNL     1      -7.991   3.209  71.534  1.00  0.00    -0.056 A  
HETATM   24  O   UNL     1      -7.793   1.946  72.003  1.00  0.00    -0.043 OA 
HETATM   25  C   UNL     1      -9.296   3.641  71.360  1.00  0.00    -0.211 A  
ENDBRANCH  17  18
BRANCH  14  26
HETATM   26  C   UNL     1     -10.394   8.743  70.944  1.00  0.00    -0.223 A  
HETATM   27  C   UNL     1     -12.284   8.352  72.426  1.00  0.00    -0.430 A  
HETATM   28  F   UNL     1     -14.000   9.958  72.557  1.00  0.00    -0.392 F  
HETATM   29  C   UNL     1     -11.069   7.942  71.876  1.00  0.00    -0.317 A  
HETATM   30  C   UNL     1     -12.171  10.384  71.127  1.00  0.00    -0.498 A  
HETATM   31  C   UNL     1     -12.828   9.567  72.041  1.00  0.00    -0.414 A  
HETATM   32  C   UNL     1     -10.948   9.976  70.581  1.00  0.00    -0.392 A  
ENDBRANCH  14  26
ENDBRANCH  12  13
ENDBRANCH  11  12
ENDBRANCH   3  11
TORSDOF 6
ENDMDL
MODEL      130
REMARK 921   NORMALIZED FREE ENERGY PREDICTED BY IDOCK:   -5.28 KCAL/MOL
REMARK 922        TOTAL FREE ENERGY PREDICTED BY IDOCK:   -8.93 KCAL/MOL
REMARK 923 INTER-LIGAND FREE ENERGY PREDICTED BY IDOCK:   -7.75 KCAL/MOL
REMARK 924 INTRA-LIGAND FREE ENERGY PREDICTED BY IDOCK:   -1.18 KCAL/MOL
REMARK 927      BINDING AFFINITY PREDICTED BY RF-SCORE:    0.00 PKD
ROOT
HETATM    1  O   UNL     1      -8.359  15.278  69.239  1.00  0.00    -0.219 OA 
HETATM    2  H   UNL     1      -8.571  15.942  69.883  1.00  0.00     0.000 HD 
HETATM    3  C   UNL     1      -7.031  15.477  68.760  1.00  0.00    -0.118 C  
ENDROOT
BRANCH   3   4
HETATM    4  C   UNL     1      -6.861  16.890  68.243  1.00  0.00    -0.164 A  
HETATM    5  C   UNL     1      -7.958  17.634  67.778  1.00  0.00    -0.218 A  
HETATM    6  C   UNL     1      -5.584  17.478  68.218  1.00  0.00    -0.147 A  
HETATM    7  C   UNL     1      -7.791  18.943  67.328  1.00  0.00    -0.250 A  
HETATM    8  F   UNL     1      -6.366  20.776  66.924  1.00  0.00    -0.228 F  
HETATM    9  C   UNL     1      -5.418  18.790  67.771  1.00  0.00    -0.175 A  
HETATM   10  C   UNL     1      -6.524  19.512  67.336  1.00  0.00    -0.195 A  
ENDBRANCH   3   4
BRANCH   3  11
HETATM   11  C   UNL     1      -6.689  14.406  67.721  1.00  0.00    -0.191 C  
BRANCH  11  12
HETATM   12  C   UNL     1      -6.882  12.954  68.194  1.00  0.00    -0.097 C  
BRANCH  12  13
HETATM   13  C   UNL     1      -7.940  12.292  67.314  1.00  0.00    -0.177 C  
HETATM   14  N   UNL     1      -9.250  10.926  68.157  1.00  0.00    -0.153 N  
HETATM   15  O   UNL     1      -7.305   9.835  67.385  1.00  0.00    -0.089 OA 
HETATM   16  C   UNL     1      -8.045  10.774  67.552  1.00  0.00    -0.111 C  
HETATM   17  C   UNL     1      -9.458  12.318  67.737  1.00  0.00    -0.197 C  
BRANCH  17  18
HETATM   18  C   UNL     1     -10.439  12.591  66.494  1.00  0.00    -0.258 A  
HETATM   19  H   UNL     1     -13.574  14.364  63.405  1.00  0.00     0.000 HD 
HETATM   20  C   UNL     1     -10.868  12.667  64.072  1.00  0.00    -0.452 A  
HETATM   21  C   UNL     1     -10.093  12.267  65.166  1.00  0.00    -0.284 A  
HETATM   22  C   UNL     1     -11.649  13.298  66.667  1.00  0.00    -0.408 A  
HETATM   23  C   UNL     1     -12.025  13.400  64.290  1.00  0.00    -0.430 A  
HETATM   24  O   UNL     1     -12.781  13.862  63.255  1.00  0.00    -0.775 OA 
HETATM   25  C   UNL     1     -12.433  13.701  65.579  1.00  0.00    -0.544 A  
ENDBRANCH  17  18
BRANCH  14  26
HETATM   26  C   UNL     1      -9.986  10.067  68.967  1.00  0.00    -0.196 A  
HETATM   27  C   UNL     1     -10.538   7.801  69.662  1.00  0.00    -0.242 A  
HETATM   28  F   UNL     1     -12.135   7.470  71.358  1.00  0.00    -0.298 F  
HETATM   29  C   UNL     1      -9.817   8.680  68.852  1.00  0.00    -0.184 A  
HETATM   30  C   UNL     1     -11.608   9.683  70.729  1.00  0.00    -0.395 A  
HETATM   31  C   UNL     1     -11.432   8.310  70.588  1.00  0.00    -0.225 A  
HETATM   32  C   UNL     1     -10.880  10.565  69.922  1.00  0.00    -0.334 A  
ENDBRANCH  14  26
ENDBRANCH  12  13
ENDBRANCH  11  12
ENDBRANCH   3  11
TORSDOF 6
ENDMDL
MODEL      131
REMARK 921   NORMALIZED FREE ENERGY PREDICTED BY IDOCK:   -5.27 KCAL/MOL
REMARK 922        TOTAL FREE ENERGY PREDICTED BY IDOCK:   -8.93 KCAL/MOL
REMARK 923 INTER-LIGAND FREE ENERGY PREDICTED BY IDOCK:   -7.32 KCAL/MOL
REMARK 924 INTRA-LIGAND FREE ENERGY PREDICTED BY IDOCK:   -1.61 KCAL/MOL
REMARK 927      BINDING AFFINITY PREDICTED BY RF-SCORE:    0.00 PKD
ROOT
HETATM    1  O   UNL     1     -12.507  14.484  67.129  1.00  0.00    -0.567 OA 
HETATM    2  H   UNL     1     -12.726  13.599  66.863  1.00  0.00     0.000 HD 
HETATM    3  C   UNL     1     -11.509  14.448  68.147  1.00  0.00    -0.310 C  
ENDROOT
BRANCH   3   4
HETATM    4  C   UNL     1     -11.958  13.569  69.296  1.00  0.00    -0.378 A  
HETATM    5  C   UNL     1     -12.600  14.111  70.422  1.00  0.00    -0.397 A  
HETATM    6  C   UNL     1     -11.727  12.183  69.250  1.00  0.00    -0.386 A  
HETATM    7  C   UNL     1     -13.030  13.287  71.462  1.00  0.00    -0.426 A  
HETATM    8  F   UNL     1     -13.244  11.124  72.370  1.00  0.00    -0.558 F  
HETATM    9  C   UNL     1     -12.161  11.359  70.290  1.00  0.00    -0.459 A  
HETATM   10  C   UNL     1     -12.814  11.918  71.382  1.00  0.00    -0.307 A  
ENDBRANCH   3   4
BRANCH   3  11
HETATM   11  C   UNL     1     -11.155  15.873  68.577  1.00  0.00    -0.340 C  
BRANCH  11  12
HETATM   12  C   UNL     1     -10.104  15.975  69.696  1.00  0.00    -0.244 C  
BRANCH  12  13
HETATM   13  C   UNL     1      -8.728  16.149  69.058  1.00  0.00    -0.254 C  
HETATM   14  N   UNL     1      -7.840  14.535  68.108  1.00  0.00    -0.125 N  
HETATM   15  O   UNL     1      -7.259  14.567  70.395  1.00  0.00     0.144 OA 
HETATM   16  C   UNL     1      -7.770  14.987  69.385  1.00  0.00    -0.190 C  
HETATM   17  C   UNL     1      -8.488  15.732  67.556  1.00  0.00    -0.168 C  
BRANCH  17  18
HETATM   18  C   UNL     1      -7.572  16.787  66.764  1.00  0.00    -0.283 A  
HETATM   19  H   UNL     1      -5.559  20.673  64.930  1.00  0.00     0.000 HD 
HETATM   20  C   UNL     1      -5.362  17.624  66.077  1.00  0.00    -0.224 A  
HETATM   21  C   UNL     1      -6.180  16.622  66.608  1.00  0.00    -0.036 A  
HETATM   22  C   UNL     1      -8.109  18.007  66.298  1.00  0.00    -0.259 A  
HETATM   23  C   UNL     1      -5.931  18.824  65.675  1.00  0.00    -0.205 A  
HETATM   24  O   UNL     1      -5.169  19.852  65.205  1.00  0.00    -0.158 OA 
HETATM   25  C   UNL     1      -7.300  19.017  65.761  1.00  0.00    -0.232 A  
ENDBRANCH  17  18
BRANCH  14  26
HETATM   26  C   UNL     1      -7.486  13.313  67.546  1.00  0.00    -0.157 A  
HETATM   27  C   UNL     1      -8.145  11.240  66.453  1.00  0.00    -0.138 A  
HETATM   28  F   UNL     1      -6.492   9.677  65.850  1.00  0.00    -0.070 F  
HETATM   29  C   UNL     1      -8.478  12.466  67.030  1.00  0.00    -0.170 A  
HETATM   30  C   UNL     1      -5.812  11.686  66.887  1.00  0.00    -0.143 A  
HETATM   31  C   UNL     1      -6.815  10.858  66.393  1.00  0.00    -0.135 A  
HETATM   32  C   UNL     1      -6.146  12.919  67.459  1.00  0.00    -0.143 A  
ENDBRANCH  14  26
ENDBRANCH  12  13
ENDBRANCH  11  12
ENDBRANCH   3  11
TORSDOF 6
ENDMDL
MODEL      132
REMARK 921   NORMALIZED FREE ENERGY PREDICTED BY IDOCK:   -5.26 KCAL/MOL
REMARK 922        TOTAL FREE ENERGY PREDICTED BY IDOCK:   -8.91 KCAL/MOL
REMARK 923 INTER-LIGAND FREE ENERGY PREDICTED BY IDOCK:   -7.70 KCAL/MOL
REMARK 924 INTRA-LIGAND FREE ENERGY PREDICTED BY IDOCK:   -1.21 KCAL/MOL
REMARK 927      BINDING AFFINITY PREDICTED BY RF-SCORE:    0.00 PKD
ROOT
HETATM    1  O   UNL     1     -10.076   7.826  66.496  1.00  0.00    -0.398 OA 
HETATM    2  H   UNL     1      -9.848   7.135  65.886  1.00  0.00     0.000 HD 
HETATM    3  C   UNL     1      -9.072   7.934  67.502  1.00  0.00    -0.133 C  
ENDROOT
BRANCH   3   4
HETATM    4  C   UNL     1      -8.847   6.595  68.171  1.00  0.00    -0.119 A  
HETATM    5  C   UNL     1      -7.751   5.784  67.831  1.00  0.00    -0.097 A  
HETATM    6  C   UNL     1      -9.748   6.141  69.151  1.00  0.00    -0.164 A  
HETATM    7  C   UNL     1      -7.542   4.564  68.474  1.00  0.00    -0.064 A  
HETATM    8  F   UNL     1      -8.219   2.988  70.087  1.00  0.00    -0.049 F  
HETATM    9  C   UNL     1      -9.535   4.921  69.795  1.00  0.00    -0.223 A  
HETATM   10  C   UNL     1      -8.431   4.148  69.455  1.00  0.00    -0.068 A  
ENDBRANCH   3   4
BRANCH   3  11
HETATM   11  C   UNL     1      -9.441   9.049  68.484  1.00  0.00    -0.148 C  
BRANCH  11  12
HETATM   12  C   UNL     1     -10.808   9.711  68.234  1.00  0.00    -0.230 C  
BRANCH  12  13
HETATM   13  C   UNL     1     -10.811  11.087  68.897  1.00  0.00    -0.262 C  
HETATM   14  N   UNL     1     -10.987  12.781  67.716  1.00  0.00    -0.229 N  
HETATM   15  O   UNL     1      -8.718  12.187  67.971  1.00  0.00    -0.165 OA 
HETATM   16  C   UNL     1      -9.906  12.098  68.169  1.00  0.00    -0.207 C  
HETATM   17  C   UNL     1     -11.964  12.117  68.589  1.00  0.00    -0.237 C  
BRANCH  17  18
HETATM   18  C   UNL     1     -12.456  12.900  69.902  1.00  0.00    -0.034 A  
HETATM   19  H   UNL     1     -13.579  14.246  74.312  1.00  0.00     0.000 HD 
HETATM   20  C   UNL     1     -12.509  14.923  71.304  1.00  0.00    -0.396 A  
HETATM   21  C   UNL     1     -12.242  14.282  70.090  1.00  0.00    -0.407 A  
HETATM   22  C   UNL     1     -13.012  12.204  70.997  1.00  0.00    -0.160 A  
HETATM   23  C   UNL     1     -13.013  14.185  72.366  1.00  0.00    -0.391 A  
HETATM   24  O   UNL     1     -13.235  14.752  73.585  1.00  0.00    -0.482 OA 
HETATM   25  C   UNL     1     -13.286  12.835  72.217  1.00  0.00    -0.563 A  
ENDBRANCH  17  18
BRANCH  14  26
HETATM   26  C   UNL     1     -11.119  13.728  66.706  1.00  0.00    -0.308 A  
HETATM   27  C   UNL     1     -10.361  15.786  65.651  1.00  0.00    -0.411 A  
HETATM   28  F   UNL     1     -11.455  16.564  63.719  1.00  0.00    -0.193 F  
HETATM   29  C   UNL     1     -10.253  14.830  66.662  1.00  0.00    -0.271 A  
HETATM   30  C   UNL     1     -12.204  14.551  64.698  1.00  0.00    -0.474 A  
HETATM   31  C   UNL     1     -11.341  15.642  64.682  1.00  0.00    -0.349 A  
HETATM   32  C   UNL     1     -12.090  13.588  65.707  1.00  0.00    -0.473 A  
ENDBRANCH  14  26
ENDBRANCH  12  13
ENDBRANCH  11  12
ENDBRANCH   3  11
TORSDOF 6
ENDMDL
MODEL      133
REMARK 921   NORMALIZED FREE ENERGY PREDICTED BY IDOCK:   -5.24 KCAL/MOL
REMARK 922        TOTAL FREE ENERGY PREDICTED BY IDOCK:   -8.88 KCAL/MOL
REMARK 923 INTER-LIGAND FREE ENERGY PREDICTED BY IDOCK:   -7.32 KCAL/MOL
REMARK 924 INTRA-LIGAND FREE ENERGY PREDICTED BY IDOCK:   -1.56 KCAL/MOL
REMARK 927      BINDING AFFINITY PREDICTED BY RF-SCORE:    0.00 PKD
ROOT
HETATM    1  O   UNL     1     -12.588   8.999  71.530  1.00  0.00    -0.314 OA 
HETATM    2  H   UNL     1     -13.137   8.437  72.064  1.00  0.00     0.000 HD 
HETATM    3  C   UNL     1     -11.660   8.208  70.793  1.00  0.00    -0.238 C  
ENDROOT
BRANCH   3   4
HETATM    4  C   UNL     1     -10.872   7.310  71.724  1.00  0.00    -0.251 A  
HETATM    5  C   UNL     1     -10.737   5.935  71.471  1.00  0.00    -0.313 A  
HETATM    6  C   UNL     1     -10.263   7.851  72.870  1.00  0.00    -0.397 A  
HETATM    7  C   UNL     1      -9.988   5.125  72.323  1.00  0.00    -0.228 A  
HETATM    8  F   UNL     1      -8.638   4.913  74.242  1.00  0.00    -0.109 F  
HETATM    9  C   UNL     1      -9.511   7.040  73.720  1.00  0.00    -0.258 A  
HETATM   10  C   UNL     1      -9.375   5.686  73.435  1.00  0.00    -0.134 A  
ENDBRANCH   3   4
BRANCH   3  11
HETATM   11  C   UNL     1     -10.776   9.114  69.932  1.00  0.00    -0.246 C  
BRANCH  11  12
HETATM   12  C   UNL     1      -9.905   8.382  68.896  1.00  0.00    -0.184 C  
BRANCH  12  13
HETATM   13  C   UNL     1      -8.954   9.391  68.258  1.00  0.00    -0.128 C  
HETATM   14  N   UNL     1      -9.641  10.599  66.720  1.00  0.00    -0.166 N  
HETATM   15  O   UNL     1      -8.767   8.584  65.858  1.00  0.00    -0.154 OA 
HETATM   16  C   UNL     1      -9.029   9.388  66.720  1.00  0.00    -0.131 C  
HETATM   17  C   UNL     1      -9.370  10.907  68.131  1.00  0.00    -0.165 C  
BRANCH  17  18
HETATM   18  C   UNL     1      -8.159  11.908  68.465  1.00  0.00    -0.130 A  
HETATM   19  H   UNL     1      -5.433  15.620  69.605  1.00  0.00     0.000 HD 
HETATM   20  C   UNL     1      -6.051  12.417  69.630  1.00  0.00    -0.135 A  
HETATM   21  C   UNL     1      -7.016  11.505  69.188  1.00  0.00    -0.113 A  
HETATM   22  C   UNL     1      -8.248  13.283  68.158  1.00  0.00    -0.160 A  
HETATM   23  C   UNL     1      -6.208  13.765  69.343  1.00  0.00    -0.107 A  
HETATM   24  O   UNL     1      -5.325  14.697  69.801  1.00  0.00    -0.092 OA 
HETATM   25  C   UNL     1      -7.286  14.204  68.594  1.00  0.00    -0.126 A  
ENDBRANCH  17  18
BRANCH  14  26
HETATM   26  C   UNL     1     -10.351  11.270  65.730  1.00  0.00    -0.258 A  
HETATM   27  C   UNL     1     -12.234  12.673  65.089  1.00  0.00    -0.539 A  
HETATM   28  F   UNL     1     -12.495  13.295  62.834  1.00  0.00    -0.526 F  
HETATM   29  C   UNL     1     -11.512  11.984  66.064  1.00  0.00    -0.399 A  
HETATM   30  C   UNL     1     -10.643  11.954  63.422  1.00  0.00    -0.485 A  
HETATM   31  C   UNL     1     -11.797  12.646  63.775  1.00  0.00    -0.498 A  
HETATM   32  C   UNL     1      -9.914  11.270  64.401  1.00  0.00    -0.338 A  
ENDBRANCH  14  26
ENDBRANCH  12  13
ENDBRANCH  11  12
ENDBRANCH   3  11
TORSDOF 6
ENDMDL
MODEL      134
REMARK 921   NORMALIZED FREE ENERGY PREDICTED BY IDOCK:   -5.22 KCAL/MOL
REMARK 922        TOTAL FREE ENERGY PREDICTED BY IDOCK:   -8.85 KCAL/MOL
REMARK 923 INTER-LIGAND FREE ENERGY PREDICTED BY IDOCK:   -6.91 KCAL/MOL
REMARK 924 INTRA-LIGAND FREE ENERGY PREDICTED BY IDOCK:   -1.94 KCAL/MOL
REMARK 927      BINDING AFFINITY PREDICTED BY RF-SCORE:    0.00 PKD
ROOT
HETATM    1  O   UNL     1      -6.137  13.528  69.773  1.00  0.00    -0.115 OA 
HETATM    2  H   UNL     1      -5.955  14.438  69.979  1.00  0.00     0.000 HD 
HETATM    3  C   UNL     1      -6.645  13.426  68.445  1.00  0.00    -0.094 C  
ENDROOT
BRANCH   3   4
HETATM    4  C   UNL     1      -7.845  14.333  68.267  1.00  0.00    -0.141 A  
HETATM    5  C   UNL     1      -8.538  14.395  67.046  1.00  0.00    -0.226 A  
HETATM    6  C   UNL     1      -8.281  15.137  69.334  1.00  0.00    -0.197 A  
HETATM    7  C   UNL     1      -9.656  15.215  66.903  1.00  0.00    -0.252 A  
HETATM    8  F   UNL     1     -11.169  16.753  67.850  1.00  0.00    -0.327 F  
HETATM    9  C   UNL     1      -9.403  15.955  69.191  1.00  0.00    -0.252 A  
HETATM   10  C   UNL     1     -10.083  15.981  67.979  1.00  0.00    -0.240 A  
ENDBRANCH   3   4
BRANCH   3  11
HETATM   11  C   UNL     1      -6.938  11.961  68.114  1.00  0.00    -0.078 C  
BRANCH  11  12
HETATM   12  C   UNL     1      -7.325  11.085  69.319  1.00  0.00    -0.113 C  
BRANCH  12  13
HETATM   13  C   UNL     1      -8.460  10.155  68.901  1.00  0.00    -0.139 C  
HETATM   14  N   UNL     1      -9.661  10.679  67.295  1.00  0.00    -0.162 N  
HETATM   15  O   UNL     1     -10.541  11.553  69.302  1.00  0.00    -0.181 OA 
HETATM   16  C   UNL     1      -9.775  10.908  68.627  1.00  0.00    -0.185 C  
HETATM   17  C   UNL     1      -8.590   9.680  67.403  1.00  0.00    -0.125 C  
BRANCH  17  18
HETATM   18  C   UNL     1      -8.991   8.129  67.282  1.00  0.00    -0.149 A  
HETATM   19  H   UNL     1      -9.720   3.492  67.981  1.00  0.00     0.000 HD 
HETATM   20  C   UNL     1     -10.616   6.366  66.723  1.00  0.00    -0.328 A  
HETATM   21  C   UNL     1     -10.186   7.697  66.669  1.00  0.00    -0.272 A  
HETATM   22  C   UNL     1      -8.218   7.128  67.910  1.00  0.00    -0.119 A  
HETATM   23  C   UNL     1      -9.843   5.429  67.392  1.00  0.00    -0.154 A  
HETATM   24  O   UNL     1     -10.249   4.134  67.523  1.00  0.00     0.014 OA 
HETATM   25  C   UNL     1      -8.638   5.793  67.969  1.00  0.00    -0.105 A  
ENDBRANCH  17  18
BRANCH  14  26
HETATM   26  C   UNL     1     -10.296  11.263  66.204  1.00  0.00    -0.251 A  
HETATM   27  C   UNL     1     -12.101  12.633  65.317  1.00  0.00    -0.519 A  
HETATM   28  F   UNL     1     -12.215  13.036  63.001  1.00  0.00    -0.607 F  
HETATM   29  C   UNL     1     -11.455  12.029  66.396  1.00  0.00    -0.417 A  
HETATM   30  C   UNL     1     -10.435  11.723  63.826  1.00  0.00    -0.466 A  
HETATM   31  C   UNL     1     -11.590  12.469  64.041  1.00  0.00    -0.413 A  
HETATM   32  C   UNL     1      -9.782  11.124  64.910  1.00  0.00    -0.297 A  
ENDBRANCH  14  26
ENDBRANCH  12  13
ENDBRANCH  11  12
ENDBRANCH   3  11
TORSDOF 6
ENDMDL
MODEL      135
REMARK 921   NORMALIZED FREE ENERGY PREDICTED BY IDOCK:   -5.19 KCAL/MOL
REMARK 922        TOTAL FREE ENERGY PREDICTED BY IDOCK:   -8.82 KCAL/MOL
REMARK 923 INTER-LIGAND FREE ENERGY PREDICTED BY IDOCK:   -7.63 KCAL/MOL
REMARK 924 INTRA-LIGAND FREE ENERGY PREDICTED BY IDOCK:   -1.19 KCAL/MOL
REMARK 927      BINDING AFFINITY PREDICTED BY RF-SCORE:    0.00 PKD
ROOT
HETATM    1  O   UNL     1     -12.299   6.728  69.957  1.00  0.00    -0.605 OA 
HETATM    2  H   UNL     1     -12.813   5.964  70.191  1.00  0.00     0.000 HD 
HETATM    3  C   UNL     1     -11.203   6.337  69.133  1.00  0.00    -0.371 C  
ENDROOT
BRANCH   3   4
HETATM    4  C   UNL     1     -10.392   5.252  69.809  1.00  0.00    -0.369 A  
HETATM    5  C   UNL     1     -10.333   5.150  71.209  1.00  0.00    -0.276 A  
HETATM    6  C   UNL     1      -9.675   4.326  69.031  1.00  0.00    -0.209 A  
HETATM    7  C   UNL     1      -9.602   4.131  71.818  1.00  0.00    -0.223 A  
HETATM    8  F   UNL     1      -8.238   2.221  71.612  1.00  0.00    -0.049 F  
HETATM    9  C   UNL     1      -8.947   3.304  69.642  1.00  0.00    -0.175 A  
HETATM   10  C   UNL     1      -8.923   3.212  71.028  1.00  0.00    -0.097 A  
ENDBRANCH   3   4
BRANCH   3  11
HETATM   11  C   UNL     1     -10.375   7.568  68.756  1.00  0.00    -0.212 C  
BRANCH  11  12
HETATM   12  C   UNL     1     -10.308   7.873  67.249  1.00  0.00    -0.377 C  
BRANCH  12  13
HETATM   13  C   UNL     1      -9.330   9.024  67.027  1.00  0.00    -0.190 C  
HETATM   14  N   UNL     1     -10.029  10.811  66.244  1.00  0.00    -0.215 N  
HETATM   15  O   UNL     1      -9.373   9.351  64.510  1.00  0.00    -0.189 OA 
HETATM   16  C   UNL     1      -9.513   9.702  65.656  1.00  0.00    -0.255 C  
HETATM   17  C   UNL     1      -9.639  10.455  67.614  1.00  0.00    -0.149 C  
BRANCH  17  18
HETATM   18  C   UNL     1      -8.334  11.159  68.233  1.00  0.00    -0.143 A  
HETATM   19  H   UNL     1      -5.163  14.166  70.081  1.00  0.00     0.000 HD 
HETATM   20  C   UNL     1      -6.451  11.180  69.819  1.00  0.00    -0.137 A  
HETATM   21  C   UNL     1      -7.479  10.509  69.148  1.00  0.00    -0.114 A  
HETATM   22  C   UNL     1      -8.059  12.521  67.986  1.00  0.00    -0.164 A  
HETATM   23  C   UNL     1      -6.250  12.531  69.576  1.00  0.00    -0.120 A  
HETATM   24  O   UNL     1      -5.300  13.242  70.247  1.00  0.00    -0.097 OA 
HETATM   25  C   UNL     1      -7.031  13.203  68.650  1.00  0.00    -0.102 A  
ENDBRANCH  17  18
BRANCH  14  26
HETATM   26  C   UNL     1     -10.754  11.876  65.719  1.00  0.00    -0.284 A  
HETATM   27  C   UNL     1     -11.996  13.940  66.069  1.00  0.00    -0.436 A  
HETATM   28  F   UNL     1     -12.902  15.070  64.215  1.00  0.00    -0.382 F  
HETATM   29  C   UNL     1     -11.274  12.858  66.575  1.00  0.00    -0.340 A  
HETATM   30  C   UNL     1     -11.684  13.085  63.833  1.00  0.00    -0.531 A  
HETATM   31  C   UNL     1     -12.200  14.040  64.702  1.00  0.00    -0.435 A  
HETATM   32  C   UNL     1     -10.953  12.004  64.340  1.00  0.00    -0.385 A  
ENDBRANCH  14  26
ENDBRANCH  12  13
ENDBRANCH  11  12
ENDBRANCH   3  11
TORSDOF 6
ENDMDL
MODEL      136
REMARK 921   NORMALIZED FREE ENERGY PREDICTED BY IDOCK:   -5.16 KCAL/MOL
REMARK 922        TOTAL FREE ENERGY PREDICTED BY IDOCK:   -8.77 KCAL/MOL
REMARK 923 INTER-LIGAND FREE ENERGY PREDICTED BY IDOCK:   -7.72 KCAL/MOL
REMARK 924 INTRA-LIGAND FREE ENERGY PREDICTED BY IDOCK:   -1.05 KCAL/MOL
REMARK 927      BINDING AFFINITY PREDICTED BY RF-SCORE:    0.00 PKD
ROOT
HETATM    1  O   UNL     1     -10.236  17.870  66.302  1.00  0.00    -0.349 OA 
HETATM    2  H   UNL     1      -9.630  17.891  65.570  1.00  0.00     0.000 HD 
HETATM    3  C   UNL     1      -9.528  18.086  67.520  1.00  0.00    -0.262 C  
ENDROOT
BRANCH   3   4
HETATM    4  C   UNL     1      -8.391  17.095  67.655  1.00  0.00    -0.197 A  
HETATM    5  C   UNL     1      -7.338  17.311  68.559  1.00  0.00    -0.235 A  
HETATM    6  C   UNL     1      -8.375  15.934  66.862  1.00  0.00    -0.281 A  
HETATM    7  C   UNL     1      -6.310  16.378  68.691  1.00  0.00    -0.133 A  
HETATM    8  F   UNL     1      -5.354  14.321  68.057  1.00  0.00    -0.100 F  
HETATM    9  C   UNL     1      -7.348  14.999  66.998  1.00  0.00     0.048 A  
HETATM   10  C   UNL     1      -6.329  15.227  67.916  1.00  0.00    -0.157 A  
ENDBRANCH   3   4
BRANCH   3  11
HETATM   11  C   UNL     1     -10.504  18.053  68.699  1.00  0.00    -0.236 C  
BRANCH  11  12
HETATM   12  C   UNL     1     -11.635  17.015  68.579  1.00  0.00     0.521 C  
BRANCH  12  13
HETATM   13  C   UNL     1     -11.024  15.672  68.186  1.00  0.00    -0.314 C  
HETATM   14  N   UNL     1     -11.538  13.972  69.254  1.00  0.00    -0.287 N  
HETATM   15  O   UNL     1      -9.667  15.025  70.231  1.00  0.00     0.092 OA 
HETATM   16  C   UNL     1     -10.528  14.866  69.401  1.00  0.00    -0.222 C  
HETATM   17  C   UNL     1     -11.950  14.424  67.918  1.00  0.00    -0.313 C  
BRANCH  17  18
HETATM   18  C   UNL     1     -11.469  13.562  66.650  1.00  0.00    -0.366 A  
HETATM   19  H   UNL     1     -10.409  11.941  62.319  1.00  0.00     0.000 HD 
HETATM   20  C   UNL     1      -9.795  12.159  65.516  1.00  0.00    -0.240 A  
HETATM   21  C   UNL     1     -10.307  12.763  66.669  1.00  0.00    -0.252 A  
HETATM   22  C   UNL     1     -12.125  13.676  65.405  1.00  0.00    -0.429 A  
HETATM   23  C   UNL     1     -10.451  12.337  64.307  1.00  0.00    -0.346 A  
HETATM   24  O   UNL     1      -9.960  11.818  63.146  1.00  0.00    -0.409 OA 
HETATM   25  C   UNL     1     -11.623  13.073  64.245  1.00  0.00    -0.437 A  
ENDBRANCH  17  18
BRANCH  14  26
HETATM   26  C   UNL     1     -12.050  13.013  70.121  1.00  0.00    -0.307 A  
HETATM   27  C   UNL     1     -13.315  12.464  72.127  1.00  0.00    -0.508 A  
HETATM   28  F   UNL     1     -13.609  10.208  72.726  1.00  0.00    -0.265 F  
HETATM   29  C   UNL     1     -12.784  13.410  71.249  1.00  0.00    -0.424 A  
HETATM   30  C   UNL     1     -12.397  10.699  70.761  1.00  0.00    -0.472 A  
HETATM   31  C   UNL     1     -13.111  11.117  71.879  1.00  0.00    -0.408 A  
HETATM   32  C   UNL     1     -11.871  11.647  69.876  1.00  0.00    -0.434 A  
ENDBRANCH  14  26
ENDBRANCH  12  13
ENDBRANCH  11  12
ENDBRANCH   3  11
TORSDOF 6
ENDMDL
MODEL      137
REMARK 921   NORMALIZED FREE ENERGY PREDICTED BY IDOCK:   -5.13 KCAL/MOL
REMARK 922        TOTAL FREE ENERGY PREDICTED BY IDOCK:   -8.73 KCAL/MOL
REMARK 923 INTER-LIGAND FREE ENERGY PREDICTED BY IDOCK:   -6.85 KCAL/MOL
REMARK 924 INTRA-LIGAND FREE ENERGY PREDICTED BY IDOCK:   -1.88 KCAL/MOL
REMARK 927      BINDING AFFINITY PREDICTED BY RF-SCORE:    0.00 PKD
ROOT
HETATM    1  O   UNL     1      -5.488   7.892  68.152  1.00  0.00    -0.030 OA 
HETATM    2  H   UNL     1      -5.210   7.483  68.963  1.00  0.00     0.000 HD 
HETATM    3  C   UNL     1      -6.860   7.590  67.906  1.00  0.00    -0.071 C  
ENDROOT
BRANCH   3   4
HETATM    4  C   UNL     1      -7.085   6.093  67.930  1.00  0.00    -0.078 A  
HETATM    5  C   UNL     1      -6.323   5.227  67.128  1.00  0.00    -0.040 A  
HETATM    6  C   UNL     1      -8.078   5.547  68.763  1.00  0.00    -0.099 A  
HETATM    7  C   UNL     1      -6.525   3.848  67.179  1.00  0.00    -0.041 A  
HETATM    8  F   UNL     1      -7.673   2.006  68.093  1.00  0.00    -0.053 F  
HETATM    9  C   UNL     1      -8.276   4.167  68.816  1.00  0.00    -0.081 A  
HETATM   10  C   UNL     1      -7.493   3.331  68.028  1.00  0.00    -0.054 A  
ENDBRANCH   3   4
BRANCH   3  11
HETATM   11  C   UNL     1      -7.308   8.250  66.599  1.00  0.00    -0.082 C  
BRANCH  11  12
HETATM   12  C   UNL     1      -8.479   7.551  65.885  1.00  0.00    -0.153 C  
BRANCH  12  13
HETATM   13  C   UNL     1      -9.774   8.271  66.252  1.00  0.00    -0.253 C  
HETATM   14  N   UNL     1     -10.415   8.261  68.223  1.00  0.00    -0.191 N  
HETATM   15  O   UNL     1     -11.276   6.393  67.068  1.00  0.00    -0.373 OA 
HETATM   16  C   UNL     1     -10.676   7.434  67.180  1.00  0.00    -0.330 C  
HETATM   17  C   UNL     1      -9.794   9.326  67.424  1.00  0.00    -0.178 C  
BRANCH  17  18
HETATM   18  C   UNL     1     -10.680  10.619  67.072  1.00  0.00    -0.317 A  
HETATM   19  H   UNL     1     -12.850  14.838  67.014  1.00  0.00     0.000 HD 
HETATM   20  C   UNL     1     -11.454  12.323  65.474  1.00  0.00    -0.408 A  
HETATM   21  C   UNL     1     -10.833  11.101  65.755  1.00  0.00    -0.218 A  
HETATM   22  C   UNL     1     -11.241  11.413  68.095  1.00  0.00    -0.343 A  
HETATM   23  C   UNL     1     -11.950  13.090  66.518  1.00  0.00    -0.391 A  
HETATM   24  O   UNL     1     -12.511  14.313  66.300  1.00  0.00    -0.445 OA 
HETATM   25  C   UNL     1     -11.868  12.637  67.824  1.00  0.00    -0.381 A  
ENDBRANCH  17  18
BRANCH  14  26
HETATM   26  C   UNL     1     -10.604   8.102  69.592  1.00  0.00    -0.223 A  
HETATM   27  C   UNL     1     -10.219   8.880  71.865  1.00  0.00    -0.403 A  
HETATM   28  F   UNL     1     -11.146   7.685  73.668  1.00  0.00    -0.394 F  
HETATM   29  C   UNL     1     -10.033   9.016  70.489  1.00  0.00    -0.263 A  
HETATM   30  C   UNL     1     -11.563   6.913  71.476  1.00  0.00    -0.329 A  
HETATM   31  C   UNL     1     -10.976   7.825  72.347  1.00  0.00    -0.311 A  
HETATM   32  C   UNL     1     -11.383   7.054  70.096  1.00  0.00    -0.321 A  
ENDBRANCH  14  26
ENDBRANCH  12  13
ENDBRANCH  11  12
ENDBRANCH   3  11
TORSDOF 6
ENDMDL
MODEL      138
REMARK 921   NORMALIZED FREE ENERGY PREDICTED BY IDOCK:   -5.11 KCAL/MOL
REMARK 922        TOTAL FREE ENERGY PREDICTED BY IDOCK:   -8.71 KCAL/MOL
REMARK 923 INTER-LIGAND FREE ENERGY PREDICTED BY IDOCK:   -7.20 KCAL/MOL
REMARK 924 INTRA-LIGAND FREE ENERGY PREDICTED BY IDOCK:   -1.51 KCAL/MOL
REMARK 927      BINDING AFFINITY PREDICTED BY RF-SCORE:    0.00 PKD
ROOT
HETATM    1  O   UNL     1     -12.765   8.456  72.938  1.00  0.00    -0.647 OA 
HETATM    2  H   UNL     1     -12.939   7.926  73.707  1.00  0.00     0.000 HD 
HETATM    3  C   UNL     1     -11.987   7.710  72.005  1.00  0.00    -0.302 C  
ENDROOT
BRANCH   3   4
HETATM    4  C   UNL     1     -10.732   7.181  72.665  1.00  0.00    -0.303 A  
HETATM    5  C   UNL     1      -9.619   8.009  72.887  1.00  0.00    -0.348 A  
HETATM    6  C   UNL     1     -10.664   5.834  73.064  1.00  0.00    -0.290 A  
HETATM    7  C   UNL     1      -8.478   7.515  73.519  1.00  0.00    -0.212 A  
HETATM    8  F   UNL     1      -7.358   5.718  74.553  1.00  0.00    -0.086 F  
HETATM    9  C   UNL     1      -9.523   5.341  73.700  1.00  0.00    -0.133 A  
HETATM   10  C   UNL     1      -8.444   6.188  73.927  1.00  0.00    -0.119 A  
ENDBRANCH   3   4
BRANCH   3  11
HETATM   11  C   UNL     1     -11.706   8.563  70.765  1.00  0.00    -0.228 C  
BRANCH  11  12
HETATM   12  C   UNL     1     -11.642  10.080  71.020  1.00  0.00    -0.476 C  
BRANCH  12  13
HETATM   13  C   UNL     1     -10.905  10.738  69.856  1.00  0.00    -0.264 C  
HETATM   14  N   UNL     1      -9.805   9.558  68.555  1.00  0.00    -0.155 N  
HETATM   15  O   UNL     1      -8.464  10.262  70.363  1.00  0.00     0.074 OA 
HETATM   16  C   UNL     1      -9.466  10.216  69.692  1.00  0.00    -0.200 C  
HETATM   17  C   UNL     1     -11.110  10.211  68.383  1.00  0.00    -0.218 C  
BRANCH  17  18
HETATM   18  C   UNL     1     -11.221  11.403  67.313  1.00  0.00    -0.370 A  
HETATM   19  H   UNL     1     -11.367  15.586  65.077  1.00  0.00     0.000 HD 
HETATM   20  C   UNL     1     -10.627  12.409  65.146  1.00  0.00    -0.324 A  
HETATM   21  C   UNL     1     -10.686  11.310  66.011  1.00  0.00    -0.301 A  
HETATM   22  C   UNL     1     -11.750  12.660  67.679  1.00  0.00    -0.420 A  
HETATM   23  C   UNL     1     -11.118  13.635  65.570  1.00  0.00    -0.295 A  
HETATM   24  O   UNL     1     -11.031  14.746  64.786  1.00  0.00    -0.390 OA 
HETATM   25  C   UNL     1     -11.698  13.765  66.821  1.00  0.00    -0.420 A  
ENDBRANCH  17  18
BRANCH  14  26
HETATM   26  C   UNL     1      -9.158   8.549  67.849  1.00  0.00    -0.140 A  
HETATM   27  C   UNL     1      -7.266   7.812  66.507  1.00  0.00    -0.086 A  
HETATM   28  F   UNL     1      -7.185   5.585  65.751  1.00  0.00    -0.063 F  
HETATM   29  C   UNL     1      -7.937   8.812  67.211  1.00  0.00    -0.097 A  
HETATM   30  C   UNL     1      -9.024   6.255  67.071  1.00  0.00    -0.115 A  
HETATM   31  C   UNL     1      -7.820   6.544  66.437  1.00  0.00    -0.104 A  
HETATM   32  C   UNL     1      -9.692   7.257  67.784  1.00  0.00    -0.167 A  
ENDBRANCH  14  26
ENDBRANCH  12  13
ENDBRANCH  11  12
ENDBRANCH   3  11
TORSDOF 6
ENDMDL
MODEL      139
REMARK 921   NORMALIZED FREE ENERGY PREDICTED BY IDOCK:   -5.11 KCAL/MOL
REMARK 922        TOTAL FREE ENERGY PREDICTED BY IDOCK:   -8.71 KCAL/MOL
REMARK 923 INTER-LIGAND FREE ENERGY PREDICTED BY IDOCK:   -7.15 KCAL/MOL
REMARK 924 INTRA-LIGAND FREE ENERGY PREDICTED BY IDOCK:   -1.56 KCAL/MOL
REMARK 927      BINDING AFFINITY PREDICTED BY RF-SCORE:    0.00 PKD
ROOT
HETATM    1  O   UNL     1     -10.349  10.239  70.868  1.00  0.00    -0.242 OA 
HETATM    2  H   UNL     1     -11.221   9.937  71.095  1.00  0.00     0.000 HD 
HETATM    3  C   UNL     1      -9.838   9.466  69.784  1.00  0.00    -0.201 C  
ENDROOT
BRANCH   3   4
HETATM    4  C   UNL     1      -9.896   7.990  70.113  1.00  0.00    -0.184 A  
HETATM    5  C   UNL     1      -8.742   7.278  70.480  1.00  0.00    -0.148 A  
HETATM    6  C   UNL     1     -11.122   7.304  70.047  1.00  0.00    -0.262 A  
HETATM    7  C   UNL     1      -8.814   5.924  70.804  1.00  0.00    -0.140 A  
HETATM    8  F   UNL     1     -10.113   3.979  71.087  1.00  0.00    -0.257 F  
HETATM    9  C   UNL     1     -11.193   5.949  70.375  1.00  0.00    -0.307 A  
HETATM   10  C   UNL     1     -10.040   5.274  70.756  1.00  0.00    -0.224 A  
ENDBRANCH   3   4
BRANCH   3  11
HETATM   11  C   UNL     1      -8.433   9.952  69.420  1.00  0.00    -0.169 C  
BRANCH  11  12
HETATM   12  C   UNL     1      -8.351  11.417  68.952  1.00  0.00    -0.042 C  
BRANCH  12  13
HETATM   13  C   UNL     1      -8.681  11.472  67.463  1.00  0.00    -0.145 C  
HETATM   14  N   UNL     1      -8.671   9.720  66.356  1.00  0.00    -0.130 N  
HETATM   15  O   UNL     1      -6.528  10.707  66.356  1.00  0.00    -0.097 OA 
HETATM   16  C   UNL     1      -7.707  10.641  66.607  1.00  0.00    -0.132 C  
HETATM   17  C   UNL     1      -9.790  10.528  66.857  1.00  0.00    -0.193 C  
BRANCH  17  18
HETATM   18  C   UNL     1     -10.718  11.280  65.783  1.00  0.00    -0.284 A  
HETATM   19  H   UNL     1     -13.377  14.371  63.357  1.00  0.00     0.000 HD 
HETATM   20  C   UNL     1     -11.240  11.908  63.461  1.00  0.00    -0.501 A  
HETATM   21  C   UNL     1     -10.553  11.120  64.391  1.00  0.00    -0.411 A  
HETATM   22  C   UNL     1     -11.662  12.247  66.190  1.00  0.00    -0.440 A  
HETATM   23  C   UNL     1     -12.124  12.877  63.912  1.00  0.00    -0.480 A  
HETATM   24  O   UNL     1     -12.772  13.708  63.048  1.00  0.00    -0.681 OA 
HETATM   25  C   UNL     1     -12.357  13.040  65.268  1.00  0.00    -0.537 A  
ENDBRANCH  17  18
BRANCH  14  26
HETATM   26  C   UNL     1      -8.595   8.420  65.866  1.00  0.00    -0.158 A  
HETATM   27  C   UNL     1      -9.078   6.049  66.130  1.00  0.00    -0.159 A  
HETATM   28  F   UNL     1      -8.411   4.541  64.451  1.00  0.00    -0.101 F  
HETATM   29  C   UNL     1      -9.134   7.359  66.608  1.00  0.00    -0.184 A  
HETATM   30  C   UNL     1      -7.947   6.836  64.147  1.00  0.00    -0.085 A  
HETATM   31  C   UNL     1      -8.478   5.798  64.907  1.00  0.00    -0.103 A  
HETATM   32  C   UNL     1      -8.011   8.150  64.623  1.00  0.00    -0.149 A  
ENDBRANCH  14  26
ENDBRANCH  12  13
ENDBRANCH  11  12
ENDBRANCH   3  11
TORSDOF 6
ENDMDL
MODEL      140
REMARK 921   NORMALIZED FREE ENERGY PREDICTED BY IDOCK:   -5.07 KCAL/MOL
REMARK 922        TOTAL FREE ENERGY PREDICTED BY IDOCK:   -8.65 KCAL/MOL
REMARK 923 INTER-LIGAND FREE ENERGY PREDICTED BY IDOCK:   -6.81 KCAL/MOL
REMARK 924 INTRA-LIGAND FREE ENERGY PREDICTED BY IDOCK:   -1.84 KCAL/MOL
REMARK 927      BINDING AFFINITY PREDICTED BY RF-SCORE:    0.00 PKD
ROOT
HETATM    1  O   UNL     1      -8.388   4.260  65.504  1.00  0.00    -0.108 OA 
HETATM    2  H   UNL     1      -8.090   3.365  65.611  1.00  0.00     0.000 HD 
HETATM    3  C   UNL     1      -8.010   5.033  66.640  1.00  0.00    -0.107 C  
ENDROOT
BRANCH   3   4
HETATM    4  C   UNL     1      -8.509   4.383  67.913  1.00  0.00    -0.102 A  
HETATM    5  C   UNL     1      -8.723   5.134  69.081  1.00  0.00    -0.103 A  
HETATM    6  C   UNL     1      -8.761   3.000  67.942  1.00  0.00    -0.137 A  
HETATM    7  C   UNL     1      -9.207   4.526  70.240  1.00  0.00    -0.185 A  
HETATM    8  F   UNL     1      -9.957   2.584  71.341  1.00  0.00    -0.224 F  
HETATM    9  C   UNL     1      -9.248   2.394  69.101  1.00  0.00    -0.197 A  
HETATM   10  C   UNL     1      -9.473   3.164  70.236  1.00  0.00    -0.154 A  
ENDBRANCH   3   4
BRANCH   3  11
HETATM   11  C   UNL     1      -8.491   6.476  66.468  1.00  0.00    -0.120 C  
BRANCH  11  12
HETATM   12  C   UNL     1      -7.560   7.549  67.062  1.00  0.00    -0.103 C  
BRANCH  12  13
HETATM   13  C   UNL     1      -8.407   8.545  67.851  1.00  0.00    -0.126 C  
HETATM   14  N   UNL     1      -9.547   9.940  66.827  1.00  0.00    -0.175 N  
HETATM   15  O   UNL     1      -7.386  10.789  67.243  1.00  0.00    -0.091 OA 
HETATM   16  C   UNL     1      -8.282   9.984  67.315  1.00  0.00    -0.117 C  
HETATM   17  C   UNL     1      -9.942   8.714  67.532  1.00  0.00    -0.199 C  
BRANCH  17  18
HETATM   18  C   UNL     1     -10.833   8.862  68.860  1.00  0.00    -0.052 A  
HETATM   19  H   UNL     1     -12.773   8.466  73.173  1.00  0.00     0.000 HD 
HETATM   20  C   UNL     1     -11.904  10.254  70.585  1.00  0.00    -0.439 A  
HETATM   21  C   UNL     1     -11.285  10.110  69.339  1.00  0.00    -0.265 A  
HETATM   22  C   UNL     1     -11.092   7.748  69.688  1.00  0.00    -0.052 A  
HETATM   23  C   UNL     1     -12.096   9.135  71.382  1.00  0.00    -0.337 A  
HETATM   24  O   UNL     1     -12.642   9.232  72.627  1.00  0.00    -0.264 OA 
HETATM   25  C   UNL     1     -11.714   7.880  70.936  1.00  0.00    -0.271 A  
ENDBRANCH  17  18
BRANCH  14  26
HETATM   26  C   UNL     1     -10.204  10.747  65.904  1.00  0.00    -0.259 A  
HETATM   27  C   UNL     1     -10.742  11.274  63.589  1.00  0.00    -0.438 A  
HETATM   28  F   UNL     1     -12.146  13.103  63.118  1.00  0.00    -0.598 F  
HETATM   29  C   UNL     1     -10.083  10.484  64.532  1.00  0.00    -0.402 A  
HETATM   30  C   UNL     1     -11.668  12.608  65.376  1.00  0.00    -0.428 A  
HETATM   31  C   UNL     1     -11.523  12.334  64.020  1.00  0.00    -0.409 A  
HETATM   32  C   UNL     1     -11.013  11.810  66.321  1.00  0.00    -0.346 A  
ENDBRANCH  14  26
ENDBRANCH  12  13
ENDBRANCH  11  12
ENDBRANCH   3  11
TORSDOF 6
ENDMDL
MODEL      141
REMARK 921   NORMALIZED FREE ENERGY PREDICTED BY IDOCK:   -5.06 KCAL/MOL
REMARK 922        TOTAL FREE ENERGY PREDICTED BY IDOCK:   -8.63 KCAL/MOL
REMARK 923 INTER-LIGAND FREE ENERGY PREDICTED BY IDOCK:   -7.18 KCAL/MOL
REMARK 924 INTRA-LIGAND FREE ENERGY PREDICTED BY IDOCK:   -1.45 KCAL/MOL
REMARK 927      BINDING AFFINITY PREDICTED BY RF-SCORE:    0.00 PKD
ROOT
HETATM    1  O   UNL     1     -11.470  15.994  68.435  1.00  0.00    -0.369 OA 
HETATM    2  H   UNL     1     -11.478  15.843  69.372  1.00  0.00     0.000 HD 
HETATM    3  C   UNL     1     -10.633  15.032  67.797  1.00  0.00    -0.264 C  
ENDROOT
BRANCH   3   4
HETATM    4  C   UNL     1      -9.252  15.037  68.417  1.00  0.00    -0.193 A  
HETATM    5  C   UNL     1      -8.693  16.212  68.946  1.00  0.00    -0.248 A  
HETATM    6  C   UNL     1      -8.502  13.848  68.467  1.00  0.00    -0.127 A  
HETATM    7  C   UNL     1      -7.430  16.197  69.536  1.00  0.00    -0.084 A  
HETATM    8  F   UNL     1      -5.515  14.986  70.181  1.00  0.00    -0.103 F  
HETATM    9  C   UNL     1      -7.239  13.834  69.061  1.00  0.00    -0.063 A  
HETATM   10  C   UNL     1      -6.718  15.006  69.596  1.00  0.00    -0.177 A  
ENDBRANCH   3   4
BRANCH   3  11
HETATM   11  C   UNL     1     -10.620  15.277  66.287  1.00  0.00    -0.312 C  
BRANCH  11  12
HETATM   12  C   UNL     1     -11.787  14.637  65.513  1.00  0.00    -0.292 C  
BRANCH  12  13
HETATM   13  C   UNL     1     -11.976  13.206  66.012  1.00  0.00    -0.488 C  
HETATM   14  N   UNL     1     -10.824  11.688  65.200  1.00  0.00    -0.295 N  
HETATM   15  O   UNL     1     -12.806  11.973  63.954  1.00  0.00    -0.624 OA 
HETATM   16  C   UNL     1     -12.042  12.181  64.865  1.00  0.00    -0.272 C  
HETATM   17  C   UNL     1     -10.737  12.363  66.501  1.00  0.00    -0.236 C  
BRANCH  17  18
HETATM   18  C   UNL     1     -11.061  11.503  67.819  1.00  0.00    -0.319 A  
HETATM   19  H   UNL     1     -10.888   9.087  71.900  1.00  0.00     0.000 HD 
HETATM   20  C   UNL     1     -12.436  11.060  69.812  1.00  0.00    -0.251 A  
HETATM   21  C   UNL     1     -12.240  11.679  68.573  1.00  0.00     0.055 A  
HETATM   22  C   UNL     1     -10.105  10.616  68.360  1.00  0.00    -0.181 A  
HETATM   23  C   UNL     1     -11.446  10.232  70.322  1.00  0.00    -0.317 A  
HETATM   24  O   UNL     1     -11.566   9.653  71.550  1.00  0.00    -0.370 OA 
HETATM   25  C   UNL     1     -10.291   9.989  69.598  1.00  0.00    -0.274 A  
ENDBRANCH  17  18
BRANCH  14  26
HETATM   26  C   UNL     1      -9.933  10.882  64.498  1.00  0.00    -0.317 A  
HETATM   27  C   UNL     1      -8.435  10.569  62.606  1.00  0.00    -0.216 A  
HETATM   28  F   UNL     1      -7.270   8.537  62.378  1.00  0.00    -0.096 F  
HETATM   29  C   UNL     1      -9.338  11.357  63.320  1.00  0.00    -0.267 A  
HETATM   30  C   UNL     1      -8.696   8.812  64.240  1.00  0.00    -0.038 A  
HETATM   31  C   UNL     1      -8.127   9.301  63.068  1.00  0.00    -0.157 A  
HETATM   32  C   UNL     1      -9.596   9.605  64.960  1.00  0.00    -0.284 A  
ENDBRANCH  14  26
ENDBRANCH  12  13
ENDBRANCH  11  12
ENDBRANCH   3  11
TORSDOF 6
ENDMDL
MODEL      142
REMARK 921   NORMALIZED FREE ENERGY PREDICTED BY IDOCK:   -5.03 KCAL/MOL
REMARK 922        TOTAL FREE ENERGY PREDICTED BY IDOCK:   -8.60 KCAL/MOL
REMARK 923 INTER-LIGAND FREE ENERGY PREDICTED BY IDOCK:   -7.17 KCAL/MOL
REMARK 924 INTRA-LIGAND FREE ENERGY PREDICTED BY IDOCK:   -1.42 KCAL/MOL
REMARK 927      BINDING AFFINITY PREDICTED BY RF-SCORE:    0.00 PKD
ROOT
HETATM    1  O   UNL     1      -7.218  10.565  64.254  1.00  0.00    -0.331 OA 
HETATM    2  H   UNL     1      -7.146   9.924  63.556  1.00  0.00     0.000 HD 
HETATM    3  C   UNL     1      -6.556  10.083  65.421  1.00  0.00    -0.110 C  
ENDROOT
BRANCH   3   4
HETATM    4  C   UNL     1      -7.086   8.717  65.804  1.00  0.00    -0.080 A  
HETATM    5  C   UNL     1      -8.406   8.337  65.510  1.00  0.00    -0.163 A  
HETATM    6  C   UNL     1      -6.251   7.804  66.473  1.00  0.00    -0.046 A  
HETATM    7  C   UNL     1      -8.873   7.067  65.847  1.00  0.00    -0.126 A  
HETATM    8  F   UNL     1      -8.464   4.947  66.789  1.00  0.00    -0.107 F  
HETATM    9  C   UNL     1      -6.719   6.532  66.806  1.00  0.00    -0.060 A  
HETATM   10  C   UNL     1      -8.023   6.174  66.484  1.00  0.00    -0.105 A  
ENDBRANCH   3   4
BRANCH   3  11
HETATM   11  C   UNL     1      -6.671  11.115  66.545  1.00  0.00    -0.128 C  
BRANCH  11  12
HETATM   12  C   UNL     1      -6.974  10.532  67.937  1.00  0.00    -0.077 C  
BRANCH  12  13
HETATM   13  C   UNL     1      -8.300  11.108  68.429  1.00  0.00    -0.149 C  
HETATM   14  N   UNL     1      -9.688  11.781  67.045  1.00  0.00    -0.184 N  
HETATM   15  O   UNL     1      -8.214  13.522  67.648  1.00  0.00    -0.151 OA 
HETATM   16  C   UNL     1      -8.685  12.412  67.706  1.00  0.00    -0.176 C  
HETATM   17  C   UNL     1      -9.665  10.560  67.861  1.00  0.00    -0.153 C  
BRANCH  17  18
HETATM   18  C   UNL     1     -10.784  10.395  69.003  1.00  0.00    -0.260 A  
HETATM   19  H   UNL     1     -13.263   9.300  72.898  1.00  0.00     0.000 HD 
HETATM   20  C   UNL     1     -12.507  11.353  70.476  1.00  0.00    -0.381 A  
HETATM   21  C   UNL     1     -11.660  11.440  69.366  1.00  0.00    -0.391 A  
HETATM   22  C   UNL     1     -10.849   9.226  69.791  1.00  0.00    -0.239 A  
HETATM   23  C   UNL     1     -12.502  10.199  71.247  1.00  0.00    -0.406 A  
HETATM   24  O   UNL     1     -13.267  10.090  72.370  1.00  0.00    -0.364 OA 
HETATM   25  C   UNL     1     -11.696   9.127  70.902  1.00  0.00    -0.341 A  
ENDBRANCH  17  18
BRANCH  14  26
HETATM   26  C   UNL     1     -10.422  12.148  65.922  1.00  0.00    -0.254 A  
HETATM   27  C   UNL     1     -11.861  13.754  64.793  1.00  0.00    -0.413 A  
HETATM   28  F   UNL     1     -12.609  13.298  62.609  1.00  0.00    -0.254 F  
HETATM   29  C   UNL     1     -11.126  13.361  65.913  1.00  0.00    -0.293 A  
HETATM   30  C   UNL     1     -11.196  11.728  63.662  1.00  0.00    -0.519 A  
HETATM   31  C   UNL     1     -11.895  12.930  63.680  1.00  0.00    -0.532 A  
HETATM   32  C   UNL     1     -10.452  11.338  64.782  1.00  0.00    -0.384 A  
ENDBRANCH  14  26
ENDBRANCH  12  13
ENDBRANCH  11  12
ENDBRANCH   3  11
TORSDOF 6
ENDMDL
MODEL      143
REMARK 921   NORMALIZED FREE ENERGY PREDICTED BY IDOCK:   -4.98 KCAL/MOL
REMARK 922        TOTAL FREE ENERGY PREDICTED BY IDOCK:   -8.53 KCAL/MOL
REMARK 923 INTER-LIGAND FREE ENERGY PREDICTED BY IDOCK:   -7.12 KCAL/MOL
REMARK 924 INTRA-LIGAND FREE ENERGY PREDICTED BY IDOCK:   -1.42 KCAL/MOL
REMARK 927      BINDING AFFINITY PREDICTED BY RF-SCORE:    0.00 PKD
ROOT
HETATM    1  O   UNL     1     -11.434  17.420  66.718  1.00  0.00     0.669 OA 
HETATM    2  H   UNL     1     -11.120  18.107  66.142  1.00  0.00     0.000 HD 
HETATM    3  C   UNL     1     -10.682  17.426  67.930  1.00  0.00    -0.351 C  
ENDROOT
BRANCH   3   4
HETATM    4  C   UNL     1      -9.201  17.331  67.635  1.00  0.00    -0.229 A  
HETATM    5  C   UNL     1      -8.694  16.373  66.740  1.00  0.00    -0.258 A  
HETATM    6  C   UNL     1      -8.302  18.209  68.266  1.00  0.00    -0.301 A  
HETATM    7  C   UNL     1      -7.330  16.312  66.459  1.00  0.00    -0.118 A  
HETATM    8  F   UNL     1      -5.158  17.164  66.790  1.00  0.00    -0.140 F  
HETATM    9  C   UNL     1      -6.937  18.150  67.980  1.00  0.00    -0.217 A  
HETATM   10  C   UNL     1      -6.465  17.207  67.075  1.00  0.00    -0.190 A  
ENDBRANCH   3   4
BRANCH   3  11
HETATM   11  C   UNL     1     -11.188  16.318  68.858  1.00  0.00    -0.337 C  
BRANCH  11  12
HETATM   12  C   UNL     1     -12.110  15.281  68.192  1.00  0.00     0.052 C  
BRANCH  12  13
HETATM   13  C   UNL     1     -11.248  14.158  67.621  1.00  0.00    -0.315 C  
HETATM   14  N   UNL     1     -11.171  12.337  68.608  1.00  0.00    -0.239 N  
HETATM   15  O   UNL     1      -9.500  13.788  69.425  1.00  0.00     0.403 OA 
HETATM   16  C   UNL     1     -10.403  13.452  68.698  1.00  0.00    -0.205 C  
HETATM   17  C   UNL     1     -11.865  12.728  67.374  1.00  0.00    -0.342 C  
BRANCH  17  18
HETATM   18  C   UNL     1     -11.368  12.075  65.992  1.00  0.00    -0.398 A  
HETATM   19  H   UNL     1      -9.845  11.248  61.575  1.00  0.00     0.000 HD 
HETATM   20  C   UNL     1      -9.945  10.498  64.749  1.00  0.00    -0.412 A  
HETATM   21  C   UNL     1     -10.516  10.952  65.943  1.00  0.00    -0.285 A  
HETATM   22  C   UNL     1     -11.662  12.687  64.754  1.00  0.00    -0.402 A  
HETATM   23  C   UNL     1     -10.228  11.162  63.564  1.00  0.00    -0.390 A  
HETATM   24  O   UNL     1      -9.651  10.793  62.386  1.00  0.00    -0.224 OA 
HETATM   25  C   UNL     1     -11.098  12.240  63.553  1.00  0.00    -0.533 A  
ENDBRANCH  17  18
BRANCH  14  26
HETATM   26  C   UNL     1     -11.303  11.241  69.455  1.00  0.00    -0.292 A  
HETATM   27  C   UNL     1     -10.638   8.986  70.082  1.00  0.00    -0.250 A  
HETATM   28  F   UNL     1     -11.644   7.961  71.946  1.00  0.00    -0.268 F  
HETATM   29  C   UNL     1     -10.529  10.092  69.239  1.00  0.00    -0.246 A  
HETATM   30  C   UNL     1     -12.298  10.159  71.384  1.00  0.00    -0.515 A  
HETATM   31  C   UNL     1     -11.527   9.026  71.143  1.00  0.00    -0.308 A  
HETATM   32  C   UNL     1     -12.182  11.272  70.543  1.00  0.00    -0.474 A  
ENDBRANCH  14  26
ENDBRANCH  12  13
ENDBRANCH  11  12
ENDBRANCH   3  11
TORSDOF 6
ENDMDL
MODEL      144
REMARK 921   NORMALIZED FREE ENERGY PREDICTED BY IDOCK:   -4.97 KCAL/MOL
REMARK 922        TOTAL FREE ENERGY PREDICTED BY IDOCK:   -8.51 KCAL/MOL
REMARK 923 INTER-LIGAND FREE ENERGY PREDICTED BY IDOCK:   -6.80 KCAL/MOL
REMARK 924 INTRA-LIGAND FREE ENERGY PREDICTED BY IDOCK:   -1.71 KCAL/MOL
REMARK 927      BINDING AFFINITY PREDICTED BY RF-SCORE:    0.00 PKD
ROOT
HETATM    1  O   UNL     1      -7.287  16.282  68.353  1.00  0.00    -0.147 OA 
HETATM    2  H   UNL     1      -7.616  17.152  68.545  1.00  0.00     0.000 HD 
HETATM    3  C   UNL     1      -8.277  15.537  67.648  1.00  0.00    -0.154 C  
ENDROOT
BRANCH   3   4
HETATM    4  C   UNL     1      -9.581  15.528  68.418  1.00  0.00    -0.199 A  
HETATM    5  C   UNL     1      -9.600  15.596  69.822  1.00  0.00    -0.192 A  
HETATM    6  C   UNL     1     -10.803  15.445  67.727  1.00  0.00    -0.302 A  
HETATM    7  C   UNL     1     -10.809  15.612  70.517  1.00  0.00    -0.347 A  
HETATM    8  F   UNL     1     -13.164  15.591  70.477  1.00  0.00    -0.454 F  
HETATM    9  C   UNL     1     -12.012  15.465  68.425  1.00  0.00    -0.156 A  
HETATM   10  C   UNL     1     -12.003  15.555  69.812  1.00  0.00    -0.364 A  
ENDBRANCH   3   4
BRANCH   3  11
HETATM   11  C   UNL     1      -7.747  14.135  67.338  1.00  0.00    -0.189 C  
BRANCH  11  12
HETATM   12  C   UNL     1      -7.500  13.244  68.568  1.00  0.00    -0.115 C  
BRANCH  12  13
HETATM   13  C   UNL     1      -8.107  11.868  68.303  1.00  0.00    -0.154 C  
HETATM   14  N   UNL     1      -9.546  11.663  66.826  1.00  0.00    -0.189 N  
HETATM   15  O   UNL     1     -10.556  12.185  68.893  1.00  0.00    -0.212 OA 
HETATM   16  C   UNL     1      -9.640  11.914  68.156  1.00  0.00    -0.195 C  
HETATM   17  C   UNL     1      -8.129  11.276  66.842  1.00  0.00    -0.155 C  
BRANCH  17  18
HETATM   18  C   UNL     1      -7.775   9.709  66.808  1.00  0.00    -0.098 A  
HETATM   19  H   UNL     1      -6.328   5.293  67.767  1.00  0.00     0.000 HD 
HETATM   20  C   UNL     1      -8.401   7.374  66.346  1.00  0.00    -0.127 A  
HETATM   21  C   UNL     1      -8.623   8.749  66.217  1.00  0.00    -0.144 A  
HETATM   22  C   UNL     1      -6.649   9.205  67.494  1.00  0.00    -0.065 A  
HETATM   23  C   UNL     1      -7.305   6.927  67.069  1.00  0.00    -0.086 A  
HETATM   24  O   UNL     1      -7.079   5.599  67.272  1.00  0.00    -0.071 OA 
HETATM   25  C   UNL     1      -6.415   7.831  67.627  1.00  0.00    -0.055 A  
ENDBRANCH  17  18
BRANCH  14  26
HETATM   26  C   UNL     1     -10.470  11.808  65.796  1.00  0.00    -0.260 A  
HETATM   27  C   UNL     1     -12.647  12.579  65.028  1.00  0.00    -0.424 A  
HETATM   28  F   UNL     1     -13.247  12.281  62.772  1.00  0.00    -0.161 F  
HETATM   29  C   UNL     1     -11.710  12.413  66.048  1.00  0.00    -0.469 A  
HETATM   30  C   UNL     1     -11.117  11.542  63.474  1.00  0.00    -0.434 A  
HETATM   31  C   UNL     1     -12.345  12.135  63.751  1.00  0.00    -0.532 A  
HETATM   32  C   UNL     1     -10.174  11.384  64.496  1.00  0.00    -0.352 A  
ENDBRANCH  14  26
ENDBRANCH  12  13
ENDBRANCH  11  12
ENDBRANCH   3  11
TORSDOF 6
ENDMDL
MODEL      145
REMARK 921   NORMALIZED FREE ENERGY PREDICTED BY IDOCK:   -4.94 KCAL/MOL
REMARK 922        TOTAL FREE ENERGY PREDICTED BY IDOCK:   -8.47 KCAL/MOL
REMARK 923 INTER-LIGAND FREE ENERGY PREDICTED BY IDOCK:   -7.30 KCAL/MOL
REMARK 924 INTRA-LIGAND FREE ENERGY PREDICTED BY IDOCK:   -1.17 KCAL/MOL
REMARK 927      BINDING AFFINITY PREDICTED BY RF-SCORE:    0.00 PKD
ROOT
HETATM    1  O   UNL     1     -10.772  12.111  69.298  1.00  0.00    -0.417 OA 
HETATM    2  H   UNL     1     -10.975  12.853  68.740  1.00  0.00     0.000 HD 
HETATM    3  C   UNL     1     -11.922  11.753  70.061  1.00  0.00    -0.344 C  
ENDROOT
BRANCH   3   4
HETATM    4  C   UNL     1     -12.446  12.952  70.824  1.00  0.00    -0.370 A  
HETATM    5  C   UNL     1     -13.415  12.810  71.831  1.00  0.00    -0.452 A  
HETATM    6  C   UNL     1     -11.966  14.239  70.522  1.00  0.00    -0.402 A  
HETATM    7  C   UNL     1     -13.871  13.919  72.542  1.00  0.00    -0.620 A  
HETATM    8  F   UNL     1     -13.784  16.240  72.941  1.00  0.00    -0.576 F  
HETATM    9  C   UNL     1     -12.420  15.348  71.237  1.00  0.00    -0.460 A  
HETATM   10  C   UNL     1     -13.363  15.177  72.244  1.00  0.00    -0.408 A  
ENDBRANCH   3   4
BRANCH   3  11
HETATM   11  C   UNL     1     -11.595  10.559  70.961  1.00  0.00    -0.318 C  
BRANCH  11  12
HETATM   12  C   UNL     1     -11.785   9.179  70.305  1.00  0.00    -0.047 C  
BRANCH  12  13
HETATM   13  C   UNL     1     -10.457   8.746  69.689  1.00  0.00    -0.220 C  
HETATM   14  N   UNL     1      -9.564   6.990  70.333  1.00  0.00    -0.169 N  
HETATM   15  O   UNL     1      -8.850   8.810  71.653  1.00  0.00    -0.206 OA 
HETATM   16  C   UNL     1      -9.437   8.277  70.743  1.00  0.00    -0.161 C  
HETATM   17  C   UNL     1     -10.291   7.295  69.093  1.00  0.00    -0.205 C  
BRANCH  17  18
HETATM   18  C   UNL     1      -9.466   7.287  67.715  1.00  0.00    -0.143 A  
HETATM   19  H   UNL     1      -7.740   6.397  63.385  1.00  0.00     0.000 HD 
HETATM   20  C   UNL     1      -8.476   8.469  65.796  1.00  0.00    -0.167 A  
HETATM   21  C   UNL     1      -9.034   8.470  67.079  1.00  0.00    -0.157 A  
HETATM   22  C   UNL     1      -9.250   6.086  67.005  1.00  0.00    -0.124 A  
HETATM   23  C   UNL     1      -8.327   7.267  65.121  1.00  0.00    -0.075 A  
HETATM   24  O   UNL     1      -7.842   7.220  63.848  1.00  0.00    -0.122 OA 
HETATM   25  C   UNL     1      -8.690   6.073  65.722  1.00  0.00    -0.155 A  
ENDBRANCH  17  18
BRANCH  14  26
HETATM   26  C   UNL     1      -9.197   5.792  70.937  1.00  0.00    -0.156 A  
HETATM   27  C   UNL     1      -7.563   4.491  72.187  1.00  0.00    -0.089 A  
HETATM   28  F   UNL     1      -8.058   2.263  72.762  1.00  0.00    -0.050 F  
HETATM   29  C   UNL     1      -7.948   5.680  71.565  1.00  0.00    -0.117 A  
HETATM   30  C   UNL     1      -9.677   3.501  71.571  1.00  0.00    -0.237 A  
HETATM   31  C   UNL     1      -8.429   3.409  72.178  1.00  0.00    -0.079 A  
HETATM   32  C   UNL     1     -10.066   4.696  70.955  1.00  0.00    -0.257 A  
ENDBRANCH  14  26
ENDBRANCH  12  13
ENDBRANCH  11  12
ENDBRANCH   3  11
TORSDOF 6
ENDMDL
MODEL      146
REMARK 921   NORMALIZED FREE ENERGY PREDICTED BY IDOCK:   -4.89 KCAL/MOL
REMARK 922        TOTAL FREE ENERGY PREDICTED BY IDOCK:   -8.42 KCAL/MOL
REMARK 923 INTER-LIGAND FREE ENERGY PREDICTED BY IDOCK:   -6.53 KCAL/MOL
REMARK 924 INTRA-LIGAND FREE ENERGY PREDICTED BY IDOCK:   -1.88 KCAL/MOL
REMARK 927      BINDING AFFINITY PREDICTED BY RF-SCORE:    0.00 PKD
ROOT
HETATM    1  O   UNL     1      -6.102   8.860  69.504  1.00  0.00    -0.036 OA 
HETATM    2  H   UNL     1      -6.232   8.018  69.924  1.00  0.00     0.000 HD 
HETATM    3  C   UNL     1      -7.268   9.214  68.764  1.00  0.00    -0.074 C  
ENDROOT
BRANCH   3   4
HETATM    4  C   UNL     1      -7.635   8.110  67.794  1.00  0.00    -0.098 A  
HETATM    5  C   UNL     1      -8.901   7.501  67.826  1.00  0.00    -0.132 A  
HETATM    6  C   UNL     1      -6.697   7.673  66.842  1.00  0.00    -0.067 A  
HETATM    7  C   UNL     1      -9.234   6.503  66.911  1.00  0.00    -0.153 A  
HETATM    8  F   UNL     1      -8.626   5.163  65.072  1.00  0.00    -0.129 F  
HETATM    9  C   UNL     1      -7.033   6.677  65.924  1.00  0.00    -0.061 A  
HETATM   10  C   UNL     1      -8.300   6.106  65.964  1.00  0.00    -0.136 A  
ENDBRANCH   3   4
BRANCH   3  11
HETATM   11  C   UNL     1      -7.059  10.571  68.087  1.00  0.00    -0.082 C  
BRANCH  11  12
HETATM   12  C   UNL     1      -7.687  10.704  66.688  1.00  0.00    -0.132 C  
BRANCH  12  13
HETATM   13  C   UNL     1      -8.925  11.592  66.792  1.00  0.00    -0.181 C  
HETATM   14  N   UNL     1     -10.269  11.280  68.338  1.00  0.00    -0.188 N  
HETATM   15  O   UNL     1     -10.843   9.961  66.468  1.00  0.00    -0.061 OA 
HETATM   16  C   UNL     1     -10.208  10.789  67.074  1.00  0.00    -0.217 C  
HETATM   17  C   UNL     1      -9.263  12.332  68.143  1.00  0.00    -0.197 C  
BRANCH  17  18
HETATM   18  C   UNL     1      -9.780  13.834  67.907  1.00  0.00    -0.229 A  
HETATM   19  H   UNL     1     -10.718  18.478  68.180  1.00  0.00     0.000 HD 
HETATM   20  C   UNL     1     -10.141  15.778  66.441  1.00  0.00    -0.305 A  
HETATM   21  C   UNL     1      -9.863  14.419  66.626  1.00  0.00    -0.287 A  
HETATM   22  C   UNL     1     -10.050  14.688  68.999  1.00  0.00    -0.211 A  
HETATM   23  C   UNL     1     -10.355  16.586  67.548  1.00  0.00    -0.294 A  
HETATM   24  O   UNL     1     -10.572  17.925  67.422  1.00  0.00    -0.386 OA 
HETATM   25  C   UNL     1     -10.332  16.049  68.825  1.00  0.00    -0.237 A  
ENDBRANCH  17  18
BRANCH  14  26
HETATM   26  C   UNL     1     -10.987  10.861  69.453  1.00  0.00    -0.252 A  
HETATM   27  C   UNL     1     -12.859  11.171  70.977  1.00  0.00    -0.424 A  
HETATM   28  F   UNL     1     -13.168   9.654  72.750  1.00  0.00    -0.414 F  
HETATM   29  C   UNL     1     -12.118  11.579  69.868  1.00  0.00    -0.389 A  
HETATM   30  C   UNL     1     -11.356   9.306  71.278  1.00  0.00    -0.423 A  
HETATM   31  C   UNL     1     -12.467  10.042  71.677  1.00  0.00    -0.418 A  
HETATM   32  C   UNL     1     -10.617   9.711  70.160  1.00  0.00    -0.320 A  
ENDBRANCH  14  26
ENDBRANCH  12  13
ENDBRANCH  11  12
ENDBRANCH   3  11
TORSDOF 6
ENDMDL
MODEL      147
REMARK 921   NORMALIZED FREE ENERGY PREDICTED BY IDOCK:   -4.89 KCAL/MOL
REMARK 922        TOTAL FREE ENERGY PREDICTED BY IDOCK:   -8.41 KCAL/MOL
REMARK 923 INTER-LIGAND FREE ENERGY PREDICTED BY IDOCK:   -6.91 KCAL/MOL
REMARK 924 INTRA-LIGAND FREE ENERGY PREDICTED BY IDOCK:   -1.50 KCAL/MOL
REMARK 927      BINDING AFFINITY PREDICTED BY RF-SCORE:    0.00 PKD
ROOT
HETATM    1  O   UNL     1     -10.758  10.683  68.202  1.00  0.00    -0.192 OA 
HETATM    2  H   UNL     1     -10.920  11.603  68.378  1.00  0.00     0.000 HD 
HETATM    3  C   UNL     1     -10.018  10.547  66.991  1.00  0.00    -0.201 C  
ENDROOT
BRANCH   3   4
HETATM    4  C   UNL     1     -10.723  11.260  65.856  1.00  0.00    -0.291 A  
HETATM    5  C   UNL     1     -11.732  12.205  66.103  1.00  0.00    -0.384 A  
HETATM    6  C   UNL     1     -10.372  10.974  64.525  1.00  0.00    -0.420 A  
HETATM    7  C   UNL     1     -12.355  12.872  65.048  1.00  0.00    -0.541 A  
HETATM    8  F   UNL     1     -12.558  13.247  62.731  1.00  0.00    -0.370 F  
HETATM    9  C   UNL     1     -10.994  11.645  63.471  1.00  0.00    -0.485 A  
HETATM   10  C   UNL     1     -11.975  12.592  63.743  1.00  0.00    -0.517 A  
ENDBRANCH   3   4
BRANCH   3  11
HETATM   11  C   UNL     1      -9.757   9.066  66.708  1.00  0.00    -0.279 C  
BRANCH  11  12
HETATM   12  C   UNL     1      -8.288   8.626  66.838  1.00  0.00    -0.108 C  
BRANCH  12  13
HETATM   13  C   UNL     1      -8.246   7.109  67.004  1.00  0.00    -0.117 C  
HETATM   14  N   UNL     1      -9.199   6.239  68.625  1.00  0.00    -0.125 N  
HETATM   15  O   UNL     1      -6.973   6.792  69.177  1.00  0.00    -0.072 OA 
HETATM   16  C   UNL     1      -7.927   6.677  68.447  1.00  0.00    -0.111 C  
HETATM   17  C   UNL     1      -9.580   6.293  67.208  1.00  0.00    -0.123 C  
BRANCH  17  18
HETATM   18  C   UNL     1      -9.593   4.917  66.379  1.00  0.00    -0.177 A  
HETATM   19  H   UNL     1      -9.169   1.511  63.103  1.00  0.00     0.000 HD 
HETATM   20  C   UNL     1      -9.134   2.505  66.210  1.00  0.00    -0.105 A  
HETATM   21  C   UNL     1      -9.296   3.670  66.968  1.00  0.00    -0.223 A  
HETATM   22  C   UNL     1      -9.774   4.916  64.979  1.00  0.00     0.048 A  
HETATM   23  C   UNL     1      -9.277   2.564  64.832  1.00  0.00    -0.133 A  
HETATM   24  O   UNL     1      -9.071   1.470  64.047  1.00  0.00    -0.091 OA 
HETATM   25  C   UNL     1      -9.616   3.755  64.211  1.00  0.00    -0.166 A  
ENDBRANCH  17  18
BRANCH  14  26
HETATM   26  C   UNL     1      -9.911   5.928  69.780  1.00  0.00    -0.169 A  
HETATM   27  C   UNL     1     -10.274   4.457  71.684  1.00  0.00    -0.186 A  
HETATM   28  F   UNL     1     -11.980   4.962  73.224  1.00  0.00    -0.398 F  
HETATM   29  C   UNL     1      -9.580   4.782  70.518  1.00  0.00    -0.258 A  
HETATM   30  C   UNL     1     -11.642   6.426  71.403  1.00  0.00    -0.368 A  
HETATM   31  C   UNL     1     -11.304   5.278  72.113  1.00  0.00    -0.007 A  
HETATM   32  C   UNL     1     -10.941   6.756  70.238  1.00  0.00    -0.339 A  
ENDBRANCH  14  26
ENDBRANCH  12  13
ENDBRANCH  11  12
ENDBRANCH   3  11
TORSDOF 6
ENDMDL
MODEL      148
REMARK 921   NORMALIZED FREE ENERGY PREDICTED BY IDOCK:   -4.78 KCAL/MOL
REMARK 922        TOTAL FREE ENERGY PREDICTED BY IDOCK:   -8.26 KCAL/MOL
REMARK 923 INTER-LIGAND FREE ENERGY PREDICTED BY IDOCK:   -6.91 KCAL/MOL
REMARK 924 INTRA-LIGAND FREE ENERGY PREDICTED BY IDOCK:   -1.35 KCAL/MOL
REMARK 927      BINDING AFFINITY PREDICTED BY RF-SCORE:    0.00 PKD
ROOT
HETATM    1  O   UNL     1      -6.709  15.126  70.122  1.00  0.00    -0.157 OA 
HETATM    2  H   UNL     1      -6.415  15.937  70.520  1.00  0.00     0.000 HD 
HETATM    3  C   UNL     1      -7.023  15.349  68.750  1.00  0.00    -0.116 C  
ENDROOT
BRANCH   3   4
HETATM    4  C   UNL     1      -8.020  16.480  68.612  1.00  0.00    -0.232 A  
HETATM    5  C   UNL     1      -9.386  16.286  68.878  1.00  0.00    -0.248 A  
HETATM    6  C   UNL     1      -7.583  17.753  68.204  1.00  0.00    -0.250 A  
HETATM    7  C   UNL     1     -10.289  17.343  68.770  1.00  0.00    -0.357 A  
HETATM    8  F   UNL     1     -10.693  19.618  68.308  1.00  0.00    -0.494 F  
HETATM    9  C   UNL     1      -8.488  18.811  68.101  1.00  0.00    -0.335 A  
HETATM   10  C   UNL     1      -9.830  18.597  68.391  1.00  0.00    -0.384 A  
ENDBRANCH   3   4
BRANCH   3  11
HETATM   11  C   UNL     1      -7.496  14.042  68.109  1.00  0.00    -0.131 C  
BRANCH  11  12
HETATM   12  C   UNL     1      -7.072  12.762  68.850  1.00  0.00    -0.067 C  
BRANCH  12  13
HETATM   13  C   UNL     1      -7.933  11.603  68.353  1.00  0.00    -0.140 C  
HETATM   14  N   UNL     1      -9.335  11.947  66.866  1.00  0.00    -0.191 N  
HETATM   15  O   UNL     1     -10.287  12.307  68.995  1.00  0.00    -0.110 OA 
HETATM   16  C   UNL     1      -9.420  11.983  68.220  1.00  0.00    -0.199 C  
HETATM   17  C   UNL     1      -8.026  11.283  66.812  1.00  0.00    -0.159 C  
BRANCH  17  18
HETATM   18  C   UNL     1      -7.993   9.706  66.508  1.00  0.00    -0.112 A  
HETATM   19  H   UNL     1      -6.877   5.109  66.144  1.00  0.00     0.000 HD 
HETATM   20  C   UNL     1      -9.073   7.494  66.511  1.00  0.00    -0.201 A  
HETATM   21  C   UNL     1      -9.139   8.889  66.600  1.00  0.00    -0.192 A  
HETATM   22  C   UNL     1      -6.773   9.040  66.262  1.00  0.00    -0.070 A  
HETATM   23  C   UNL     1      -7.843   6.883  66.314  1.00  0.00    -0.101 A  
HETATM   24  O   UNL     1      -7.719   5.526  66.278  1.00  0.00    -0.096 OA 
HETATM   25  C   UNL     1      -6.695   7.645  66.168  1.00  0.00    -0.053 A  
ENDBRANCH  17  18
BRANCH  14  26
HETATM   26  C   UNL     1     -10.177  12.449  65.879  1.00  0.00    -0.251 A  
HETATM   27  C   UNL     1     -11.177  14.360  64.752  1.00  0.00    -0.391 A  
HETATM   28  F   UNL     1     -12.654  13.999  62.955  1.00  0.00    -0.286 F  
HETATM   29  C   UNL     1     -10.346  13.835  65.742  1.00  0.00    -0.315 A  
HETATM   30  C   UNL     1     -11.685  12.121  64.008  1.00  0.00    -0.515 A  
HETATM   31  C   UNL     1     -11.845  13.498  63.898  1.00  0.00    -0.411 A  
HETATM   32  C   UNL     1     -10.845  11.594  64.995  1.00  0.00    -0.346 A  
ENDBRANCH  14  26
ENDBRANCH  12  13
ENDBRANCH  11  12
ENDBRANCH   3  11
TORSDOF 6
ENDMDL
MODEL      149
REMARK 921   NORMALIZED FREE ENERGY PREDICTED BY IDOCK:   -4.77 KCAL/MOL
REMARK 922        TOTAL FREE ENERGY PREDICTED BY IDOCK:   -8.25 KCAL/MOL
REMARK 923 INTER-LIGAND FREE ENERGY PREDICTED BY IDOCK:   -6.57 KCAL/MOL
REMARK 924 INTRA-LIGAND FREE ENERGY PREDICTED BY IDOCK:   -1.68 KCAL/MOL
REMARK 927      BINDING AFFINITY PREDICTED BY RF-SCORE:    0.00 PKD
ROOT
HETATM    1  O   UNL     1     -11.318  13.682  68.161  1.00  0.00    -0.258 OA 
HETATM    2  H   UNL     1     -11.549  14.587  67.988  1.00  0.00     0.000 HD 
HETATM    3  C   UNL     1     -12.246  13.114  69.082  1.00  0.00    -0.092 C  
ENDROOT
BRANCH   3   4
HETATM    4  C   UNL     1     -12.334  13.960  70.335  1.00  0.00    -0.433 A  
HETATM    5  C   UNL     1     -12.919  13.464  71.512  1.00  0.00    -0.429 A  
HETATM    6  C   UNL     1     -11.829  15.273  70.331  1.00  0.00    -0.361 A  
HETATM    7  C   UNL     1     -12.971  14.245  72.665  1.00  0.00    -0.526 A  
HETATM    8  F   UNL     1     -12.474  16.272  73.758  1.00  0.00    -0.505 F  
HETATM    9  C   UNL     1     -11.879  16.053  71.488  1.00  0.00    -0.554 A  
HETATM   10  C   UNL     1     -12.444  15.529  72.645  1.00  0.00    -0.405 A  
ENDBRANCH   3   4
BRANCH   3  11
HETATM   11  C   UNL     1     -11.872  11.656  69.361  1.00  0.00    -0.408 C  
BRANCH  11  12
HETATM   12  C   UNL     1     -11.652  10.789  68.108  1.00  0.00    -0.276 C  
BRANCH  12  13
HETATM   13  C   UNL     1     -10.212  10.282  68.114  1.00  0.00    -0.192 C  
HETATM   14  N   UNL     1      -8.655  11.649  68.107  1.00  0.00    -0.152 N  
HETATM   15  O   UNL     1      -9.290  11.112  65.899  1.00  0.00    -0.199 OA 
HETATM   16  C   UNL     1      -9.318  11.022  67.102  1.00  0.00    -0.164 C  
HETATM   17  C   UNL     1      -9.186  10.809  69.188  1.00  0.00    -0.116 C  
BRANCH  17  18
HETATM   18  C   UNL     1      -8.246   9.642  69.766  1.00  0.00    -0.168 A  
HETATM   19  H   UNL     1      -5.804   5.643  70.518  1.00  0.00     0.000 HD 
HETATM   20  C   UNL     1      -6.122   8.882  70.752  1.00  0.00    -0.040 A  
HETATM   21  C   UNL     1      -7.018   9.901  70.411  1.00  0.00    -0.145 A  
HETATM   22  C   UNL     1      -8.550   8.283  69.532  1.00  0.00    -0.134 A  
HETATM   23  C   UNL     1      -6.447   7.565  70.459  1.00  0.00    -0.038 A  
HETATM   24  O   UNL     1      -5.582   6.544  70.719  1.00  0.00    -0.022 OA 
HETATM   25  C   UNL     1      -7.662   7.255  69.872  1.00  0.00    -0.103 A  
ENDBRANCH  17  18
BRANCH  14  26
HETATM   26  C   UNL     1      -7.822  12.763  68.103  1.00  0.00    -0.146 A  
HETATM   27  C   UNL     1      -7.559  15.183  68.146  1.00  0.00    -0.116 A  
HETATM   28  F   UNL     1      -5.397  16.110  68.110  1.00  0.00    -0.088 F  
HETATM   29  C   UNL     1      -8.376  14.051  68.139  1.00  0.00    -0.164 A  
HETATM   30  C   UNL     1      -5.611  13.759  68.091  1.00  0.00    -0.117 A  
HETATM   31  C   UNL     1      -6.184  15.026  68.115  1.00  0.00    -0.136 A  
HETATM   32  C   UNL     1      -6.430  12.624  68.092  1.00  0.00    -0.080 A  
ENDBRANCH  14  26
ENDBRANCH  12  13
ENDBRANCH  11  12
ENDBRANCH   3  11
TORSDOF 6
ENDMDL
MODEL      150
REMARK 921   NORMALIZED FREE ENERGY PREDICTED BY IDOCK:   -4.74 KCAL/MOL
REMARK 922        TOTAL FREE ENERGY PREDICTED BY IDOCK:   -8.21 KCAL/MOL
REMARK 923 INTER-LIGAND FREE ENERGY PREDICTED BY IDOCK:   -6.82 KCAL/MOL
REMARK 924 INTRA-LIGAND FREE ENERGY PREDICTED BY IDOCK:   -1.39 KCAL/MOL
REMARK 927      BINDING AFFINITY PREDICTED BY RF-SCORE:    0.00 PKD
ROOT
HETATM    1  O   UNL     1     -10.279  11.983  68.970  1.00  0.00    -0.402 OA 
HETATM    2  H   UNL     1     -10.470  12.872  69.244  1.00  0.00     0.000 HD 
HETATM    3  C   UNL     1      -9.608  12.001  67.712  1.00  0.00    -0.193 C  
ENDROOT
BRANCH   3   4
HETATM    4  C   UNL     1     -10.411  12.783  66.694  1.00  0.00    -0.270 A  
HETATM    5  C   UNL     1     -11.310  13.788  67.089  1.00  0.00    -0.344 A  
HETATM    6  C   UNL     1     -10.269  12.503  65.323  1.00  0.00    -0.302 A  
HETATM    7  C   UNL     1     -12.024  14.518  66.140  1.00  0.00    -0.323 A  
HETATM    8  F   UNL     1     -12.518  14.954  63.878  1.00  0.00    -0.489 F  
HETATM    9  C   UNL     1     -10.982  13.236  64.374  1.00  0.00    -0.413 A  
HETATM   10  C   UNL     1     -11.848  14.241  64.791  1.00  0.00    -0.429 A  
ENDBRANCH   3   4
BRANCH   3  11
HETATM   11  C   UNL     1      -9.300  10.568  67.269  1.00  0.00    -0.164 C  
BRANCH  11  12
HETATM   12  C   UNL     1      -7.870  10.086  67.571  1.00  0.00    -0.095 C  
BRANCH  12  13
HETATM   13  C   UNL     1      -7.886   8.565  67.704  1.00  0.00    -0.103 C  
HETATM   14  N   UNL     1      -8.638   7.707  69.435  1.00  0.00    -0.135 N  
HETATM   15  O   UNL     1      -6.328   8.132  69.662  1.00  0.00    -0.033 OA 
HETATM   16  C   UNL     1      -7.384   8.084  69.079  1.00  0.00    -0.084 C  
HETATM   17  C   UNL     1      -9.218   7.814  68.090  1.00  0.00    -0.138 C  
BRANCH  17  18
HETATM   18  C   UNL     1      -9.426   6.461  67.249  1.00  0.00    -0.135 A  
HETATM   19  H   UNL     1     -10.900   3.059  64.288  1.00  0.00     0.000 HD 
HETATM   20  C   UNL     1      -8.525   4.609  65.901  1.00  0.00    -0.116 A  
HETATM   21  C   UNL     1      -8.346   5.683  66.779  1.00  0.00    -0.108 A  
HETATM   22  C   UNL     1     -10.711   6.059  66.827  1.00  0.00    -0.374 A  
HETATM   23  C   UNL     1      -9.805   4.282  65.478  1.00  0.00    -0.215 A  
HETATM   24  O   UNL     1     -10.024   3.282  64.578  1.00  0.00    -0.161 OA 
HETATM   25  C   UNL     1     -10.902   4.984  65.949  1.00  0.00    -0.123 A  
ENDBRANCH  17  18
BRANCH  14  26
HETATM   26  C   UNL     1      -9.189   7.405  70.676  1.00  0.00    -0.157 A  
HETATM   27  C   UNL     1      -9.659   8.056  72.974  1.00  0.00    -0.347 A  
HETATM   28  F   UNL     1     -10.822   6.569  74.379  1.00  0.00    -0.189 F  
HETATM   29  C   UNL     1      -9.104   8.334  71.724  1.00  0.00    -0.255 A  
HETATM   30  C   UNL     1     -10.406   5.913  72.150  1.00  0.00    -0.241 A  
HETATM   31  C   UNL     1     -10.299   6.844  73.178  1.00  0.00    -0.266 A  
HETATM   32  C   UNL     1      -9.856   6.195  70.895  1.00  0.00    -0.215 A  
ENDBRANCH  14  26
ENDBRANCH  12  13
ENDBRANCH  11  12
ENDBRANCH   3  11
TORSDOF 6
ENDMDL
MODEL      151
REMARK 921   NORMALIZED FREE ENERGY PREDICTED BY IDOCK:   -4.72 KCAL/MOL
REMARK 922        TOTAL FREE ENERGY PREDICTED BY IDOCK:   -8.18 KCAL/MOL
REMARK 923 INTER-LIGAND FREE ENERGY PREDICTED BY IDOCK:   -6.52 KCAL/MOL
REMARK 924 INTRA-LIGAND FREE ENERGY PREDICTED BY IDOCK:   -1.66 KCAL/MOL
REMARK 927      BINDING AFFINITY PREDICTED BY RF-SCORE:    0.00 PKD
ROOT
HETATM    1  O   UNL     1      -8.157  14.855  68.253  1.00  0.00    -0.123 OA 
HETATM    2  H   UNL     1      -8.354  15.784  68.250  1.00  0.00     0.000 HD 
HETATM    3  C   UNL     1      -9.346  14.110  67.999  1.00  0.00    -0.203 C  
ENDROOT
BRANCH   3   4
HETATM    4  C   UNL     1     -10.432  14.495  68.981  1.00  0.00    -0.241 A  
HETATM    5  C   UNL     1     -11.677  13.844  68.986  1.00  0.00    -0.378 A  
HETATM    6  C   UNL     1     -10.205  15.528  69.908  1.00  0.00    -0.305 A  
HETATM    7  C   UNL     1     -12.659  14.192  69.912  1.00  0.00    -0.205 A  
HETATM    8  F   UNL     1     -13.337  15.518  71.737  1.00  0.00    -0.413 F  
HETATM    9  C   UNL     1     -11.187  15.873  70.837  1.00  0.00    -0.389 A  
HETATM   10  C   UNL     1     -12.402  15.197  70.834  1.00  0.00    -0.354 A  
ENDBRANCH   3   4
BRANCH   3  11
HETATM   11  C   UNL     1      -9.029  12.612  68.003  1.00  0.00    -0.200 C  
BRANCH  11  12
HETATM   12  C   UNL     1      -7.874  12.193  68.931  1.00  0.00     0.070 C  
BRANCH  12  13
HETATM   13  C   UNL     1      -7.657  10.688  68.789  1.00  0.00    -0.109 C  
HETATM   14  N   UNL     1      -9.075   9.383  69.552  1.00  0.00    -0.154 N  
HETATM   15  O   UNL     1      -7.459   9.896  71.193  1.00  0.00    -0.242 OA 
HETATM   16  C   UNL     1      -7.952   9.920  70.091  1.00  0.00    -0.162 C  
HETATM   17  C   UNL     1      -8.784   9.776  68.167  1.00  0.00    -0.119 C  
BRANCH  17  18
HETATM   18  C   UNL     1      -8.193   8.660  67.175  1.00  0.00    -0.107 A  
HETATM   19  H   UNL     1      -7.369   5.634  63.613  1.00  0.00     0.000 HD 
HETATM   20  C   UNL     1      -6.311   7.657  65.945  1.00  0.00    -0.042 A  
HETATM   21  C   UNL     1      -6.810   8.505  66.939  1.00  0.00    -0.069 A  
HETATM   22  C   UNL     1      -9.050   7.862  66.387  1.00  0.00    -0.221 A  
HETATM   23  C   UNL     1      -7.197   6.928  65.165  1.00  0.00    -0.074 A  
HETATM   24  O   UNL     1      -6.762   6.133  64.147  1.00  0.00    -0.036 OA 
HETATM   25  C   UNL     1      -8.561   7.007  65.391  1.00  0.00    -0.048 A  
ENDBRANCH  17  18
BRANCH  14  26
HETATM   26  C   UNL     1     -10.164   8.749  70.141  1.00  0.00    -0.190 A  
HETATM   27  C   UNL     1     -11.608   6.798  70.320  1.00  0.00    -0.417 A  
HETATM   28  F   UNL     1     -13.383   6.813  71.865  1.00  0.00    -0.383 F  
HETATM   29  C   UNL     1     -10.525   7.456  69.735  1.00  0.00    -0.235 A  
HETATM   30  C   UNL     1     -11.990   8.714  71.737  1.00  0.00    -0.402 A  
HETATM   31  C   UNL     1     -12.335   7.436  71.311  1.00  0.00    -0.346 A  
HETATM   32  C   UNL     1     -10.899   9.371  71.157  1.00  0.00    -0.427 A  
ENDBRANCH  14  26
ENDBRANCH  12  13
ENDBRANCH  11  12
ENDBRANCH   3  11
TORSDOF 6
ENDMDL
MODEL      152
REMARK 921   NORMALIZED FREE ENERGY PREDICTED BY IDOCK:   -4.72 KCAL/MOL
REMARK 922        TOTAL FREE ENERGY PREDICTED BY IDOCK:   -8.18 KCAL/MOL
REMARK 923 INTER-LIGAND FREE ENERGY PREDICTED BY IDOCK:   -6.23 KCAL/MOL
REMARK 924 INTRA-LIGAND FREE ENERGY PREDICTED BY IDOCK:   -1.95 KCAL/MOL
REMARK 927      BINDING AFFINITY PREDICTED BY RF-SCORE:    0.00 PKD
ROOT
HETATM    1  O   UNL     1      -5.982  13.017  68.248  1.00  0.00    -0.071 OA 
HETATM    2  H   UNL     1      -5.946  13.943  68.042  1.00  0.00     0.000 HD 
HETATM    3  C   UNL     1      -6.859  12.355  67.340  1.00  0.00    -0.147 C  
ENDROOT
BRANCH   3   4
HETATM    4  C   UNL     1      -8.218  13.022  67.334  1.00  0.00    -0.183 A  
HETATM    5  C   UNL     1      -9.403  12.267  67.306  1.00  0.00    -0.185 A  
HETATM    6  C   UNL     1      -8.310  14.425  67.352  1.00  0.00    -0.216 A  
HETATM    7  C   UNL     1     -10.648  12.894  67.327  1.00  0.00    -0.243 A  
HETATM    8  F   UNL     1     -11.908  14.883  67.410  1.00  0.00    -0.362 F  
HETATM    9  C   UNL     1      -9.557  15.052  67.376  1.00  0.00    -0.205 A  
HETATM   10  C   UNL     1     -10.713  14.280  67.370  1.00  0.00    -0.282 A  
ENDBRANCH   3   4
BRANCH   3  11
HETATM   11  C   UNL     1      -6.918  10.862  67.672  1.00  0.00    -0.082 C  
BRANCH  11  12
HETATM   12  C   UNL     1      -6.739  10.518  69.162  1.00  0.00    -0.069 C  
BRANCH  12  13
HETATM   13  C   UNL     1      -7.260   9.103  69.402  1.00  0.00    -0.067 C  
HETATM   14  N   UNL     1      -9.168   8.840  70.165  1.00  0.00    -0.161 N  
HETATM   15  O   UNL     1      -7.598   9.022  71.917  1.00  0.00    -0.334 OA 
HETATM   16  C   UNL     1      -7.957   8.950  70.766  1.00  0.00    -0.131 C  
HETATM   17  C   UNL     1      -8.648   8.654  68.804  1.00  0.00    -0.130 C  
BRANCH  17  18
HETATM   18  C   UNL     1      -8.608   7.161  68.212  1.00  0.00    -0.122 A  
HETATM   19  H   UNL     1      -9.318   3.155  65.770  1.00  0.00     0.000 HD 
HETATM   20  C   UNL     1      -7.357   5.218  67.365  1.00  0.00    -0.083 A  
HETATM   21  C   UNL     1      -7.407   6.441  68.043  1.00  0.00    -0.089 A  
HETATM   22  C   UNL     1      -9.776   6.550  67.705  1.00  0.00    -0.137 A  
HETATM   23  C   UNL     1      -8.525   4.681  66.844  1.00  0.00    -0.105 A  
HETATM   24  O   UNL     1      -8.518   3.522  66.126  1.00  0.00    -0.107 OA 
HETATM   25  C   UNL     1      -9.737   5.325  67.026  1.00  0.00    -0.167 A  
ENDBRANCH  17  18
BRANCH  14  26
HETATM   26  C   UNL     1     -10.459   8.953  70.672  1.00  0.00    -0.221 A  
HETATM   27  C   UNL     1     -12.364   7.940  71.797  1.00  0.00    -0.352 A  
HETATM   28  F   UNL     1     -14.286   9.234  72.206  1.00  0.00    -0.417 F  
HETATM   29  C   UNL     1     -11.074   7.846  71.274  1.00  0.00    -0.278 A  
HETATM   30  C   UNL     1     -12.450  10.260  71.134  1.00  0.00    -0.495 A  
HETATM   31  C   UNL     1     -13.043   9.144  71.716  1.00  0.00    -0.392 A  
HETATM   32  C   UNL     1     -11.153  10.167  70.616  1.00  0.00    -0.397 A  
ENDBRANCH  14  26
ENDBRANCH  12  13
ENDBRANCH  11  12
ENDBRANCH   3  11
TORSDOF 6
ENDMDL
MODEL      153
REMARK 921   NORMALIZED FREE ENERGY PREDICTED BY IDOCK:   -4.66 KCAL/MOL
REMARK 922        TOTAL FREE ENERGY PREDICTED BY IDOCK:   -8.10 KCAL/MOL
REMARK 923 INTER-LIGAND FREE ENERGY PREDICTED BY IDOCK:   -6.66 KCAL/MOL
REMARK 924 INTRA-LIGAND FREE ENERGY PREDICTED BY IDOCK:   -1.44 KCAL/MOL
REMARK 927      BINDING AFFINITY PREDICTED BY RF-SCORE:    0.00 PKD
ROOT
HETATM    1  O   UNL     1      -6.220   7.896  69.462  1.00  0.00    -0.033 OA 
HETATM    2  H   UNL     1      -6.446   7.029  69.778  1.00  0.00     0.000 HD 
HETATM    3  C   UNL     1      -7.381   8.725  69.457  1.00  0.00    -0.067 C  
ENDROOT
BRANCH   3   4
HETATM    4  C   UNL     1      -8.496   8.070  68.669  1.00  0.00    -0.128 A  
HETATM    5  C   UNL     1      -8.421   7.933  67.273  1.00  0.00    -0.121 A  
HETATM    6  C   UNL     1      -9.637   7.591  69.337  1.00  0.00    -0.155 A  
HETATM    7  C   UNL     1      -9.444   7.306  66.563  1.00  0.00    -0.218 A  
HETATM    8  F   UNL     1     -11.522   6.197  66.569  1.00  0.00    -0.294 F  
HETATM    9  C   UNL     1     -10.659   6.960  68.625  1.00  0.00    -0.254 A  
HETATM   10  C   UNL     1     -10.549   6.818  67.247  1.00  0.00    -0.320 A  
ENDBRANCH   3   4
BRANCH   3  11
HETATM   11  C   UNL     1      -7.017  10.121  68.947  1.00  0.00    -0.063 C  
BRANCH  11  12
HETATM   12  C   UNL     1      -8.114  11.186  69.126  1.00  0.00    -0.030 C  
BRANCH  12  13
HETATM   13  C   UNL     1      -7.920  12.268  68.065  1.00  0.00    -0.150 C  
HETATM   14  N   UNL     1      -9.234  12.368  66.466  1.00  0.00    -0.229 N  
HETATM   15  O   UNL     1      -7.426  10.940  65.959  1.00  0.00    -0.145 OA 
HETATM   16  C   UNL     1      -8.052  11.724  66.631  1.00  0.00    -0.094 C  
HETATM   17  C   UNL     1      -9.117  13.212  67.662  1.00  0.00    -0.201 C  
BRANCH  17  18
HETATM   18  C   UNL     1      -8.656  14.738  67.465  1.00  0.00    -0.198 A  
HETATM   19  H   UNL     1      -8.321  19.470  67.355  1.00  0.00     0.000 HD 
HETATM   20  C   UNL     1      -6.969  16.518  67.674  1.00  0.00    -0.158 A  
HETATM   21  C   UNL     1      -7.328  15.166  67.672  1.00  0.00    -0.205 A  
HETATM   22  C   UNL     1      -9.602  15.753  67.201  1.00  0.00    -0.224 A  
HETATM   23  C   UNL     1      -7.943  17.481  67.455  1.00  0.00    -0.204 A  
HETATM   24  O   UNL     1      -7.654  18.811  67.505  1.00  0.00    -0.227 OA 
HETATM   25  C   UNL     1      -9.253  17.110  67.198  1.00  0.00    -0.242 A  
ENDBRANCH  17  18
BRANCH  14  26
HETATM   26  C   UNL     1     -10.243  12.209  65.522  1.00  0.00    -0.265 A  
HETATM   27  C   UNL     1     -12.524  12.657  64.798  1.00  0.00    -0.555 A  
HETATM   28  F   UNL     1     -13.275  11.784  62.745  1.00  0.00    -0.394 F  
HETATM   29  C   UNL     1     -11.500  12.794  65.736  1.00  0.00    -0.388 A  
HETATM   30  C   UNL     1     -11.050  11.349  63.403  1.00  0.00    -0.308 A  
HETATM   31  C   UNL     1     -12.291  11.929  63.642  1.00  0.00    -0.481 A  
HETATM   32  C   UNL     1     -10.021  11.494  64.340  1.00  0.00    -0.311 A  
ENDBRANCH  14  26
ENDBRANCH  12  13
ENDBRANCH  11  12
ENDBRANCH   3  11
TORSDOF 6
ENDMDL
MODEL      154
REMARK 921   NORMALIZED FREE ENERGY PREDICTED BY IDOCK:   -4.65 KCAL/MOL
REMARK 922        TOTAL FREE ENERGY PREDICTED BY IDOCK:   -8.08 KCAL/MOL
REMARK 923 INTER-LIGAND FREE ENERGY PREDICTED BY IDOCK:   -6.49 KCAL/MOL
REMARK 924 INTRA-LIGAND FREE ENERGY PREDICTED BY IDOCK:   -1.60 KCAL/MOL
REMARK 927      BINDING AFFINITY PREDICTED BY RF-SCORE:    0.00 PKD
ROOT
HETATM    1  O   UNL     1      -6.357  18.745  69.849  1.00  0.00    -0.224 OA 
HETATM    2  H   UNL     1      -6.117  19.574  69.454  1.00  0.00     0.000 HD 
HETATM    3  C   UNL     1      -6.825  17.849  68.844  1.00  0.00    -0.250 C  
ENDROOT
BRANCH   3   4
HETATM    4  C   UNL     1      -7.948  18.482  68.051  1.00  0.00    -0.293 A  
HETATM    5  C   UNL     1      -9.196  18.749  68.639  1.00  0.00    -0.386 A  
HETATM    6  C   UNL     1      -7.754  18.810  66.698  1.00  0.00    -0.262 A  
HETATM    7  C   UNL     1     -10.214  19.356  67.904  1.00  0.00    -0.530 A  
HETATM    8  F   UNL     1     -10.959  20.295  65.876  1.00  0.00    -0.397 F  
HETATM    9  C   UNL     1      -8.772  19.420  65.964  1.00  0.00    -0.179 A  
HETATM   10  C   UNL     1      -9.990  19.693  66.576  1.00  0.00    -0.440 A  
ENDBRANCH   3   4
BRANCH   3  11
HETATM   11  C   UNL     1      -7.211  16.512  69.481  1.00  0.00    -0.049 C  
BRANCH  11  12
HETATM   12  C   UNL     1      -7.398  15.348  68.490  1.00  0.00    -0.116 C  
BRANCH  12  13
HETATM   13  C   UNL     1      -8.888  15.032  68.387  1.00  0.00    -0.178 C  
HETATM   14  N   UNL     1      -9.484  13.168  67.704  1.00  0.00    -0.200 N  
HETATM   15  O   UNL     1      -9.238  14.666  65.899  1.00  0.00    -0.194 OA 
HETATM   16  C   UNL     1      -9.258  14.341  67.061  1.00  0.00    -0.239 C  
HETATM   17  C   UNL     1      -9.475  13.732  69.060  1.00  0.00     0.213 C  
BRANCH  17  18
HETATM   18  C   UNL     1     -10.889  13.996  69.776  1.00  0.00     0.064 A  
HETATM   19  H   UNL     1     -14.604  14.129  72.725  1.00  0.00     0.000 HD 
HETATM   20  C   UNL     1     -12.696  15.516  70.470  1.00  0.00    -0.436 A  
HETATM   21  C   UNL     1     -11.560  15.234  69.703  1.00  0.00    -0.340 A  
HETATM   22  C   UNL     1     -11.462  13.027  70.628  1.00  0.00     0.630 A  
HETATM   23  C   UNL     1     -13.195  14.547  71.328  1.00  0.00    -0.357 A  
HETATM   24  O   UNL     1     -14.263  14.793  72.138  1.00  0.00    -0.453 OA 
HETATM   25  C   UNL     1     -12.600  13.297  71.399  1.00  0.00    -0.365 A  
ENDBRANCH  17  18
BRANCH  14  26
HETATM   26  C   UNL     1      -9.599  11.866  67.228  1.00  0.00    -0.177 A  
HETATM   27  C   UNL     1      -9.545  10.305  65.361  1.00  0.00    -0.310 A  
HETATM   28  F   UNL     1      -9.917   8.016  65.759  1.00  0.00    -0.083 F  
HETATM   29  C   UNL     1      -9.444  11.605  65.859  1.00  0.00    -0.246 A  
HETATM   30  C   UNL     1      -9.954   9.495  67.598  1.00  0.00    -0.226 A  
HETATM   31  C   UNL     1      -9.807   9.263  66.235  1.00  0.00    -0.291 A  
HETATM   32  C   UNL     1      -9.844  10.798  68.098  1.00  0.00    -0.171 A  
ENDBRANCH  14  26
ENDBRANCH  12  13
ENDBRANCH  11  12
ENDBRANCH   3  11
TORSDOF 6
ENDMDL
MODEL      155
REMARK 921   NORMALIZED FREE ENERGY PREDICTED BY IDOCK:   -4.63 KCAL/MOL
REMARK 922        TOTAL FREE ENERGY PREDICTED BY IDOCK:   -8.06 KCAL/MOL
REMARK 923 INTER-LIGAND FREE ENERGY PREDICTED BY IDOCK:   -6.85 KCAL/MOL
REMARK 924 INTRA-LIGAND FREE ENERGY PREDICTED BY IDOCK:   -1.21 KCAL/MOL
REMARK 927      BINDING AFFINITY PREDICTED BY RF-SCORE:    0.00 PKD
ROOT
HETATM    1  O   UNL     1      -5.609  16.269  70.290  1.00  0.00    -0.180 OA 
HETATM    2  H   UNL     1      -5.292  17.154  70.423  1.00  0.00     0.000 HD 
HETATM    3  C   UNL     1      -5.706  15.996  68.894  1.00  0.00    -0.112 C  
ENDROOT
BRANCH   3   4
HETATM    4  C   UNL     1      -6.553  17.046  68.207  1.00  0.00    -0.156 A  
HETATM    5  C   UNL     1      -6.621  17.128  66.806  1.00  0.00    -0.257 A  
HETATM    6  C   UNL     1      -7.288  17.967  68.975  1.00  0.00    -0.198 A  
HETATM    7  C   UNL     1      -7.424  18.085  66.186  1.00  0.00    -0.305 A  
HETATM    8  F   UNL     1      -8.948  19.871  66.372  1.00  0.00    -0.342 F  
HETATM    9  C   UNL     1      -8.094  18.922  68.353  1.00  0.00    -0.376 A  
HETATM   10  C   UNL     1      -8.160  18.967  66.966  1.00  0.00    -0.261 A  
ENDBRANCH   3   4
BRANCH   3  11
HETATM   11  C   UNL     1      -6.218  14.570  68.679  1.00  0.00    -0.083 C  
BRANCH  11  12
HETATM   12  C   UNL     1      -7.744  14.402  68.783  1.00  0.00    -0.139 C  
BRANCH  12  13
HETATM   13  C   UNL     1      -8.240  13.672  67.537  1.00  0.00    -0.189 C  
HETATM   14  N   UNL     1      -8.898  11.714  67.703  1.00  0.00    -0.154 N  
HETATM   15  O   UNL     1      -6.579  11.770  67.273  1.00  0.00    -0.104 OA 
HETATM   16  C   UNL     1      -7.680  12.242  67.424  1.00  0.00    -0.165 C  
HETATM   17  C   UNL     1      -9.649  12.964  67.536  1.00  0.00    -0.200 C  
BRANCH  17  18
HETATM   18  C   UNL     1     -10.447  13.186  66.160  1.00  0.00    -0.287 A  
HETATM   19  H   UNL     1     -12.747  12.692  62.039  1.00  0.00     0.000 HD 
HETATM   20  C   UNL     1     -12.270  14.230  64.876  1.00  0.00    -0.449 A  
HETATM   21  C   UNL     1     -11.458  14.160  66.014  1.00  0.00    -0.343 A  
HETATM   22  C   UNL     1     -10.260  12.315  65.065  1.00  0.00    -0.312 A  
HETATM   23  C   UNL     1     -12.077  13.322  63.846  1.00  0.00    -0.468 A  
HETATM   24  O   UNL     1     -12.879  13.314  62.744  1.00  0.00    -0.245 OA 
HETATM   25  C   UNL     1     -11.066  12.378  63.920  1.00  0.00    -0.475 A  
ENDBRANCH  17  18
BRANCH  14  26
HETATM   26  C   UNL     1      -9.276  10.434  68.095  1.00  0.00    -0.145 A  
HETATM   27  C   UNL     1      -8.738   8.073  68.344  1.00  0.00    -0.130 A  
HETATM   28  F   UNL     1     -10.342   6.613  69.256  1.00  0.00    -0.175 F  
HETATM   29  C   UNL     1      -8.382   9.363  67.948  1.00  0.00    -0.115 A  
HETATM   30  C   UNL     1     -10.893   8.900  69.053  1.00  0.00    -0.071 A  
HETATM   31  C   UNL     1      -9.993   7.852  68.886  1.00  0.00    -0.190 A  
HETATM   32  C   UNL     1     -10.533  10.195  68.663  1.00  0.00    -0.225 A  
ENDBRANCH  14  26
ENDBRANCH  12  13
ENDBRANCH  11  12
ENDBRANCH   3  11
TORSDOF 6
ENDMDL
MODEL      156
REMARK 921   NORMALIZED FREE ENERGY PREDICTED BY IDOCK:   -4.62 KCAL/MOL
REMARK 922        TOTAL FREE ENERGY PREDICTED BY IDOCK:   -8.05 KCAL/MOL
REMARK 923 INTER-LIGAND FREE ENERGY PREDICTED BY IDOCK:   -6.64 KCAL/MOL
REMARK 924 INTRA-LIGAND FREE ENERGY PREDICTED BY IDOCK:   -1.40 KCAL/MOL
REMARK 927      BINDING AFFINITY PREDICTED BY RF-SCORE:    0.00 PKD
ROOT
HETATM    1  O   UNL     1      -8.519  13.810  68.425  1.00  0.00    -0.160 OA 
HETATM    2  H   UNL     1      -8.137  14.468  67.856  1.00  0.00     0.000 HD 
HETATM    3  C   UNL     1      -9.031  12.734  67.641  1.00  0.00    -0.191 C  
ENDROOT
BRANCH   3   4
HETATM    4  C   UNL     1      -9.993  13.253  66.594  1.00  0.00    -0.272 A  
HETATM    5  C   UNL     1     -11.172  12.557  66.277  1.00  0.00    -0.359 A  
HETATM    6  C   UNL     1      -9.710  14.451  65.914  1.00  0.00    -0.305 A  
HETATM    7  C   UNL     1     -12.062  13.059  65.328  1.00  0.00    -0.484 A  
HETATM    8  F   UNL     1     -12.637  14.751  63.793  1.00  0.00    -0.407 F  
HETATM    9  C   UNL     1     -10.604  14.954  64.967  1.00  0.00    -0.446 A  
HETATM   10  C   UNL     1     -11.773  14.257  64.689  1.00  0.00    -0.430 A  
ENDBRANCH   3   4
BRANCH   3  11
HETATM   11  C   UNL     1      -9.645  11.673  68.557  1.00  0.00    -0.181 C  
BRANCH  11  12
HETATM   12  C   UNL     1      -8.695  10.533  68.965  1.00  0.00    -0.160 C  
BRANCH  12  13
HETATM   13  C   UNL     1      -9.524   9.280  69.233  1.00  0.00    -0.160 C  
HETATM   14  N   UNL     1      -9.190   7.581  68.094  1.00  0.00    -0.138 N  
HETATM   15  O   UNL     1     -10.811   8.955  67.069  1.00  0.00    -0.190 OA 
HETATM   16  C   UNL     1     -10.044   8.624  67.940  1.00  0.00    -0.203 C  
HETATM   17  C   UNL     1      -8.814   7.893  69.479  1.00  0.00    -0.142 C  
BRANCH  17  18
HETATM   18  C   UNL     1      -9.507   7.048  70.656  1.00  0.00    -0.165 A  
HETATM   19  H   UNL     1     -12.468   5.199  73.870  1.00  0.00     0.000 HD 
HETATM   20  C   UNL     1      -9.994   4.905  71.764  1.00  0.00    -0.252 A  
HETATM   21  C   UNL     1      -9.258   5.674  70.856  1.00  0.00    -0.178 A  
HETATM   22  C   UNL     1     -10.507   7.623  71.470  1.00  0.00    -0.231 A  
HETATM   23  C   UNL     1     -10.998   5.506  72.507  1.00  0.00    -0.263 A  
HETATM   24  O   UNL     1     -11.780   4.787  73.361  1.00  0.00    -0.284 OA 
HETATM   25  C   UNL     1     -11.248   6.863  72.384  1.00  0.00    -0.303 A  
ENDBRANCH  17  18
BRANCH  14  26
HETATM   26  C   UNL     1      -8.764   6.603  67.201  1.00  0.00    -0.111 A  
HETATM   27  C   UNL     1      -6.952   5.510  65.999  1.00  0.00    -0.066 A  
HETATM   28  F   UNL     1      -7.439   3.707  64.567  1.00  0.00    -0.066 F  
HETATM   29  C   UNL     1      -7.402   6.490  66.884  1.00  0.00    -0.079 A  
HETATM   30  C   UNL     1      -9.220   4.725  65.734  1.00  0.00    -0.149 A  
HETATM   31  C   UNL     1      -7.866   4.641  65.426  1.00  0.00    -0.090 A  
HETATM   32  C   UNL     1      -9.670   5.703  66.628  1.00  0.00    -0.176 A  
ENDBRANCH  14  26
ENDBRANCH  12  13
ENDBRANCH  11  12
ENDBRANCH   3  11
TORSDOF 6
ENDMDL
MODEL      157
REMARK 921   NORMALIZED FREE ENERGY PREDICTED BY IDOCK:   -4.59 KCAL/MOL
REMARK 922        TOTAL FREE ENERGY PREDICTED BY IDOCK:   -8.01 KCAL/MOL
REMARK 923 INTER-LIGAND FREE ENERGY PREDICTED BY IDOCK:   -6.49 KCAL/MOL
REMARK 924 INTRA-LIGAND FREE ENERGY PREDICTED BY IDOCK:   -1.52 KCAL/MOL
REMARK 927      BINDING AFFINITY PREDICTED BY RF-SCORE:    0.00 PKD
ROOT
HETATM    1  O   UNL     1      -7.946   7.362  73.711  1.00  0.00    -0.105 OA 
HETATM    2  H   UNL     1      -7.372   6.777  74.191  1.00  0.00     0.000 HD 
HETATM    3  C   UNL     1      -9.305   6.990  73.928  1.00  0.00    -0.228 C  
ENDROOT
BRANCH   3   4
HETATM    4  C   UNL     1      -9.515   5.529  73.587  1.00  0.00    -0.138 A  
HETATM    5  C   UNL     1      -8.650   4.852  72.712  1.00  0.00    -0.115 A  
HETATM    6  C   UNL     1     -10.597   4.828  74.148  1.00  0.00    -0.351 A  
HETATM    7  C   UNL     1      -8.841   3.500  72.426  1.00  0.00    -0.111 A  
HETATM    8  F   UNL     1     -10.073   1.520  72.755  1.00  0.00    -0.129 F  
HETATM    9  C   UNL     1     -10.785   3.474  73.864  1.00  0.00    -0.298 A  
HETATM   10  C   UNL     1      -9.902   2.822  73.012  1.00  0.00    -0.114 A  
ENDBRANCH   3   4
BRANCH   3  11
HETATM   11  C   UNL     1     -10.230   7.932  73.153  1.00  0.00    -0.358 C  
BRANCH  11  12
HETATM   12  C   UNL     1     -10.080   7.879  71.622  1.00  0.00    -0.228 C  
BRANCH  12  13
HETATM   13  C   UNL     1      -9.994   9.307  71.091  1.00  0.00    -0.356 C  
HETATM   14  N   UNL     1      -9.248   9.638  69.186  1.00  0.00    -0.160 N  
HETATM   15  O   UNL     1      -7.501   9.664  70.772  1.00  0.00    -0.254 OA 
HETATM   16  C   UNL     1      -8.649   9.605  70.403  1.00  0.00    -0.157 C  
HETATM   17  C   UNL     1     -10.625   9.677  69.694  1.00  0.00    -0.233 C  
BRANCH  17  18
HETATM   18  C   UNL     1     -11.380  11.095  69.716  1.00  0.00    -0.354 A  
HETATM   19  H   UNL     1     -13.409  15.214  70.914  1.00  0.00     0.000 HD 
HETATM   20  C   UNL     1     -11.716  13.365  68.825  1.00  0.00    -0.377 A  
HETATM   21  C   UNL     1     -11.200  12.069  68.712  1.00  0.00    -0.316 A  
HETATM   22  C   UNL     1     -12.163  11.483  70.825  1.00  0.00    -0.463 A  
HETATM   23  C   UNL     1     -12.441  13.712  69.956  1.00  0.00    -0.204 A  
HETATM   24  O   UNL     1     -12.913  14.977  70.139  1.00  0.00    -0.218 OA 
HETATM   25  C   UNL     1     -12.686  12.776  70.948  1.00  0.00    -0.277 A  
ENDBRANCH  17  18
BRANCH  14  26
HETATM   26  C   UNL     1      -8.720   9.572  67.901  1.00  0.00    -0.119 A  
HETATM   27  C   UNL     1      -8.704   8.546  65.693  1.00  0.00    -0.213 A  
HETATM   28  F   UNL     1      -7.203   9.339  64.063  1.00  0.00    -0.094 F  
HETATM   29  C   UNL     1      -9.211   8.623  66.991  1.00  0.00    -0.186 A  
HETATM   30  C   UNL     1      -7.206  10.375  66.185  1.00  0.00    -0.131 A  
HETATM   31  C   UNL     1      -7.700   9.418  65.304  1.00  0.00    -0.108 A  
HETATM   32  C   UNL     1      -7.720  10.457  67.483  1.00  0.00    -0.094 A  
ENDBRANCH  14  26
ENDBRANCH  12  13
ENDBRANCH  11  12
ENDBRANCH   3  11
TORSDOF 6
ENDMDL
MODEL      158
REMARK 921   NORMALIZED FREE ENERGY PREDICTED BY IDOCK:   -4.59 KCAL/MOL
REMARK 922        TOTAL FREE ENERGY PREDICTED BY IDOCK:   -8.00 KCAL/MOL
REMARK 923 INTER-LIGAND FREE ENERGY PREDICTED BY IDOCK:   -7.24 KCAL/MOL
REMARK 924 INTRA-LIGAND FREE ENERGY PREDICTED BY IDOCK:   -0.77 KCAL/MOL
REMARK 927      BINDING AFFINITY PREDICTED BY RF-SCORE:    0.00 PKD
ROOT
HETATM    1  O   UNL     1     -11.579   9.291  69.790  1.00  0.00    -0.441 OA 
HETATM    2  H   UNL     1     -12.300   8.753  70.095  1.00  0.00     0.000 HD 
HETATM    3  C   UNL     1     -10.778   8.548  68.874  1.00  0.00    -0.073 C  
ENDROOT
BRANCH   3   4
HETATM    4  C   UNL     1     -10.330   7.244  69.499  1.00  0.00    -0.230 A  
HETATM    5  C   UNL     1     -10.541   6.014  68.853  1.00  0.00    -0.356 A  
HETATM    6  C   UNL     1      -9.694   7.249  70.753  1.00  0.00    -0.171 A  
HETATM    7  C   UNL     1     -10.102   4.823  69.428  1.00  0.00    -0.241 A  
HETATM    8  F   UNL     1      -9.012   3.715  71.199  1.00  0.00    -0.114 F  
HETATM    9  C   UNL     1      -9.251   6.056  71.326  1.00  0.00    -0.156 A  
HETATM   10  C   UNL     1      -9.453   4.856  70.655  1.00  0.00    -0.173 A  
ENDBRANCH   3   4
BRANCH   3  11
HETATM   11  C   UNL     1      -9.616   9.415  68.382  1.00  0.00    -0.157 C  
BRANCH  11  12
HETATM   12  C   UNL     1      -9.107  10.458  69.393  1.00  0.00    -0.170 C  
BRANCH  12  13
HETATM   13  C   UNL     1      -8.928  11.791  68.670  1.00  0.00    -0.069 C  
HETATM   14  N   UNL     1      -9.987  12.147  66.924  1.00  0.00    -0.202 N  
HETATM   15  O   UNL     1      -7.921  11.115  66.439  1.00  0.00    -0.159 OA 
HETATM   16  C   UNL     1      -8.756  11.622  67.149  1.00  0.00    -0.164 C  
HETATM   17  C   UNL     1     -10.185  12.663  68.285  1.00  0.00    -0.239 C  
BRANCH  17  18
HETATM   18  C   UNL     1      -9.945  14.231  68.538  1.00  0.00    -0.235 A  
HETATM   19  H   UNL     1      -9.401  18.929  68.149  1.00  0.00     0.000 HD 
HETATM   20  C   UNL     1     -10.385  16.295  69.805  1.00  0.00    -0.219 A  
HETATM   21  C   UNL     1     -10.441  14.903  69.675  1.00  0.00    -0.182 A  
HETATM   22  C   UNL     1      -9.334  15.040  67.556  1.00  0.00    -0.195 A  
HETATM   23  C   UNL     1      -9.816  17.050  68.790  1.00  0.00    -0.278 A  
HETATM   24  O   UNL     1      -9.791  18.412  68.844  1.00  0.00    -0.363 OA 
HETATM   25  C   UNL     1      -9.271  16.434  67.676  1.00  0.00    -0.199 A  
ENDBRANCH  17  18
BRANCH  14  26
HETATM   26  C   UNL     1     -10.805  12.122  65.800  1.00  0.00    -0.281 A  
HETATM   27  C   UNL     1     -12.904  12.721  64.722  1.00  0.00    -0.374 A  
HETATM   28  F   UNL     1     -13.274  12.090  62.485  1.00  0.00     0.007 F  
HETATM   29  C   UNL     1     -12.071  12.726  65.841  1.00  0.00    -0.485 A  
HETATM   30  C   UNL     1     -11.217  11.512  63.489  1.00  0.00    -0.412 A  
HETATM   31  C   UNL     1     -12.472  12.108  63.557  1.00  0.00    -0.555 A  
HETATM   32  C   UNL     1     -10.379  11.523  64.609  1.00  0.00    -0.349 A  
ENDBRANCH  14  26
ENDBRANCH  12  13
ENDBRANCH  11  12
ENDBRANCH   3  11
TORSDOF 6
ENDMDL
MODEL      159
REMARK 921   NORMALIZED FREE ENERGY PREDICTED BY IDOCK:   -4.57 KCAL/MOL
REMARK 922        TOTAL FREE ENERGY PREDICTED BY IDOCK:   -7.97 KCAL/MOL
REMARK 923 INTER-LIGAND FREE ENERGY PREDICTED BY IDOCK:   -6.91 KCAL/MOL
REMARK 924 INTRA-LIGAND FREE ENERGY PREDICTED BY IDOCK:   -1.06 KCAL/MOL
REMARK 927      BINDING AFFINITY PREDICTED BY RF-SCORE:    0.00 PKD
ROOT
HETATM    1  O   UNL     1     -10.563  11.511  69.501  1.00  0.00    -0.439 OA 
HETATM    2  H   UNL     1     -10.752  12.165  68.839  1.00  0.00     0.000 HD 
HETATM    3  C   UNL     1     -11.765  11.144  70.174  1.00  0.00    -0.353 C  
ENDROOT
BRANCH   3   4
HETATM    4  C   UNL     1     -12.460  12.371  70.724  1.00  0.00    -0.356 A  
HETATM    5  C   UNL     1     -13.366  12.279  71.794  1.00  0.00    -0.353 A  
HETATM    6  C   UNL     1     -12.206  13.633  70.158  1.00  0.00    -0.413 A  
HETATM    7  C   UNL     1     -13.980  13.421  72.307  1.00  0.00    -0.605 A  
HETATM    8  F   UNL     1     -14.267  15.759  72.254  1.00  0.00    -0.568 F  
HETATM    9  C   UNL     1     -12.819  14.776  70.675  1.00  0.00    -0.398 A  
HETATM   10  C   UNL     1     -13.694  14.660  71.748  1.00  0.00    -0.415 A  
ENDBRANCH   3   4
BRANCH   3  11
HETATM   11  C   UNL     1     -11.460  10.090  71.241  1.00  0.00    -0.390 C  
BRANCH  11  12
HETATM   12  C   UNL     1     -11.248   8.663  70.706  1.00  0.00    -0.298 C  
BRANCH  12  13
HETATM   13  C   UNL     1      -9.940   8.626  69.921  1.00  0.00    -0.189 C  
HETATM   14  N   UNL     1      -9.005   6.806  69.592  1.00  0.00    -0.143 N  
HETATM   15  O   UNL     1      -8.263   7.759  71.619  1.00  0.00    -0.102 OA 
HETATM   16  C   UNL     1      -8.877   7.727  70.580  1.00  0.00    -0.145 C  
HETATM   17  C   UNL     1      -9.780   7.662  68.684  1.00  0.00    -0.155 C  
BRANCH  17  18
HETATM   18  C   UNL     1      -9.006   8.356  67.459  1.00  0.00    -0.142 A  
HETATM   19  H   UNL     1      -6.727  11.323  64.539  1.00  0.00     0.000 HD 
HETATM   20  C   UNL     1      -7.243   8.333  65.741  1.00  0.00    -0.072 A  
HETATM   21  C   UNL     1      -8.040   7.678  66.685  1.00  0.00    -0.119 A  
HETATM   22  C   UNL     1      -9.165   9.732  67.187  1.00  0.00    -0.159 A  
HETATM   23  C   UNL     1      -7.407   9.696  65.542  1.00  0.00    -0.106 A  
HETATM   24  O   UNL     1      -6.616  10.389  64.675  1.00  0.00    -0.114 OA 
HETATM   25  C   UNL     1      -8.375  10.398  66.241  1.00  0.00    -0.146 A  
ENDBRANCH  17  18
BRANCH  14  26
HETATM   26  C   UNL     1      -8.603   5.476  69.517  1.00  0.00    -0.105 A  
HETATM   27  C   UNL     1      -9.140   3.148  69.057  1.00  0.00    -0.208 A  
HETATM   28  F   UNL     1      -7.461   1.512  69.264  1.00  0.00    -0.041 F  
HETATM   29  C   UNL     1      -9.525   4.486  69.148  1.00  0.00    -0.233 A  
HETATM   30  C   UNL     1      -6.895   3.763  69.696  1.00  0.00    -0.041 A  
HETATM   31  C   UNL     1      -7.830   2.797  69.338  1.00  0.00    -0.042 A  
HETATM   32  C   UNL     1      -7.279   5.106  69.779  1.00  0.00    -0.060 A  
ENDBRANCH  14  26
ENDBRANCH  12  13
ENDBRANCH  11  12
ENDBRANCH   3  11
TORSDOF 6
ENDMDL
MODEL      160
REMARK 921   NORMALIZED FREE ENERGY PREDICTED BY IDOCK:   -4.53 KCAL/MOL
REMARK 922        TOTAL FREE ENERGY PREDICTED BY IDOCK:   -7.92 KCAL/MOL
REMARK 923 INTER-LIGAND FREE ENERGY PREDICTED BY IDOCK:   -6.47 KCAL/MOL
REMARK 924 INTRA-LIGAND FREE ENERGY PREDICTED BY IDOCK:   -1.45 KCAL/MOL
REMARK 927      BINDING AFFINITY PREDICTED BY RF-SCORE:    0.00 PKD
ROOT
HETATM    1  O   UNL     1      -8.825  14.358  67.565  1.00  0.00    -0.175 OA 
HETATM    2  H   UNL     1      -8.543  14.905  66.842  1.00  0.00     0.000 HD 
HETATM    3  C   UNL     1      -9.060  13.030  67.102  1.00  0.00    -0.225 C  
ENDROOT
BRANCH   3   4
HETATM    4  C   UNL     1     -10.032  13.038  65.941  1.00  0.00    -0.270 A  
HETATM    5  C   UNL     1     -10.224  11.899  65.142  1.00  0.00    -0.314 A  
HETATM    6  C   UNL     1     -10.758  14.205  65.643  1.00  0.00    -0.317 A  
HETATM    7  C   UNL     1     -11.141  11.913  64.091  1.00  0.00    -0.441 A  
HETATM    8  F   UNL     1     -12.760  13.076  62.837  1.00  0.00    -0.352 F  
HETATM    9  C   UNL     1     -11.678  14.216  64.593  1.00  0.00    -0.427 A  
HETATM   10  C   UNL     1     -11.865  13.068  63.832  1.00  0.00    -0.477 A  
ENDBRANCH   3   4
BRANCH   3  11
HETATM   11  C   UNL     1      -9.516  12.148  68.267  1.00  0.00    -0.204 C  
BRANCH  11  12
HETATM   12  C   UNL     1      -8.640  10.910  68.529  1.00  0.00    -0.152 C  
BRANCH  12  13
HETATM   13  C   UNL     1      -9.517   9.809  69.120  1.00  0.00    -0.191 C  
HETATM   14  N   UNL     1      -8.636   8.300  70.234  1.00  0.00    -0.125 N  
HETATM   15  O   UNL     1      -8.691   7.712  67.950  1.00  0.00    -0.124 OA 
HETATM   16  C   UNL     1      -8.924   8.402  68.913  1.00  0.00    -0.146 C  
HETATM   17  C   UNL     1      -9.431   9.460  70.656  1.00  0.00    -0.262 C  
BRANCH  17  18
HETATM   18  C   UNL     1     -10.875   9.189  71.305  1.00  0.00    -0.402 A  
HETATM   19  H   UNL     1     -14.526   7.791  73.995  1.00  0.00     0.000 HD 
HETATM   20  C   UNL     1     -13.070   9.993  72.076  1.00  0.00    -0.541 A  
HETATM   21  C   UNL     1     -11.885  10.173  71.355  1.00  0.00    -0.414 A  
HETATM   22  C   UNL     1     -11.151   7.981  71.981  1.00  0.00    -0.353 A  
HETATM   23  C   UNL     1     -13.275   8.804  72.762  1.00  0.00    -0.144 A  
HETATM   24  O   UNL     1     -14.386   8.605  73.525  1.00  0.00     0.052 OA 
HETATM   25  C   UNL     1     -12.335   7.789  72.704  1.00  0.00    -0.047 A  
ENDBRANCH  17  18
BRANCH  14  26
HETATM   26  C   UNL     1      -7.800   7.431  70.928  1.00  0.00    -0.096 A  
HETATM   27  C   UNL     1      -5.878   7.085  72.380  1.00  0.00    -0.038 A  
HETATM   28  F   UNL     1      -5.292   4.897  73.020  1.00  0.00    -0.007 F  
HETATM   29  C   UNL     1      -6.723   7.938  71.669  1.00  0.00    -0.052 A  
HETATM   30  C   UNL     1      -7.178   5.194  71.630  1.00  0.00    -0.075 A  
HETATM   31  C   UNL     1      -6.109   5.720  72.349  1.00  0.00    -0.040 A  
HETATM   32  C   UNL     1      -8.030   6.050  70.923  1.00  0.00    -0.115 A  
ENDBRANCH  14  26
ENDBRANCH  12  13
ENDBRANCH  11  12
ENDBRANCH   3  11
TORSDOF 6
ENDMDL
MODEL      161
REMARK 921   NORMALIZED FREE ENERGY PREDICTED BY IDOCK:   -4.52 KCAL/MOL
REMARK 922        TOTAL FREE ENERGY PREDICTED BY IDOCK:   -7.92 KCAL/MOL
REMARK 923 INTER-LIGAND FREE ENERGY PREDICTED BY IDOCK:   -6.49 KCAL/MOL
REMARK 924 INTRA-LIGAND FREE ENERGY PREDICTED BY IDOCK:   -1.43 KCAL/MOL
REMARK 927      BINDING AFFINITY PREDICTED BY RF-SCORE:    0.00 PKD
ROOT
HETATM    1  O   UNL     1     -11.535   6.277  68.717  1.00  0.00    -0.517 OA 
HETATM    2  H   UNL     1     -11.761   5.404  69.016  1.00  0.00     0.000 HD 
HETATM    3  C   UNL     1     -11.129   6.229  67.351  1.00  0.00    -0.287 C  
ENDROOT
BRANCH   3   4
HETATM    4  C   UNL     1     -10.013   5.223  67.165  1.00  0.00    -0.211 A  
HETATM    5  C   UNL     1      -9.840   4.540  65.949  1.00  0.00    -0.236 A  
HETATM    6  C   UNL     1      -9.127   4.955  68.224  1.00  0.00    -0.138 A  
HETATM    7  C   UNL     1      -8.792   3.636  65.784  1.00  0.00    -0.127 A  
HETATM    8  F   UNL     1      -6.897   2.553  66.671  1.00  0.00    -0.040 F  
HETATM    9  C   UNL     1      -8.077   4.051  68.056  1.00  0.00    -0.088 A  
HETATM   10  C   UNL     1      -7.916   3.406  66.836  1.00  0.00    -0.080 A  
ENDBRANCH   3   4
BRANCH   3  11
HETATM   11  C   UNL     1     -10.765   7.635  66.870  1.00  0.00    -0.271 C  
BRANCH  11  12
HETATM   12  C   UNL     1      -9.256   7.913  66.753  1.00  0.00    -0.206 C  
BRANCH  12  13
HETATM   13  C   UNL     1      -8.788   8.607  68.030  1.00  0.00    -0.141 C  
HETATM   14  N   UNL     1      -9.416  10.542  68.421  1.00  0.00    -0.152 N  
HETATM   15  O   UNL     1      -7.419  10.563  67.166  1.00  0.00    -0.093 OA 
HETATM   16  C   UNL     1      -8.323  10.054  67.783  1.00  0.00    -0.114 C  
HETATM   17  C   UNL     1      -9.835   9.263  69.009  1.00  0.00    -0.166 C  
BRANCH  17  18
HETATM   18  C   UNL     1      -9.485   8.993  70.554  1.00  0.00    -0.265 A  
HETATM   19  H   UNL     1      -9.355   7.486  75.051  1.00  0.00     0.000 HD 
HETATM   20  C   UNL     1      -7.859   8.499  72.334  1.00  0.00    -0.112 A  
HETATM   21  C   UNL     1      -8.160   8.909  71.031  1.00  0.00    -0.205 A  
HETATM   22  C   UNL     1     -10.502   8.694  71.486  1.00  0.00    -0.344 A  
HETATM   23  C   UNL     1      -8.892   8.171  73.200  1.00  0.00    -0.257 A  
HETATM   24  O   UNL     1      -8.647   7.711  74.459  1.00  0.00    -0.208 OA 
HETATM   25  C   UNL     1     -10.212   8.285  72.794  1.00  0.00    -0.325 A  
ENDBRANCH  17  18
BRANCH  14  26
HETATM   26  C   UNL     1      -9.981  11.813  68.434  1.00  0.00    -0.202 A  
HETATM   27  C   UNL     1      -9.718  14.226  68.245  1.00  0.00    -0.221 A  
HETATM   28  F   UNL     1     -11.608  15.613  68.449  1.00  0.00    -0.328 F  
HETATM   29  C   UNL     1      -9.170  12.942  68.246  1.00  0.00    -0.187 A  
HETATM   30  C   UNL     1     -11.907  13.277  68.614  1.00  0.00    -0.380 A  
HETATM   31  C   UNL     1     -11.081  14.382  68.436  1.00  0.00    -0.255 A  
HETATM   32  C   UNL     1     -11.359  11.989  68.607  1.00  0.00    -0.329 A  
ENDBRANCH  14  26
ENDBRANCH  12  13
ENDBRANCH  11  12
ENDBRANCH   3  11
TORSDOF 6
ENDMDL
MODEL      162
REMARK 921   NORMALIZED FREE ENERGY PREDICTED BY IDOCK:   -4.50 KCAL/MOL
REMARK 922        TOTAL FREE ENERGY PREDICTED BY IDOCK:   -7.88 KCAL/MOL
REMARK 923 INTER-LIGAND FREE ENERGY PREDICTED BY IDOCK:   -5.99 KCAL/MOL
REMARK 924 INTRA-LIGAND FREE ENERGY PREDICTED BY IDOCK:   -1.89 KCAL/MOL
REMARK 927      BINDING AFFINITY PREDICTED BY RF-SCORE:    0.00 PKD
ROOT
HETATM    1  O   UNL     1      -9.389   4.182  65.537  1.00  0.00    -0.141 OA 
HETATM    2  H   UNL     1      -8.966   4.277  64.693  1.00  0.00     0.000 HD 
HETATM    3  C   UNL     1      -9.725   5.468  66.055  1.00  0.00    -0.081 C  
ENDROOT
BRANCH   3   4
HETATM    4  C   UNL     1      -8.502   6.359  66.094  1.00  0.00    -0.140 A  
HETATM    5  C   UNL     1      -7.332   5.965  66.764  1.00  0.00    -0.079 A  
HETATM    6  C   UNL     1      -8.526   7.611  65.454  1.00  0.00    -0.110 A  
HETATM    7  C   UNL     1      -6.204   6.785  66.771  1.00  0.00    -0.040 A  
HETATM    8  F   UNL     1      -5.155   8.784  66.099  1.00  0.00    -0.028 F  
HETATM    9  C   UNL     1      -7.396   8.430  65.458  1.00  0.00    -0.083 A  
HETATM   10  C   UNL     1      -6.244   8.006  66.111  1.00  0.00    -0.045 A  
ENDBRANCH   3   4
BRANCH   3  11
HETATM   11  C   UNL     1     -10.407   5.316  67.416  1.00  0.00    -0.237 C  
BRANCH  11  12
HETATM   12  C   UNL     1     -11.159   6.564  67.912  1.00  0.00    -0.352 C  
BRANCH  12  13
HETATM   13  C   UNL     1     -10.171   7.471  68.640  1.00  0.00    -0.210 C  
HETATM   14  N   UNL     1     -10.887   9.080  69.732  1.00  0.00    -0.227 N  
HETATM   15  O   UNL     1     -10.484   9.716  67.496  1.00  0.00    -0.228 OA 
HETATM   16  C   UNL     1     -10.481   8.967  68.443  1.00  0.00    -0.187 C  
HETATM   17  C   UNL     1     -10.358   7.783  70.175  1.00  0.00    -0.218 C  
BRANCH  17  18
HETATM   18  C   UNL     1      -8.967   7.771  70.979  1.00  0.00    -0.147 A  
HETATM   19  H   UNL     1      -5.535   7.441  74.238  1.00  0.00     0.000 HD 
HETATM   20  C   UNL     1      -6.603   7.115  71.172  1.00  0.00    -0.044 A  
HETATM   21  C   UNL     1      -7.767   7.290  70.415  1.00  0.00    -0.094 A  
HETATM   22  C   UNL     1      -8.916   8.122  72.345  1.00  0.00    -0.265 A  
HETATM   23  C   UNL     1      -6.616   7.432  72.522  1.00  0.00    -0.055 A  
HETATM   24  O   UNL     1      -5.525   7.225  73.313  1.00  0.00    -0.044 OA 
HETATM   25  C   UNL     1      -7.756   7.954  73.111  1.00  0.00    -0.174 A  
ENDBRANCH  17  18
BRANCH  14  26
HETATM   26  C   UNL     1     -11.626  10.065  70.380  1.00  0.00    -0.302 A  
HETATM   27  C   UNL     1     -12.167  12.418  70.687  1.00  0.00    -0.368 A  
HETATM   28  F   UNL     1     -13.806  13.031  72.260  1.00  0.00    -0.553 F  
HETATM   29  C   UNL     1     -11.429  11.415  70.057  1.00  0.00    -0.331 A  
HETATM   30  C   UNL     1     -13.327  10.737  71.974  1.00  0.00    -0.403 A  
HETATM   31  C   UNL     1     -13.105  12.070  71.645  1.00  0.00    -0.318 A  
HETATM   32  C   UNL     1     -12.592   9.731  71.337  1.00  0.00    -0.482 A  
ENDBRANCH  14  26
ENDBRANCH  12  13
ENDBRANCH  11  12
ENDBRANCH   3  11
TORSDOF 6
ENDMDL
MODEL      163
REMARK 921   NORMALIZED FREE ENERGY PREDICTED BY IDOCK:   -4.48 KCAL/MOL
REMARK 922        TOTAL FREE ENERGY PREDICTED BY IDOCK:   -7.86 KCAL/MOL
REMARK 923 INTER-LIGAND FREE ENERGY PREDICTED BY IDOCK:   -6.61 KCAL/MOL
REMARK 924 INTRA-LIGAND FREE ENERGY PREDICTED BY IDOCK:   -1.24 KCAL/MOL
REMARK 927      BINDING AFFINITY PREDICTED BY RF-SCORE:    0.00 PKD
ROOT
HETATM    1  O   UNL     1     -11.950  10.604  67.765  1.00  0.00    -0.664 OA 
HETATM    2  H   UNL     1     -12.452  11.263  68.229  1.00  0.00     0.000 HD 
HETATM    3  C   UNL     1     -10.808  11.205  67.160  1.00  0.00    -0.273 C  
ENDROOT
BRANCH   3   4
HETATM    4  C   UNL     1     -11.223  12.369  66.286  1.00  0.00    -0.361 A  
HETATM    5  C   UNL     1     -11.098  12.313  64.887  1.00  0.00    -0.356 A  
HETATM    6  C   UNL     1     -11.740  13.538  66.873  1.00  0.00    -0.424 A  
HETATM    7  C   UNL     1     -11.507  13.383  64.092  1.00  0.00    -0.421 A  
HETATM    8  F   UNL     1     -12.451  15.536  63.930  1.00  0.00    -0.418 F  
HETATM    9  C   UNL     1     -12.152  14.607  66.076  1.00  0.00    -0.212 A  
HETATM   10  C   UNL     1     -12.038  14.516  64.694  1.00  0.00    -0.473 A  
ENDBRANCH   3   4
BRANCH   3  11
HETATM   11  C   UNL     1      -9.999  10.143  66.411  1.00  0.00    -0.295 C  
BRANCH  11  12
HETATM   12  C   UNL     1      -8.740   9.646  67.145  1.00  0.00    -0.137 C  
BRANCH  12  13
HETATM   13  C   UNL     1      -9.170   8.698  68.262  1.00  0.00    -0.140 C  
HETATM   14  N   UNL     1      -9.187   6.656  67.909  1.00  0.00    -0.113 N  
HETATM   15  O   UNL     1     -11.266   7.609  67.332  1.00  0.00     0.012 OA 
HETATM   16  C   UNL     1     -10.143   7.608  67.775  1.00  0.00    -0.186 C  
HETATM   17  C   UNL     1      -8.249   7.486  68.677  1.00  0.00    -0.129 C  
BRANCH  17  18
HETATM   18  C   UNL     1      -8.188   7.278  70.268  1.00  0.00    -0.133 A  
HETATM   19  H   UNL     1      -8.484   7.709  74.984  1.00  0.00     0.000 HD 
HETATM   20  C   UNL     1      -8.565   5.898  72.271  1.00  0.00    -0.124 A  
HETATM   21  C   UNL     1      -8.445   6.035  70.884  1.00  0.00    -0.127 A  
HETATM   22  C   UNL     1      -8.001   8.375  71.137  1.00  0.00    -0.127 A  
HETATM   23  C   UNL     1      -8.419   7.016  73.080  1.00  0.00    -0.117 A  
HETATM   24  O   UNL     1      -8.584   6.944  74.431  1.00  0.00    -0.151 OA 
HETATM   25  C   UNL     1      -8.117   8.249  72.527  1.00  0.00    -0.209 A  
ENDBRANCH  17  18
BRANCH  14  26
HETATM   26  C   UNL     1      -9.103   5.360  67.409  1.00  0.00    -0.111 A  
HETATM   27  C   UNL     1      -8.493   3.846  65.604  1.00  0.00    -0.110 A  
HETATM   28  F   UNL     1      -8.818   1.532  65.878  1.00  0.00    -0.104 F  
HETATM   29  C   UNL     1      -8.595   5.139  66.121  1.00  0.00    -0.117 A  
HETATM   30  C   UNL     1      -9.400   2.966  67.661  1.00  0.00    -0.234 A  
HETATM   31  C   UNL     1      -8.903   2.772  66.376  1.00  0.00    -0.145 A  
HETATM   32  C   UNL     1      -9.494   4.261  68.182  1.00  0.00    -0.213 A  
ENDBRANCH  14  26
ENDBRANCH  12  13
ENDBRANCH  11  12
ENDBRANCH   3  11
TORSDOF 6
ENDMDL
MODEL      164
REMARK 921   NORMALIZED FREE ENERGY PREDICTED BY IDOCK:   -4.44 KCAL/MOL
REMARK 922        TOTAL FREE ENERGY PREDICTED BY IDOCK:   -7.80 KCAL/MOL
REMARK 923 INTER-LIGAND FREE ENERGY PREDICTED BY IDOCK:   -5.90 KCAL/MOL
REMARK 924 INTRA-LIGAND FREE ENERGY PREDICTED BY IDOCK:   -1.90 KCAL/MOL
REMARK 927      BINDING AFFINITY PREDICTED BY RF-SCORE:    0.00 PKD
ROOT
HETATM    1  O   UNL     1     -12.419  14.283  66.595  1.00  0.00    -0.559 OA 
HETATM    2  H   UNL     1     -13.042  14.978  66.771  1.00  0.00     0.000 HD 
HETATM    3  C   UNL     1     -12.356  13.398  67.711  1.00  0.00     0.051 C  
ENDROOT
BRANCH   3   4
HETATM    4  C   UNL     1     -12.054  14.167  68.980  1.00  0.00    -0.348 A  
HETATM    5  C   UNL     1     -11.250  15.319  68.963  1.00  0.00    -0.287 A  
HETATM    6  C   UNL     1     -12.579  13.726  70.208  1.00  0.00    -0.288 A  
HETATM    7  C   UNL     1     -11.001  16.031  70.136  1.00  0.00    -0.369 A  
HETATM    8  F   UNL     1     -11.330  16.285  72.454  1.00  0.00    -0.439 F  
HETATM    9  C   UNL     1     -12.332  14.442  71.380  1.00  0.00    -0.433 A  
HETATM   10  C   UNL     1     -11.551  15.590  71.332  1.00  0.00    -0.419 A  
ENDBRANCH   3   4
BRANCH   3  11
HETATM   11  C   UNL     1     -11.351  12.278  67.427  1.00  0.00    -0.389 C  
BRANCH  11  12
HETATM   12  C   UNL     1     -10.679  11.675  68.674  1.00  0.00    -0.246 C  
BRANCH  12  13
HETATM   13  C   UNL     1      -9.207  12.079  68.677  1.00  0.00    -0.043 C  
HETATM   14  N   UNL     1      -7.860  11.012  67.520  1.00  0.00    -0.113 N  
HETATM   15  O   UNL     1      -8.045  10.050  69.666  1.00  0.00    -0.143 OA 
HETATM   16  C   UNL     1      -8.260  10.871  68.808  1.00  0.00    -0.151 C  
HETATM   17  C   UNL     1      -8.450  12.341  67.319  1.00  0.00    -0.181 C  
BRANCH  17  18
HETATM   18  C   UNL     1      -7.477  13.617  67.394  1.00  0.00    -0.139 A  
HETATM   19  H   UNL     1      -5.530  17.892  68.069  1.00  0.00     0.000 HD 
HETATM   20  C   UNL     1      -5.312  14.637  67.972  1.00  0.00    -0.114 A  
HETATM   21  C   UNL     1      -6.111  13.514  67.733  1.00  0.00    -0.148 A  
HETATM   22  C   UNL     1      -7.984  14.926  67.252  1.00  0.00    -0.237 A  
HETATM   23  C   UNL     1      -5.870  15.903  67.864  1.00  0.00    -0.140 A  
HETATM   24  O   UNL     1      -5.148  17.025  68.143  1.00  0.00    -0.114 OA 
HETATM   25  C   UNL     1      -7.193  16.059  67.486  1.00  0.00    -0.196 A  
ENDBRANCH  17  18
BRANCH  14  26
HETATM   26  C   UNL     1      -7.189  10.142  66.666  1.00  0.00    -0.105 A  
HETATM   27  C   UNL     1      -5.206   8.829  66.148  1.00  0.00    -0.030 A  
HETATM   28  F   UNL     1      -5.153   7.547  64.175  1.00  0.00    -0.027 F  
HETATM   29  C   UNL     1      -5.893   9.709  66.985  1.00  0.00    -0.051 A  
HETATM   30  C   UNL     1      -7.103   8.788  64.655  1.00  0.00    -0.088 A  
HETATM   31  C   UNL     1      -5.814   8.382  64.987  1.00  0.00    -0.045 A  
HETATM   32  C   UNL     1      -7.795   9.665  65.499  1.00  0.00    -0.111 A  
ENDBRANCH  14  26
ENDBRANCH  12  13
ENDBRANCH  11  12
ENDBRANCH   3  11
TORSDOF 6
ENDMDL
MODEL      165
REMARK 921   NORMALIZED FREE ENERGY PREDICTED BY IDOCK:   -4.40 KCAL/MOL
REMARK 922        TOTAL FREE ENERGY PREDICTED BY IDOCK:   -7.75 KCAL/MOL
REMARK 923 INTER-LIGAND FREE ENERGY PREDICTED BY IDOCK:   -6.64 KCAL/MOL
REMARK 924 INTRA-LIGAND FREE ENERGY PREDICTED BY IDOCK:   -1.11 KCAL/MOL
REMARK 927      BINDING AFFINITY PREDICTED BY RF-SCORE:    0.00 PKD
ROOT
HETATM    1  O   UNL     1     -11.554  14.879  69.850  1.00  0.00    -0.257 OA 
HETATM    2  H   UNL     1     -11.608  15.618  70.444  1.00  0.00     0.000 HD 
HETATM    3  C   UNL     1     -10.379  14.989  69.049  1.00  0.00    -0.243 C  
ENDROOT
BRANCH   3   4
HETATM    4  C   UNL     1     -10.341  16.330  68.346  1.00  0.00    -0.271 A  
HETATM    5  C   UNL     1     -10.216  17.529  69.066  1.00  0.00    -0.314 A  
HETATM    6  C   UNL     1     -10.438  16.389  66.944  1.00  0.00    -0.289 A  
HETATM    7  C   UNL     1     -10.157  18.755  68.404  1.00  0.00    -0.443 A  
HETATM    8  F   UNL     1     -10.151  19.960  66.380  1.00  0.00    -0.448 F  
HETATM    9  C   UNL     1     -10.375  17.616  66.282  1.00  0.00    -0.342 A  
HETATM   10  C   UNL     1     -10.229  18.786  67.018  1.00  0.00    -0.381 A  
ENDBRANCH   3   4
BRANCH   3  11
HETATM   11  C   UNL     1     -10.293  13.799  68.090  1.00  0.00    -0.252 C  
BRANCH  11  12
HETATM   12  C   UNL     1     -10.416  12.416  68.755  1.00  0.00    -0.179 C  
BRANCH  12  13
HETATM   13  C   UNL     1      -9.463  11.452  68.054  1.00  0.00    -0.181 C  
HETATM   14  N   UNL     1      -9.546   9.432  68.511  1.00  0.00    -0.145 N  
HETATM   15  O   UNL     1      -8.047  10.543  69.956  1.00  0.00     0.005 OA 
HETATM   16  C   UNL     1      -8.811  10.450  69.026  1.00  0.00    -0.172 C  
HETATM   17  C   UNL     1     -10.020  10.166  67.331  1.00  0.00    -0.195 C  
BRANCH  17  18
HETATM   18  C   UNL     1      -9.290   9.887  65.927  1.00  0.00    -0.245 A  
HETATM   19  H   UNL     1      -6.899  10.186  61.839  1.00  0.00     0.000 HD 
HETATM   20  C   UNL     1      -7.780   8.547  64.519  1.00  0.00    -0.126 A  
HETATM   21  C   UNL     1      -8.559   8.708  65.670  1.00  0.00    -0.191 A  
HETATM   22  C   UNL     1      -9.239  10.880  64.925  1.00  0.00    -0.230 A  
HETATM   23  C   UNL     1      -7.726   9.571  63.586  1.00  0.00    -0.125 A  
HETATM   24  O   UNL     1      -6.936   9.485  62.478  1.00  0.00    -0.098 OA 
HETATM   25  C   UNL     1      -8.465  10.728  63.768  1.00  0.00     0.008 A  
ENDBRANCH  17  18
BRANCH  14  26
HETATM   26  C   UNL     1      -9.815   8.157  68.996  1.00  0.00    -0.176 A  
HETATM   27  C   UNL     1     -10.959   6.022  68.755  1.00  0.00    -0.384 A  
HETATM   28  F   UNL     1     -10.641   4.351  70.381  1.00  0.00    -0.163 F  
HETATM   29  C   UNL     1     -10.683   7.309  68.292  1.00  0.00    -0.174 A  
HETATM   30  C   UNL     1      -9.496   6.400  70.638  1.00  0.00    -0.176 A  
HETATM   31  C   UNL     1     -10.368   5.581  69.927  1.00  0.00    -0.298 A  
HETATM   32  C   UNL     1      -9.213   7.687  70.169  1.00  0.00    -0.154 A  
ENDBRANCH  14  26
ENDBRANCH  12  13
ENDBRANCH  11  12
ENDBRANCH   3  11
TORSDOF 6
ENDMDL
MODEL      166
REMARK 921   NORMALIZED FREE ENERGY PREDICTED BY IDOCK:   -4.39 KCAL/MOL
REMARK 922        TOTAL FREE ENERGY PREDICTED BY IDOCK:   -7.74 KCAL/MOL
REMARK 923 INTER-LIGAND FREE ENERGY PREDICTED BY IDOCK:   -6.51 KCAL/MOL
REMARK 924 INTRA-LIGAND FREE ENERGY PREDICTED BY IDOCK:   -1.24 KCAL/MOL
REMARK 927      BINDING AFFINITY PREDICTED BY RF-SCORE:    0.00 PKD
ROOT
HETATM    1  O   UNL     1     -11.020  13.728  69.624  1.00  0.00    -0.446 OA 
HETATM    2  H   UNL     1     -10.998  14.492  70.188  1.00  0.00     0.000 HD 
HETATM    3  C   UNL     1      -9.796  13.626  68.902  1.00  0.00     0.030 C  
ENDROOT
BRANCH   3   4
HETATM    4  C   UNL     1      -9.512  14.913  68.156  1.00  0.00    -0.202 A  
HETATM    5  C   UNL     1     -10.547  15.663  67.573  1.00  0.00    -0.297 A  
HETATM    6  C   UNL     1      -8.189  15.375  68.033  1.00  0.00    -0.146 A  
HETATM    7  C   UNL     1     -10.274  16.859  66.911  1.00  0.00    -0.296 A  
HETATM    8  F   UNL     1      -8.703  18.466  66.207  1.00  0.00    -0.282 F  
HETATM    9  C   UNL     1      -7.918  16.574  67.373  1.00  0.00    -0.175 A  
HETATM   10  C   UNL     1      -8.964  17.307  66.824  1.00  0.00    -0.250 A  
ENDBRANCH   3   4
BRANCH   3  11
HETATM   11  C   UNL     1      -9.831  12.394  67.993  1.00  0.00    -0.205 C  
BRANCH  11  12
HETATM   12  C   UNL     1     -10.681  11.223  68.517  1.00  0.00    -0.235 C  
BRANCH  12  13
HETATM   13  C   UNL     1      -9.913   9.923  68.288  1.00  0.00    -0.172 C  
HETATM   14  N   UNL     1     -10.194   8.336  69.591  1.00  0.00    -0.204 N  
HETATM   15  O   UNL     1      -8.454   9.733  70.357  1.00  0.00    -0.188 OA 
HETATM   16  C   UNL     1      -9.302   9.358  69.584  1.00  0.00    -0.189 C  
HETATM   17  C   UNL     1     -10.679   8.547  68.221  1.00  0.00    -0.036 C  
BRANCH  17  18
HETATM   18  C   UNL     1     -10.114   7.584  67.066  1.00  0.00    -0.332 A  
HETATM   19  H   UNL     1      -7.437   5.222  63.940  1.00  0.00     0.000 HD 
HETATM   20  C   UNL     1      -9.979   5.379  65.980  1.00  0.00    -0.118 A  
HETATM   21  C   UNL     1     -10.593   6.273  66.865  1.00  0.00    -0.374 A  
HETATM   22  C   UNL     1      -9.008   7.970  66.277  1.00  0.00    -0.208 A  
HETATM   23  C   UNL     1      -8.866   5.791  65.261  1.00  0.00    -0.049 A  
HETATM   24  O   UNL     1      -8.200   4.940  64.431  1.00  0.00    -0.110 OA 
HETATM   25  C   UNL     1      -8.387   7.084  65.387  1.00  0.00    -0.121 A  
ENDBRANCH  17  18
BRANCH  14  26
HETATM   26  C   UNL     1     -10.569   7.451  70.596  1.00  0.00    -0.223 A  
HETATM   27  C   UNL     1     -12.325   6.367  71.887  1.00  0.00    -0.279 A  
HETATM   28  F   UNL     1     -11.741   4.820  73.561  1.00  0.00    -0.384 F  
HETATM   29  C   UNL     1     -11.927   7.259  70.890  1.00  0.00    -0.342 A  
HETATM   30  C   UNL     1     -10.010   5.832  72.314  1.00  0.00    -0.197 A  
HETATM   31  C   UNL     1     -11.363   5.667  72.595  1.00  0.00    -0.305 A  
HETATM   32  C   UNL     1      -9.611   6.720  71.309  1.00  0.00    -0.172 A  
ENDBRANCH  14  26
ENDBRANCH  12  13
ENDBRANCH  11  12
ENDBRANCH   3  11
TORSDOF 6
ENDMDL
MODEL      167
REMARK 921   NORMALIZED FREE ENERGY PREDICTED BY IDOCK:   -4.36 KCAL/MOL
REMARK 922        TOTAL FREE ENERGY PREDICTED BY IDOCK:   -7.69 KCAL/MOL
REMARK 923 INTER-LIGAND FREE ENERGY PREDICTED BY IDOCK:   -6.54 KCAL/MOL
REMARK 924 INTRA-LIGAND FREE ENERGY PREDICTED BY IDOCK:   -1.15 KCAL/MOL
REMARK 927      BINDING AFFINITY PREDICTED BY RF-SCORE:    0.00 PKD
ROOT
HETATM    1  O   UNL     1     -12.852  14.396  69.807  1.00  0.00    -0.517 OA 
HETATM    2  H   UNL     1     -12.774  15.299  70.093  1.00  0.00     0.000 HD 
HETATM    3  C   UNL     1     -11.556  13.858  69.552  1.00  0.00    -0.301 C  
ENDROOT
BRANCH   3   4
HETATM    4  C   UNL     1     -10.803  14.734  68.573  1.00  0.00    -0.255 A  
HETATM    5  C   UNL     1      -9.876  15.693  69.015  1.00  0.00    -0.236 A  
HETATM    6  C   UNL     1     -11.031  14.599  67.192  1.00  0.00    -0.316 A  
HETATM    7  C   UNL     1      -9.171  16.475  68.101  1.00  0.00    -0.217 A  
HETATM    8  F   UNL     1      -8.703  17.042  65.863  1.00  0.00    -0.288 F  
HETATM    9  C   UNL     1     -10.323  15.380  66.278  1.00  0.00    -0.304 A  
HETATM   10  C   UNL     1      -9.395  16.306  66.741  1.00  0.00    -0.237 A  
ENDBRANCH   3   4
BRANCH   3  11
HETATM   11  C   UNL     1     -11.681  12.404  69.092  1.00  0.00    -0.376 C  
BRANCH  11  12
HETATM   12  C   UNL     1     -10.349  11.640  68.978  1.00  0.00    -0.119 C  
BRANCH  12  13
HETATM   13  C   UNL     1     -10.596  10.176  69.332  1.00  0.00    -0.261 C  
HETATM   14  N   UNL     1      -9.289   8.729  68.631  1.00  0.00    -0.141 N  
HETATM   15  O   UNL     1     -11.026   9.092  67.077  1.00  0.00    -0.091 OA 
HETATM   16  C   UNL     1     -10.439   9.237  68.121  1.00  0.00    -0.215 C  
HETATM   17  C   UNL     1      -9.446   9.306  69.972  1.00  0.00    -0.211 C  
BRANCH  17  18
HETATM   18  C   UNL     1      -9.980   8.350  71.147  1.00  0.00    -0.245 A  
HETATM   19  H   UNL     1     -11.803   4.819  73.741  1.00  0.00     0.000 HD 
HETATM   20  C   UNL     1      -9.687   7.270  73.340  1.00  0.00    -0.297 A  
HETATM   21  C   UNL     1      -9.324   8.232  72.390  1.00  0.00    -0.338 A  
HETATM   22  C   UNL     1     -11.068   7.476  70.933  1.00  0.00    -0.279 A  
HETATM   23  C   UNL     1     -10.734   6.403  73.063  1.00  0.00    -0.259 A  
HETATM   24  O   UNL     1     -11.087   5.413  73.930  1.00  0.00    -0.195 OA 
HETATM   25  C   UNL     1     -11.441   6.511  71.877  1.00  0.00    -0.345 A  
ENDBRANCH  17  18
BRANCH  14  26
HETATM   26  C   UNL     1      -8.273   7.982  68.042  1.00  0.00    -0.129 A  
HETATM   27  C   UNL     1      -6.588   6.234  68.213  1.00  0.00    -0.062 A  
HETATM   28  F   UNL     1      -5.258   5.725  66.339  1.00  0.00    -0.008 F  
HETATM   29  C   UNL     1      -7.603   7.001  68.787  1.00  0.00    -0.105 A  
HETATM   30  C   UNL     1      -6.898   7.410  66.128  1.00  0.00    -0.057 A  
HETATM   31  C   UNL     1      -6.240   6.451  66.890  1.00  0.00    -0.040 A  
HETATM   32  C   UNL     1      -7.921   8.174  66.701  1.00  0.00    -0.102 A  
ENDBRANCH  14  26
ENDBRANCH  12  13
ENDBRANCH  11  12
ENDBRANCH   3  11
TORSDOF 6
ENDMDL
MODEL      168
REMARK 921   NORMALIZED FREE ENERGY PREDICTED BY IDOCK:   -4.34 KCAL/MOL
REMARK 922        TOTAL FREE ENERGY PREDICTED BY IDOCK:   -7.67 KCAL/MOL
REMARK 923 INTER-LIGAND FREE ENERGY PREDICTED BY IDOCK:   -6.04 KCAL/MOL
REMARK 924 INTRA-LIGAND FREE ENERGY PREDICTED BY IDOCK:   -1.63 KCAL/MOL
REMARK 927      BINDING AFFINITY PREDICTED BY RF-SCORE:    0.00 PKD
ROOT
HETATM    1  O   UNL     1      -6.391   7.636  70.100  1.00  0.00    -0.033 OA 
HETATM    2  H   UNL     1      -6.421   6.698  69.957  1.00  0.00     0.000 HD 
HETATM    3  C   UNL     1      -7.486   8.261  69.435  1.00  0.00    -0.090 C  
ENDROOT
BRANCH   3   4
HETATM    4  C   UNL     1      -7.504   7.878  67.970  1.00  0.00    -0.108 A  
HETATM    5  C   UNL     1      -8.673   7.400  67.355  1.00  0.00    -0.121 A  
HETATM    6  C   UNL     1      -6.333   7.994  67.201  1.00  0.00    -0.056 A  
HETATM    7  C   UNL     1      -8.682   7.075  65.999  1.00  0.00    -0.156 A  
HETATM    8  F   UNL     1      -7.533   6.929  63.948  1.00  0.00    -0.067 F  
HETATM    9  C   UNL     1      -6.344   7.672  65.843  1.00  0.00    -0.042 A  
HETATM   10  C   UNL     1      -7.520   7.221  65.254  1.00  0.00    -0.089 A  
ENDBRANCH   3   4
BRANCH   3  11
HETATM   11  C   UNL     1      -7.437   9.774  69.665  1.00  0.00    -0.113 C  
BRANCH  11  12
HETATM   12  C   UNL     1      -8.735  10.527  69.325  1.00  0.00    -0.135 C  
BRANCH  12  13
HETATM   13  C   UNL     1      -8.383  11.743  68.471  1.00  0.00    -0.131 C  
HETATM   14  N   UNL     1      -9.550  12.195  66.820  1.00  0.00    -0.206 N  
HETATM   15  O   UNL     1      -7.804  10.728  66.217  1.00  0.00    -0.147 OA 
HETATM   16  C   UNL     1      -8.430  11.442  66.961  1.00  0.00    -0.159 C  
HETATM   17  C   UNL     1      -9.478  12.830  68.142  1.00  0.00    -0.219 C  
BRANCH  17  18
HETATM   18  C   UNL     1      -8.903  14.327  68.229  1.00  0.00    -0.185 A  
HETATM   19  H   UNL     1      -8.321  19.028  68.512  1.00  0.00     0.000 HD 
HETATM   20  C   UNL     1      -7.363  15.985  69.198  1.00  0.00    -0.209 A  
HETATM   21  C   UNL     1      -7.756  14.660  68.980  1.00  0.00    -0.134 A  
HETATM   22  C   UNL     1      -9.607  15.409  67.657  1.00  0.00    -0.210 A  
HETATM   23  C   UNL     1      -8.115  17.016  68.652  1.00  0.00    -0.254 A  
HETATM   24  O   UNL     1      -7.806  18.323  68.885  1.00  0.00    -0.281 OA 
HETATM   25  C   UNL     1      -9.222  16.739  67.867  1.00  0.00    -0.225 A  
ENDBRANCH  17  18
BRANCH  14  26
HETATM   26  C   UNL     1     -10.486  12.266  65.793  1.00  0.00    -0.255 A  
HETATM   27  C   UNL     1     -11.140  11.720  63.513  1.00  0.00    -0.503 A  
HETATM   28  F   UNL     1     -13.234  12.432  62.710  1.00  0.00    -0.066 F  
HETATM   29  C   UNL     1     -10.211  11.670  64.553  1.00  0.00    -0.337 A  
HETATM   30  C   UNL     1     -12.646  12.960  64.935  1.00  0.00    -0.525 A  
HETATM   31  C   UNL     1     -12.346  12.371  63.711  1.00  0.00    -0.528 A  
HETATM   32  C   UNL     1     -11.718  12.903  65.981  1.00  0.00    -0.456 A  
ENDBRANCH  14  26
ENDBRANCH  12  13
ENDBRANCH  11  12
ENDBRANCH   3  11
TORSDOF 6
ENDMDL
MODEL      169
REMARK 921   NORMALIZED FREE ENERGY PREDICTED BY IDOCK:   -4.34 KCAL/MOL
REMARK 922        TOTAL FREE ENERGY PREDICTED BY IDOCK:   -7.67 KCAL/MOL
REMARK 923 INTER-LIGAND FREE ENERGY PREDICTED BY IDOCK:   -5.76 KCAL/MOL
REMARK 924 INTRA-LIGAND FREE ENERGY PREDICTED BY IDOCK:   -1.91 KCAL/MOL
REMARK 927      BINDING AFFINITY PREDICTED BY RF-SCORE:    0.00 PKD
ROOT
HETATM    1  O   UNL     1     -10.255  18.314  69.656  1.00  0.00    -0.221 OA 
HETATM    2  H   UNL     1     -11.013  18.538  70.182  1.00  0.00     0.000 HD 
HETATM    3  C   UNL     1     -10.555  17.190  68.832  1.00  0.00    -0.314 C  
ENDROOT
BRANCH   3   4
HETATM    4  C   UNL     1     -11.063  16.038  69.672  1.00  0.00    -0.331 A  
HETATM    5  C   UNL     1     -10.819  15.978  71.054  1.00  0.00     0.062 A  
HETATM    6  C   UNL     1     -11.792  14.998  69.068  1.00  0.00    -0.330 A  
HETATM    7  C   UNL     1     -11.314  14.924  71.820  1.00  0.00    -0.175 A  
HETATM    8  F   UNL     1     -12.547  12.920  71.943  1.00  0.00    -0.321 F  
HETATM    9  C   UNL     1     -12.290  13.945  69.836  1.00  0.00    -0.358 A  
HETATM   10  C   UNL     1     -12.053  13.921  71.205  1.00  0.00    -0.167 A  
ENDBRANCH   3   4
BRANCH   3  11
HETATM   11  C   UNL     1      -9.333  16.829  67.984  1.00  0.00    -0.229 C  
BRANCH  11  12
HETATM   12  C   UNL     1      -8.442  15.715  68.565  1.00  0.00    -0.175 C  
BRANCH  12  13
HETATM   13  C   UNL     1      -8.287  14.618  67.515  1.00  0.00    -0.203 C  
HETATM   14  N   UNL     1      -7.445  12.805  68.060  1.00  0.00    -0.109 N  
HETATM   15  O   UNL     1      -5.772  14.312  67.355  1.00  0.00    -0.344 OA 
HETATM   16  C   UNL     1      -6.903  13.944  67.560  1.00  0.00    -0.130 C  
HETATM   17  C   UNL     1      -8.842  13.168  67.790  1.00  0.00    -0.191 C  
BRANCH  17  18
HETATM   18  C   UNL     1      -9.552  12.526  66.500  1.00  0.00    -0.242 A  
HETATM   19  H   UNL     1     -11.296  11.602  62.185  1.00  0.00     0.000 HD 
HETATM   20  C   UNL     1      -9.955  10.622  64.993  1.00  0.00    -0.369 A  
HETATM   21  C   UNL     1      -9.491  11.148  66.204  1.00  0.00    -0.229 A  
HETATM   22  C   UNL     1     -10.164  13.345  65.526  1.00  0.00    -0.300 A  
HETATM   23  C   UNL     1     -10.507  11.474  64.048  1.00  0.00    -0.370 A  
HETATM   24  O   UNL     1     -10.919  11.018  62.832  1.00  0.00     0.158 OA 
HETATM   25  C   UNL     1     -10.634  12.828  64.312  1.00  0.00    -0.424 A  
ENDBRANCH  17  18
BRANCH  14  26
HETATM   26  C   UNL     1      -6.862  11.709  68.688  1.00  0.00    -0.079 A  
HETATM   27  C   UNL     1      -6.179   9.374  68.620  1.00  0.00    -0.044 A  
HETATM   28  F   UNL     1      -5.128   8.423  70.499  1.00  0.00    -0.023 F  
HETATM   29  C   UNL     1      -6.769  10.483  68.012  1.00  0.00    -0.065 A  
HETATM   30  C   UNL     1      -5.754  10.697  70.594  1.00  0.00    -0.111 A  
HETATM   31  C   UNL     1      -5.683   9.489  69.908  1.00  0.00    -0.036 A  
HETATM   32  C   UNL     1      -6.339  11.812  69.981  1.00  0.00    -0.092 A  
ENDBRANCH  14  26
ENDBRANCH  12  13
ENDBRANCH  11  12
ENDBRANCH   3  11
TORSDOF 6
ENDMDL
MODEL      170
REMARK 921   NORMALIZED FREE ENERGY PREDICTED BY IDOCK:   -4.33 KCAL/MOL
REMARK 922        TOTAL FREE ENERGY PREDICTED BY IDOCK:   -7.65 KCAL/MOL
REMARK 923 INTER-LIGAND FREE ENERGY PREDICTED BY IDOCK:   -6.66 KCAL/MOL
REMARK 924 INTRA-LIGAND FREE ENERGY PREDICTED BY IDOCK:   -0.99 KCAL/MOL
REMARK 927      BINDING AFFINITY PREDICTED BY RF-SCORE:    0.00 PKD
ROOT
HETATM    1  O   UNL     1      -9.788   6.639  67.861  1.00  0.00    -0.122 OA 
HETATM    2  H   UNL     1     -10.242   5.807  67.924  1.00  0.00     0.000 HD 
HETATM    3  C   UNL     1      -9.345   6.846  66.521  1.00  0.00    -0.158 C  
ENDROOT
BRANCH   3   4
HETATM    4  C   UNL     1      -8.515   5.671  66.050  1.00  0.00    -0.132 A  
HETATM    5  C   UNL     1      -8.788   5.025  64.832  1.00  0.00    -0.140 A  
HETATM    6  C   UNL     1      -7.450   5.203  66.841  1.00  0.00    -0.087 A  
HETATM    7  C   UNL     1      -7.999   3.960  64.399  1.00  0.00    -0.086 A  
HETATM    8  F   UNL     1      -6.167   2.524  64.760  1.00  0.00    -0.017 F  
HETATM    9  C   UNL     1      -6.659   4.139  66.404  1.00  0.00    -0.042 A  
HETATM   10  C   UNL     1      -6.937   3.532  65.185  1.00  0.00    -0.057 A  
ENDBRANCH   3   4
BRANCH   3  11
HETATM   11  C   UNL     1      -8.612   8.186  66.419  1.00  0.00    -0.150 C  
BRANCH  11  12
HETATM   12  C   UNL     1      -9.520   9.429  66.446  1.00  0.00    -0.259 C  
BRANCH  12  13
HETATM   13  C   UNL     1      -9.697   9.871  67.896  1.00  0.00    -0.162 C  
HETATM   14  N   UNL     1     -10.134  11.856  68.304  1.00  0.00    -0.199 N  
HETATM   15  O   UNL     1      -7.799  11.522  68.240  1.00  0.00    -0.122 OA 
HETATM   16  C   UNL     1      -8.958  11.186  68.210  1.00  0.00    -0.166 C  
HETATM   17  C   UNL     1     -10.989  10.662  68.336  1.00  0.00    -0.251 C  
BRANCH  17  18
HETATM   18  C   UNL     1     -11.552  10.176  69.759  1.00  0.00    -0.245 A  
HETATM   19  H   UNL     1     -14.172   9.275  73.612  1.00  0.00     0.000 HD 
HETATM   20  C   UNL     1     -11.870   8.425  71.461  1.00  0.00    -0.345 A  
HETATM   21  C   UNL     1     -11.240   8.916  70.312  1.00  0.00    -0.219 A  
HETATM   22  C   UNL     1     -12.502  10.946  70.465  1.00  0.00    -0.438 A  
HETATM   23  C   UNL     1     -12.831   9.201  72.092  1.00  0.00    -0.412 A  
HETATM   24  O   UNL     1     -13.514   8.744  73.179  1.00  0.00    -0.208 OA 
HETATM   25  C   UNL     1     -13.138  10.466  71.617  1.00  0.00    -0.553 A  
ENDBRANCH  17  18
BRANCH  14  26
HETATM   26  C   UNL     1     -10.419  13.217  68.291  1.00  0.00    -0.250 A  
HETATM   27  C   UNL     1      -9.947  15.449  67.442  1.00  0.00    -0.229 A  
HETATM   28  F   UNL     1     -11.233  17.268  68.198  1.00  0.00    -0.347 F  
HETATM   29  C   UNL     1      -9.670  14.081  67.479  1.00  0.00    -0.232 A  
HETATM   30  C   UNL     1     -11.737  15.116  69.026  1.00  0.00    -0.358 A  
HETATM   31  C   UNL     1     -10.973  15.955  68.222  1.00  0.00    -0.329 A  
HETATM   32  C   UNL     1     -11.465  13.743  69.057  1.00  0.00    -0.349 A  
ENDBRANCH  14  26
ENDBRANCH  12  13
ENDBRANCH  11  12
ENDBRANCH   3  11
TORSDOF 6
ENDMDL
MODEL      171
REMARK 921   NORMALIZED FREE ENERGY PREDICTED BY IDOCK:   -4.28 KCAL/MOL
REMARK 922        TOTAL FREE ENERGY PREDICTED BY IDOCK:   -7.59 KCAL/MOL
REMARK 923 INTER-LIGAND FREE ENERGY PREDICTED BY IDOCK:   -6.29 KCAL/MOL
REMARK 924 INTRA-LIGAND FREE ENERGY PREDICTED BY IDOCK:   -1.30 KCAL/MOL
REMARK 927      BINDING AFFINITY PREDICTED BY RF-SCORE:    0.00 PKD
ROOT
HETATM    1  O   UNL     1      -7.259   8.709  68.459  1.00  0.00    -0.078 OA 
HETATM    2  H   UNL     1      -7.172   7.772  68.327  1.00  0.00     0.000 HD 
HETATM    3  C   UNL     1      -6.613   9.087  69.673  1.00  0.00    -0.043 C  
ENDROOT
BRANCH   3   4
HETATM    4  C   UNL     1      -7.141   8.267  70.831  1.00  0.00    -0.053 A  
HETATM    5  C   UNL     1      -6.465   7.120  71.281  1.00  0.00    -0.041 A  
HETATM    6  C   UNL     1      -8.332   8.647  71.474  1.00  0.00    -0.220 A  
HETATM    7  C   UNL     1      -6.949   6.388  72.365  1.00  0.00    -0.074 A  
HETATM    8  F   UNL     1      -8.568   6.108  74.054  1.00  0.00    -0.118 F  
HETATM    9  C   UNL     1      -8.813   7.916  72.561  1.00  0.00    -0.220 A  
HETATM   10  C   UNL     1      -8.114   6.798  73.000  1.00  0.00    -0.108 A  
ENDBRANCH   3   4
BRANCH   3  11
HETATM   11  C   UNL     1      -6.753  10.596  69.886  1.00  0.00    -0.147 C  
BRANCH  11  12
HETATM   12  C   UNL     1      -8.097  11.196  69.435  1.00  0.00     0.139 C  
BRANCH  12  13
HETATM   13  C   UNL     1      -7.827  12.236  68.350  1.00  0.00    -0.151 C  
HETATM   14  N   UNL     1      -9.110  12.367  66.728  1.00  0.00    -0.210 N  
HETATM   15  O   UNL     1      -7.377  10.827  66.287  1.00  0.00    -0.131 OA 
HETATM   16  C   UNL     1      -7.968  11.662  66.928  1.00  0.00    -0.161 C  
HETATM   17  C   UNL     1      -8.963  13.235  67.904  1.00  0.00    -0.199 C  
BRANCH  17  18
HETATM   18  C   UNL     1      -8.415  14.727  67.674  1.00  0.00    -0.185 A  
HETATM   19  H   UNL     1      -5.845  18.712  67.492  1.00  0.00     0.000 HD 
HETATM   20  C   UNL     1      -8.087  16.700  66.239  1.00  0.00    -0.361 A  
HETATM   21  C   UNL     1      -8.708  15.477  66.516  1.00  0.00    -0.340 A  
HETATM   22  C   UNL     1      -7.496  15.308  68.575  1.00  0.00    -0.121 A  
HETATM   23  C   UNL     1      -7.156  17.207  67.133  1.00  0.00    -0.175 A  
HETATM   24  O   UNL     1      -6.482  18.365  66.879  1.00  0.00    -0.178 OA 
HETATM   25  C   UNL     1      -6.870  16.533  68.309  1.00  0.00    -0.143 A  
ENDBRANCH  17  18
BRANCH  14  26
HETATM   26  C   UNL     1     -10.112  12.239  65.772  1.00  0.00    -0.252 A  
HETATM   27  C   UNL     1     -12.351  12.797  64.997  1.00  0.00    -0.559 A  
HETATM   28  F   UNL     1     -13.121  11.910  62.958  1.00  0.00    -0.615 F  
HETATM   29  C   UNL     1     -11.336  12.902  65.948  1.00  0.00    -0.348 A  
HETATM   30  C   UNL     1     -10.935  11.366  63.664  1.00  0.00    -0.443 A  
HETATM   31  C   UNL     1     -12.144  12.024  63.867  1.00  0.00    -0.457 A  
HETATM   32  C   UNL     1      -9.914  11.478  64.615  1.00  0.00    -0.305 A  
ENDBRANCH  14  26
ENDBRANCH  12  13
ENDBRANCH  11  12
ENDBRANCH   3  11
TORSDOF 6
ENDMDL
MODEL      172
REMARK 921   NORMALIZED FREE ENERGY PREDICTED BY IDOCK:   -4.27 KCAL/MOL
REMARK 922        TOTAL FREE ENERGY PREDICTED BY IDOCK:   -7.58 KCAL/MOL
REMARK 923 INTER-LIGAND FREE ENERGY PREDICTED BY IDOCK:   -6.15 KCAL/MOL
REMARK 924 INTRA-LIGAND FREE ENERGY PREDICTED BY IDOCK:   -1.43 KCAL/MOL
REMARK 927      BINDING AFFINITY PREDICTED BY RF-SCORE:    0.00 PKD
ROOT
HETATM    1  O   UNL     1     -12.253  15.046  67.926  1.00  0.00    -0.518 OA 
HETATM    2  H   UNL     1     -13.066  15.466  68.180  1.00  0.00     0.000 HD 
HETATM    3  C   UNL     1     -12.096  13.825  68.646  1.00  0.00    -0.298 C  
ENDROOT
BRANCH   3   4
HETATM    4  C   UNL     1     -12.204  14.071  70.136  1.00  0.00    -0.425 A  
HETATM    5  C   UNL     1     -12.892  13.179  70.975  1.00  0.00    -0.295 A  
HETATM    6  C   UNL     1     -11.612  15.214  70.702  1.00  0.00    -0.351 A  
HETATM    7  C   UNL     1     -12.962  13.405  72.350  1.00  0.00    -0.372 A  
HETATM    8  F   UNL     1     -12.396  14.734  74.211  1.00  0.00    -0.643 F  
HETATM    9  C   UNL     1     -11.679  15.437  72.078  1.00  0.00    -0.538 A  
HETATM   10  C   UNL     1     -12.348  14.528  72.889  1.00  0.00    -0.162 A  
ENDBRANCH   3   4
BRANCH   3  11
HETATM   11  C   UNL     1     -10.787  13.147  68.236  1.00  0.00    -0.274 C  
BRANCH  11  12
HETATM   12  C   UNL     1     -10.700  11.645  68.562  1.00  0.00    -0.250 C  
BRANCH  12  13
HETATM   13  C   UNL     1      -9.436  11.079  67.919  1.00  0.00    -0.170 C  
HETATM   14  N   UNL     1      -8.502   9.446  68.787  1.00  0.00    -0.120 N  
HETATM   15  O   UNL     1      -7.660  11.454  69.694  1.00  0.00     0.090 OA 
HETATM   16  C   UNL     1      -8.329  10.782  68.948  1.00  0.00    -0.147 C  
HETATM   17  C   UNL     1      -9.334   9.542  67.581  1.00  0.00    -0.123 C  
BRANCH  17  18
HETATM   18  C   UNL     1      -8.636   9.270  66.160  1.00  0.00    -0.146 A  
HETATM   19  H   UNL     1      -6.653   7.367  62.292  1.00  0.00     0.000 HD 
HETATM   20  C   UNL     1      -8.482   9.653  63.734  1.00  0.00    -0.190 A  
HETATM   21  C   UNL     1      -8.956  10.008  65.001  1.00  0.00    -0.234 A  
HETATM   22  C   UNL     1      -7.758   8.180  65.980  1.00  0.00    -0.090 A  
HETATM   23  C   UNL     1      -7.657   8.545  63.602  1.00  0.00    -0.127 A  
HETATM   24  O   UNL     1      -7.217   8.126  62.382  1.00  0.00    -0.092 OA 
HETATM   25  C   UNL     1      -7.274   7.817  64.717  1.00  0.00    -0.067 A  
ENDBRANCH  17  18
BRANCH  14  26
HETATM   26  C   UNL     1      -8.090   8.366  69.562  1.00  0.00    -0.113 A  
HETATM   27  C   UNL     1      -8.573   6.726  71.295  1.00  0.00    -0.125 A  
HETATM   28  F   UNL     1      -6.927   5.149  71.882  1.00  0.00    -0.055 F  
HETATM   29  C   UNL     1      -8.961   7.815  70.514  1.00  0.00    -0.150 A  
HETATM   30  C   UNL     1      -6.431   6.709  70.181  1.00  0.00    -0.040 A  
HETATM   31  C   UNL     1      -7.308   6.187  71.126  1.00  0.00    -0.084 A  
HETATM   32  C   UNL     1      -6.824   7.796  69.392  1.00  0.00    -0.044 A  
ENDBRANCH  14  26
ENDBRANCH  12  13
ENDBRANCH  11  12
ENDBRANCH   3  11
TORSDOF 6
ENDMDL
MODEL      173
REMARK 921   NORMALIZED FREE ENERGY PREDICTED BY IDOCK:   -4.26 KCAL/MOL
REMARK 922        TOTAL FREE ENERGY PREDICTED BY IDOCK:   -7.56 KCAL/MOL
REMARK 923 INTER-LIGAND FREE ENERGY PREDICTED BY IDOCK:   -6.83 KCAL/MOL
REMARK 924 INTRA-LIGAND FREE ENERGY PREDICTED BY IDOCK:   -0.73 KCAL/MOL
REMARK 927      BINDING AFFINITY PREDICTED BY RF-SCORE:    0.00 PKD
ROOT
HETATM    1  O   UNL     1     -12.170   6.794  71.483  1.00  0.00    -0.338 OA 
HETATM    2  H   UNL     1     -12.189   6.026  72.041  1.00  0.00     0.000 HD 
HETATM    3  C   UNL     1     -10.973   6.799  70.709  1.00  0.00    -0.262 C  
ENDROOT
BRANCH   3   4
HETATM    4  C   UNL     1      -9.760   6.679  71.607  1.00  0.00    -0.170 A  
HETATM    5  C   UNL     1      -9.687   7.365  72.831  1.00  0.00    -0.231 A  
HETATM    6  C   UNL     1      -8.676   5.873  71.218  1.00  0.00    -0.132 A  
HETATM    7  C   UNL     1      -8.575   7.226  73.661  1.00  0.00    -0.193 A  
HETATM    8  F   UNL     1      -6.469   6.254  74.071  1.00  0.00    -0.066 F  
HETATM    9  C   UNL     1      -7.565   5.732  72.051  1.00  0.00    -0.101 A  
HETATM   10  C   UNL     1      -7.528   6.404  73.266  1.00  0.00    -0.090 A  
ENDBRANCH   3   4
BRANCH   3  11
HETATM   11  C   UNL     1     -10.942   8.038  69.811  1.00  0.00    -0.138 C  
BRANCH  11  12
HETATM   12  C   UNL     1     -11.574   9.302  70.422  1.00  0.00    -0.215 C  
BRANCH  12  13
HETATM   13  C   UNL     1     -10.805  10.522  69.921  1.00  0.00    -0.334 C  
HETATM   14  N   UNL     1     -10.130  10.562  67.962  1.00  0.00    -0.161 N  
HETATM   15  O   UNL     1      -8.511   9.583  69.371  1.00  0.00    -0.126 OA 
HETATM   16  C   UNL     1      -9.549  10.142  69.114  1.00  0.00    -0.212 C  
HETATM   17  C   UNL     1     -11.253  11.260  68.601  1.00  0.00    -0.250 C  
BRANCH  17  18
HETATM   18  C   UNL     1     -11.170  12.858  68.732  1.00  0.00    -0.323 A  
HETATM   19  H   UNL     1     -10.632  17.517  68.009  1.00  0.00     0.000 HD 
HETATM   20  C   UNL     1     -12.121  15.007  69.468  1.00  0.00    -0.311 A  
HETATM   21  C   UNL     1     -12.087  13.608  69.499  1.00  0.00    -0.368 A  
HETATM   22  C   UNL     1     -10.244  13.602  67.970  1.00  0.00    -0.248 A  
HETATM   23  C   UNL     1     -11.218  15.691  68.666  1.00  0.00    -0.338 A  
HETATM   24  O   UNL     1     -11.250  17.049  68.558  1.00  0.00    -0.250 OA 
HETATM   25  C   UNL     1     -10.267  15.002  67.933  1.00  0.00    -0.228 A  
ENDBRANCH  17  18
BRANCH  14  26
HETATM   26  C   UNL     1      -9.804  10.328  66.630  1.00  0.00    -0.204 A  
HETATM   27  C   UNL     1      -8.664   8.976  64.958  1.00  0.00    -0.217 A  
HETATM   28  F   UNL     1      -8.813   9.578  62.688  1.00  0.00    -0.186 F  
HETATM   29  C   UNL     1      -8.995   9.234  66.289  1.00  0.00    -0.193 A  
HETATM   30  C   UNL     1      -9.953  10.900  64.277  1.00  0.00    -0.392 A  
HETATM   31  C   UNL     1      -9.140   9.816  63.965  1.00  0.00    -0.237 A  
HETATM   32  C   UNL     1     -10.291  11.155  65.611  1.00  0.00    -0.311 A  
ENDBRANCH  14  26
ENDBRANCH  12  13
ENDBRANCH  11  12
ENDBRANCH   3  11
TORSDOF 6
ENDMDL
MODEL      174
REMARK 921   NORMALIZED FREE ENERGY PREDICTED BY IDOCK:   -4.15 KCAL/MOL
REMARK 922        TOTAL FREE ENERGY PREDICTED BY IDOCK:   -7.41 KCAL/MOL
REMARK 923 INTER-LIGAND FREE ENERGY PREDICTED BY IDOCK:   -5.89 KCAL/MOL
REMARK 924 INTRA-LIGAND FREE ENERGY PREDICTED BY IDOCK:   -1.52 KCAL/MOL
REMARK 927      BINDING AFFINITY PREDICTED BY RF-SCORE:    0.00 PKD
ROOT
HETATM    1  O   UNL     1     -10.125  18.860  69.323  1.00  0.00    -0.472 OA 
HETATM    2  H   UNL     1      -9.720  19.407  68.661  1.00  0.00     0.000 HD 
HETATM    3  C   UNL     1      -9.707  17.507  69.153  1.00  0.00    -0.105 C  
ENDROOT
BRANCH   3   4
HETATM    4  C   UNL     1      -9.982  17.042  67.739  1.00  0.00    -0.280 A  
HETATM    5  C   UNL     1     -10.909  17.706  66.919  1.00  0.00    -0.035 A  
HETATM    6  C   UNL     1      -9.305  15.920  67.227  1.00  0.00    -0.218 A  
HETATM    7  C   UNL     1     -11.133  17.281  65.610  1.00  0.00     0.306 A  
HETATM    8  F   UNL     1     -10.634  15.791  63.854  1.00  0.00     0.398 F  
HETATM    9  C   UNL     1      -9.528  15.499  65.915  1.00  0.00    -0.377 A  
HETATM   10  C   UNL     1     -10.435  16.187  65.118  1.00  0.00    -0.268 A  
ENDBRANCH   3   4
BRANCH   3  11
HETATM   11  C   UNL     1     -10.361  16.626  70.220  1.00  0.00     0.416 C  
BRANCH  11  12
HETATM   12  C   UNL     1      -9.885  15.162  70.237  1.00  0.00     0.209 C  
BRANCH  12  13
HETATM   13  C   UNL     1     -11.108  14.251  70.162  1.00  0.00    -0.014 C  
HETATM   14  N   UNL     1     -11.695  13.490  68.326  1.00  0.00    -0.339 N  
HETATM   15  O   UNL     1     -12.734  15.570  68.727  1.00  0.00     0.351 OA 
HETATM   16  C   UNL     1     -12.049  14.614  68.999  1.00  0.00    -0.235 C  
HETATM   17  C   UNL     1     -11.011  12.845  69.454  1.00  0.00     0.012 C  
BRANCH  17  18
HETATM   18  C   UNL     1     -11.799  11.697  70.256  1.00  0.00    -0.414 A  
HETATM   19  H   UNL     1     -13.083   7.827  72.682  1.00  0.00     0.000 HD 
HETATM   20  C   UNL     1     -13.397  11.001  71.994  1.00  0.00    -0.393 A  
HETATM   21  C   UNL     1     -12.837  11.982  71.169  1.00  0.00    -0.331 A  
HETATM   22  C   UNL     1     -11.392  10.348  70.179  1.00  0.00    -0.397 A  
HETATM   23  C   UNL     1     -12.930   9.697  71.914  1.00  0.00    -0.435 A  
HETATM   24  O   UNL     1     -13.403   8.719  72.737  1.00  0.00    -0.357 OA 
HETATM   25  C   UNL     1     -11.947   9.357  70.999  1.00  0.00    -0.389 A  
ENDBRANCH  17  18
BRANCH  14  26
HETATM   26  C   UNL     1     -11.860  13.126  66.994  1.00  0.00    -0.379 A  
HETATM   27  C   UNL     1     -11.317  11.639  65.145  1.00  0.00    -0.223 A  
HETATM   28  F   UNL     1     -12.323  11.989  63.047  1.00  0.00    -0.552 F  
HETATM   29  C   UNL     1     -11.158  12.028  66.476  1.00  0.00    -0.362 A  
HETATM   30  C   UNL     1     -12.894  13.438  64.822  1.00  0.00    -0.222 A  
HETATM   31  C   UNL     1     -12.178  12.352  64.328  1.00  0.00    -0.452 A  
HETATM   32  C   UNL     1     -12.740  13.823  66.158  1.00  0.00    -0.335 A  
ENDBRANCH  14  26
ENDBRANCH  12  13
ENDBRANCH  11  12
ENDBRANCH   3  11
TORSDOF 6
ENDMDL
MODEL      175
REMARK 921   NORMALIZED FREE ENERGY PREDICTED BY IDOCK:   -4.15 KCAL/MOL
REMARK 922        TOTAL FREE ENERGY PREDICTED BY IDOCK:   -7.41 KCAL/MOL
REMARK 923 INTER-LIGAND FREE ENERGY PREDICTED BY IDOCK:   -6.18 KCAL/MOL
REMARK 924 INTRA-LIGAND FREE ENERGY PREDICTED BY IDOCK:   -1.23 KCAL/MOL
REMARK 927      BINDING AFFINITY PREDICTED BY RF-SCORE:    0.00 PKD
ROOT
HETATM    1  O   UNL     1      -5.145  14.684  71.424  1.00  0.00    -0.125 OA 
HETATM    2  H   UNL     1      -4.367  15.154  71.699  1.00  0.00     0.000 HD 
HETATM    3  C   UNL     1      -5.470  15.034  70.081  1.00  0.00    -0.121 C  
ENDROOT
BRANCH   3   4
HETATM    4  C   UNL     1      -5.594  16.536  69.939  1.00  0.00    -0.193 A  
HETATM    5  C   UNL     1      -6.046  17.123  68.745  1.00  0.00    -0.158 A  
HETATM    6  C   UNL     1      -5.249  17.372  71.016  1.00  0.00    -0.181 A  
HETATM    7  C   UNL     1      -6.179  18.506  68.637  1.00  0.00    -0.217 A  
HETATM    8  F   UNL     1      -6.005  20.637  69.627  1.00  0.00    -0.362 F  
HETATM    9  C   UNL     1      -5.387  18.757  70.908  1.00  0.00    -0.251 A  
HETATM   10  C   UNL     1      -5.857  19.310  69.723  1.00  0.00    -0.257 A  
ENDBRANCH   3   4
BRANCH   3  11
HETATM   11  C   UNL     1      -6.724  14.277  69.638  1.00  0.00    -0.118 C  
BRANCH  11  12
HETATM   12  C   UNL     1      -6.462  12.917  68.968  1.00  0.00    -0.103 C  
BRANCH  12  13
HETATM   13  C   UNL     1      -7.360  12.798  67.738  1.00  0.00    -0.130 C  
HETATM   14  N   UNL     1      -7.831  10.918  67.005  1.00  0.00    -0.126 N  
HETATM   15  O   UNL     1      -5.846  11.717  66.011  1.00  0.00    -0.133 OA 
HETATM   16  C   UNL     1      -6.828  11.782  66.710  1.00  0.00    -0.050 C  
HETATM   17  C   UNL     1      -8.638  11.875  67.772  1.00  0.00    -0.154 C  
BRANCH  17  18
HETATM   18  C   UNL     1      -9.902  12.549  67.043  1.00  0.00    -0.217 A  
HETATM   19  H   UNL     1     -13.943  13.445  64.723  1.00  0.00     0.000 HD 
HETATM   20  C   UNL     1     -11.729  14.198  66.998  1.00  0.00    -0.430 A  
HETATM   21  C   UNL     1     -10.527  13.718  67.528  1.00  0.00    -0.245 A  
HETATM   22  C   UNL     1     -10.529  11.918  65.948  1.00  0.00    -0.296 A  
HETATM   23  C   UNL     1     -12.331  13.516  65.951  1.00  0.00    -0.456 A  
HETATM   24  O   UNL     1     -13.531  13.912  65.440  1.00  0.00    -0.672 OA 
HETATM   25  C   UNL     1     -11.732  12.392  65.407  1.00  0.00    -0.452 A  
ENDBRANCH  17  18
BRANCH  14  26
HETATM   26  C   UNL     1      -7.986   9.562  66.733  1.00  0.00    -0.109 A  
HETATM   27  C   UNL     1      -7.552   7.243  67.331  1.00  0.00    -0.105 A  
HETATM   28  F   UNL     1      -8.425   5.521  65.984  1.00  0.00    -0.112 F  
HETATM   29  C   UNL     1      -7.401   8.608  67.578  1.00  0.00    -0.089 A  
HETATM   30  C   UNL     1      -8.887   7.758  65.386  1.00  0.00     0.009 A  
HETATM   31  C   UNL     1      -8.288   6.830  66.232  1.00  0.00    -0.126 A  
HETATM   32  C   UNL     1      -8.742   9.126  65.639  1.00  0.00    -0.203 A  
ENDBRANCH  14  26
ENDBRANCH  12  13
ENDBRANCH  11  12
ENDBRANCH   3  11
TORSDOF 6
ENDMDL
MODEL      176
REMARK 921   NORMALIZED FREE ENERGY PREDICTED BY IDOCK:   -4.15 KCAL/MOL
REMARK 922        TOTAL FREE ENERGY PREDICTED BY IDOCK:   -7.41 KCAL/MOL
REMARK 923 INTER-LIGAND FREE ENERGY PREDICTED BY IDOCK:   -6.32 KCAL/MOL
REMARK 924 INTRA-LIGAND FREE ENERGY PREDICTED BY IDOCK:   -1.09 KCAL/MOL
REMARK 927      BINDING AFFINITY PREDICTED BY RF-SCORE:    0.00 PKD
ROOT
HETATM    1  O   UNL     1     -10.016   6.389  71.049  1.00  0.00    -0.179 OA 
HETATM    2  H   UNL     1      -9.893   5.447  71.051  1.00  0.00     0.000 HD 
HETATM    3  C   UNL     1     -11.004   6.745  70.086  1.00  0.00    -0.292 C  
ENDROOT
BRANCH   3   4
HETATM    4  C   UNL     1     -10.644   6.186  68.726  1.00  0.00    -0.330 A  
HETATM    5  C   UNL     1     -11.139   6.763  67.544  1.00  0.00    -0.340 A  
HETATM    6  C   UNL     1      -9.804   5.063  68.630  1.00  0.00    -0.227 A  
HETATM    7  C   UNL     1     -10.779   6.253  66.298  1.00  0.00     0.165 A  
HETATM    8  F   UNL     1      -9.565   4.681  65.031  1.00  0.00    -0.162 F  
HETATM    9  C   UNL     1      -9.441   4.555  67.381  1.00  0.00    -0.189 A  
HETATM   10  C   UNL     1      -9.927   5.159  66.228  1.00  0.00    -0.210 A  
ENDBRANCH   3   4
BRANCH   3  11
HETATM   11  C   UNL     1     -11.202   8.263  70.084  1.00  0.00    -0.132 C  
BRANCH  11  12
HETATM   12  C   UNL     1      -9.945   9.083  69.740  1.00  0.00    -0.204 C  
BRANCH  12  13
HETATM   13  C   UNL     1     -10.136   9.711  68.362  1.00  0.00    -0.199 C  
HETATM   14  N   UNL     1     -10.132  11.775  68.178  1.00  0.00    -0.186 N  
HETATM   15  O   UNL     1     -12.317  10.989  68.596  1.00  0.00    -0.539 OA 
HETATM   16  C   UNL     1     -11.135  10.883  68.375  1.00  0.00    -0.262 C  
HETATM   17  C   UNL     1      -9.109  10.782  67.825  1.00  0.00    -0.151 C  
BRANCH  17  18
HETATM   18  C   UNL     1      -8.763  10.577  66.270  1.00  0.00    -0.159 A  
HETATM   19  H   UNL     1      -6.793   9.470  62.098  1.00  0.00     0.000 HD 
HETATM   20  C   UNL     1      -9.413   9.897  63.995  1.00  0.00    -0.231 A  
HETATM   21  C   UNL     1      -9.742  10.249  65.309  1.00  0.00    -0.354 A  
HETATM   22  C   UNL     1      -7.426  10.586  65.818  1.00  0.00    -0.139 A  
HETATM   23  C   UNL     1      -8.080   9.876  63.611  1.00  0.00    -0.153 A  
HETATM   24  O   UNL     1      -7.705   9.484  62.361  1.00  0.00    -0.111 OA 
HETATM   25  C   UNL     1      -7.085  10.237  64.504  1.00  0.00    -0.072 A  
ENDBRANCH  17  18
BRANCH  14  26
HETATM   26  C   UNL     1     -10.085  13.156  68.341  1.00  0.00    -0.231 A  
HETATM   27  C   UNL     1     -11.236  15.253  68.790  1.00  0.00    -0.293 A  
HETATM   28  F   UNL     1     -10.004  17.257  68.849  1.00  0.00    -0.264 F  
HETATM   29  C   UNL     1     -11.262  13.869  68.613  1.00  0.00    -0.298 A  
HETATM   30  C   UNL     1      -8.848  15.241  68.434  1.00  0.00    -0.179 A  
HETATM   31  C   UNL     1     -10.030  15.928  68.692  1.00  0.00    -0.214 A  
HETATM   32  C   UNL     1      -8.873  13.852  68.265  1.00  0.00    -0.185 A  
ENDBRANCH  14  26
ENDBRANCH  12  13
ENDBRANCH  11  12
ENDBRANCH   3  11
TORSDOF 6
ENDMDL
MODEL      177
REMARK 921   NORMALIZED FREE ENERGY PREDICTED BY IDOCK:   -4.09 KCAL/MOL
REMARK 922        TOTAL FREE ENERGY PREDICTED BY IDOCK:   -7.34 KCAL/MOL
REMARK 923 INTER-LIGAND FREE ENERGY PREDICTED BY IDOCK:   -6.12 KCAL/MOL
REMARK 924 INTRA-LIGAND FREE ENERGY PREDICTED BY IDOCK:   -1.21 KCAL/MOL
REMARK 927      BINDING AFFINITY PREDICTED BY RF-SCORE:    0.00 PKD
ROOT
HETATM    1  O   UNL     1      -8.049   8.647  73.282  1.00  0.00    -0.408 OA 
HETATM    2  H   UNL     1      -8.365   8.614  74.178  1.00  0.00     0.000 HD 
HETATM    3  C   UNL     1      -9.137   8.459  72.380  1.00  0.00    -0.256 C  
ENDROOT
BRANCH   3   4
HETATM    4  C   UNL     1      -9.881   7.182  72.707  1.00  0.00    -0.212 A  
HETATM    5  C   UNL     1     -11.167   6.936  72.198  1.00  0.00    -0.293 A  
HETATM    6  C   UNL     1      -9.287   6.217  73.540  1.00  0.00    -0.139 A  
HETATM    7  C   UNL     1     -11.831   5.744  72.487  1.00  0.00    -0.222 A  
HETATM    8  F   UNL     1     -11.842   3.643  73.552  1.00  0.00    -0.294 F  
HETATM    9  C   UNL     1      -9.951   5.023  73.825  1.00  0.00    -0.195 A  
HETATM   10  C   UNL     1     -11.214   4.796  73.291  1.00  0.00    -0.340 A  
ENDBRANCH   3   4
BRANCH   3  11
HETATM   11  C   UNL     1      -8.627   8.511  70.938  1.00  0.00    -0.184 C  
BRANCH  11  12
HETATM   12  C   UNL     1      -8.393   7.140  70.279  1.00  0.00    -0.136 C  
BRANCH  12  13
HETATM   13  C   UNL     1      -8.679   7.262  68.784  1.00  0.00    -0.125 C  
HETATM   14  N   UNL     1      -9.717   8.913  68.082  1.00  0.00    -0.156 N  
HETATM   15  O   UNL     1     -11.213   7.184  68.665  1.00  0.00    -0.017 OA 
HETATM   16  C   UNL     1     -10.130   7.686  68.490  1.00  0.00    -0.190 C  
HETATM   17  C   UNL     1      -8.289   8.576  68.004  1.00  0.00    -0.127 C  
BRANCH  17  18
HETATM   18  C   UNL     1      -7.666   8.269  66.555  1.00  0.00    -0.092 A  
HETATM   19  H   UNL     1      -5.439   6.412  62.800  1.00  0.00     0.000 HD 
HETATM   20  C   UNL     1      -7.883   8.133  64.107  1.00  0.00    -0.142 A  
HETATM   21  C   UNL     1      -8.347   8.562  65.355  1.00  0.00    -0.164 A  
HETATM   22  C   UNL     1      -6.451   7.563  66.424  1.00  0.00    -0.049 A  
HETATM   23  C   UNL     1      -6.706   7.402  64.034  1.00  0.00    -0.048 A  
HETATM   24  O   UNL     1      -6.244   6.913  62.849  1.00  0.00    -0.042 OA 
HETATM   25  C   UNL     1      -5.975   7.131  65.179  1.00  0.00    -0.037 A  
ENDBRANCH  17  18
BRANCH  14  26
HETATM   26  C   UNL     1     -10.415  10.100  67.889  1.00  0.00    -0.222 A  
HETATM   27  C   UNL     1     -11.149  11.881  66.402  1.00  0.00    -0.359 A  
HETATM   28  F   UNL     1     -12.486  13.620  67.254  1.00  0.00    -0.370 F  
HETATM   29  C   UNL     1     -10.446  10.696  66.620  1.00  0.00    -0.296 A  
HETATM   30  C   UNL     1     -11.815  11.898  68.722  1.00  0.00    -0.371 A  
HETATM   31  C   UNL     1     -11.821  12.476  67.457  1.00  0.00    -0.323 A  
HETATM   32  C   UNL     1     -11.116  10.704  68.939  1.00  0.00    -0.314 A  
ENDBRANCH  14  26
ENDBRANCH  12  13
ENDBRANCH  11  12
ENDBRANCH   3  11
TORSDOF 6
ENDMDL
MODEL      178
REMARK 921   NORMALIZED FREE ENERGY PREDICTED BY IDOCK:   -4.04 KCAL/MOL
REMARK 922        TOTAL FREE ENERGY PREDICTED BY IDOCK:   -7.26 KCAL/MOL
REMARK 923 INTER-LIGAND FREE ENERGY PREDICTED BY IDOCK:   -5.95 KCAL/MOL
REMARK 924 INTRA-LIGAND FREE ENERGY PREDICTED BY IDOCK:   -1.31 KCAL/MOL
REMARK 927      BINDING AFFINITY PREDICTED BY RF-SCORE:    0.00 PKD
ROOT
HETATM    1  O   UNL     1      -6.749   9.083  66.208  1.00  0.00    -0.069 OA 
HETATM    2  H   UNL     1      -6.643   8.887  65.285  1.00  0.00     0.000 HD 
HETATM    3  C   UNL     1      -6.327   7.968  66.989  1.00  0.00    -0.056 C  
ENDROOT
BRANCH   3   4
HETATM    4  C   UNL     1      -7.053   6.712  66.555  1.00  0.00    -0.068 A  
HETATM    5  C   UNL     1      -8.342   6.769  66.000  1.00  0.00    -0.134 A  
HETATM    6  C   UNL     1      -6.437   5.457  66.711  1.00  0.00    -0.041 A  
HETATM    7  C   UNL     1      -8.989   5.607  65.582  1.00  0.00    -0.139 A  
HETATM    8  F   UNL     1      -8.962   3.268  65.302  1.00  0.00    -0.120 F  
HETATM    9  C   UNL     1      -7.084   4.295  66.288  1.00  0.00    -0.067 A  
HETATM   10  C   UNL     1      -8.351   4.382  65.722  1.00  0.00    -0.113 A  
ENDBRANCH   3   4
BRANCH   3  11
HETATM   11  C   UNL     1      -6.498   8.283  68.477  1.00  0.00    -0.054 C  
BRANCH  11  12
HETATM   12  C   UNL     1      -7.594   7.475  69.193  1.00  0.00    -0.100 C  
BRANCH  12  13
HETATM   13  C   UNL     1      -8.634   8.447  69.746  1.00  0.00    -0.132 C  
HETATM   14  N   UNL     1      -9.458   9.873  68.489  1.00  0.00    -0.144 N  
HETATM   15  O   UNL     1      -7.503  10.708  69.513  1.00  0.00    -0.133 OA 
HETATM   16  C   UNL     1      -8.378   9.901  69.310  1.00  0.00    -0.151 C  
HETATM   17  C   UNL     1     -10.022   8.626  69.020  1.00  0.00    -0.192 C  
BRANCH  17  18
HETATM   18  C   UNL     1     -11.247   8.733  70.054  1.00  0.00    -0.113 A  
HETATM   19  H   UNL     1     -14.326   8.172  73.621  1.00  0.00     0.000 HD 
HETATM   20  C   UNL     1     -12.733  10.066  71.495  1.00  0.00    -0.532 A  
HETATM   21  C   UNL     1     -11.791   9.969  70.465  1.00  0.00    -0.387 A  
HETATM   22  C   UNL     1     -11.750   7.586  70.705  1.00  0.00    -0.281 A  
HETATM   23  C   UNL     1     -13.162   8.913  72.135  1.00  0.00    -0.429 A  
HETATM   24  O   UNL     1     -14.033   8.961  73.182  1.00  0.00    -0.293 OA 
HETATM   25  C   UNL     1     -12.694   7.672  71.736  1.00  0.00    -0.356 A  
ENDBRANCH  17  18
BRANCH  14  26
HETATM   26  C   UNL     1      -9.841  10.709  67.445  1.00  0.00    -0.170 A  
HETATM   27  C   UNL     1     -10.585  10.982  65.144  1.00  0.00    -0.295 A  
HETATM   28  F   UNL     1     -11.000  13.144  64.313  1.00  0.00    -0.334 F  
HETATM   29  C   UNL     1     -10.188  10.162  66.201  1.00  0.00    -0.285 A  
HETATM   30  C   UNL     1     -10.303  12.919  66.557  1.00  0.00    -0.272 A  
HETATM   31  C   UNL     1     -10.632  12.353  65.329  1.00  0.00    -0.290 A  
HETATM   32  C   UNL     1      -9.913  12.096  67.620  1.00  0.00    -0.199 A  
ENDBRANCH  14  26
ENDBRANCH  12  13
ENDBRANCH  11  12
ENDBRANCH   3  11
TORSDOF 6
ENDMDL
MODEL      179
REMARK 921   NORMALIZED FREE ENERGY PREDICTED BY IDOCK:   -4.03 KCAL/MOL
REMARK 922        TOTAL FREE ENERGY PREDICTED BY IDOCK:   -7.24 KCAL/MOL
REMARK 923 INTER-LIGAND FREE ENERGY PREDICTED BY IDOCK:   -5.09 KCAL/MOL
REMARK 924 INTRA-LIGAND FREE ENERGY PREDICTED BY IDOCK:   -2.15 KCAL/MOL
REMARK 927      BINDING AFFINITY PREDICTED BY RF-SCORE:    0.00 PKD
ROOT
HETATM    1  O   UNL     1     -10.097   5.520  71.339  1.00  0.00    -0.186 OA 
HETATM    2  H   UNL     1     -10.213   4.580  71.268  1.00  0.00     0.000 HD 
HETATM    3  C   UNL     1     -10.855   6.177  70.326  1.00  0.00    -0.319 C  
ENDROOT
BRANCH   3   4
HETATM    4  C   UNL     1     -10.501   5.631  68.960  1.00  0.00    -0.321 A  
HETATM    5  C   UNL     1     -11.002   6.218  67.786  1.00  0.00    -0.427 A  
HETATM    6  C   UNL     1      -9.658   4.510  68.850  1.00  0.00    -0.235 A  
HETATM    7  C   UNL     1     -10.648   5.719  66.533  1.00  0.00    -0.294 A  
HETATM    8  F   UNL     1      -9.436   4.161  65.246  1.00  0.00    -0.134 F  
HETATM    9  C   UNL     1      -9.301   4.014  67.595  1.00  0.00    -0.222 A  
HETATM   10  C   UNL     1      -9.794   4.628  66.449  1.00  0.00    -0.225 A  
ENDBRANCH   3   4
BRANCH   3  11
HETATM   11  C   UNL     1     -10.668   7.692  70.441  1.00  0.00    -0.241 C  
BRANCH  11  12
HETATM   12  C   UNL     1      -9.231   8.191  70.204  1.00  0.00    -0.155 C  
BRANCH  12  13
HETATM   13  C   UNL     1      -9.181   8.910  68.858  1.00  0.00    -0.140 C  
HETATM   14  N   UNL     1      -8.215  10.738  68.721  1.00  0.00    -0.138 N  
HETATM   15  O   UNL     1     -10.484  11.046  69.287  1.00  0.00    -0.219 OA 
HETATM   16  C   UNL     1      -9.506  10.411  68.974  1.00  0.00    -0.197 C  
HETATM   17  C   UNL     1      -7.803   9.403  68.269  1.00  0.00    -0.090 C  
BRANCH  17  18
HETATM   18  C   UNL     1      -7.684   9.146  66.688  1.00  0.00    -0.097 A  
HETATM   19  H   UNL     1      -8.179   7.635  62.217  1.00  0.00     0.000 HD 
HETATM   20  C   UNL     1      -7.520   9.987  64.380  1.00  0.00    -0.141 A  
HETATM   21  C   UNL     1      -7.446  10.185  65.763  1.00  0.00    -0.131 A  
HETATM   22  C   UNL     1      -7.947   7.873  66.138  1.00  0.00    -0.104 A  
HETATM   23  C   UNL     1      -7.827   8.727  63.889  1.00  0.00    -0.141 A  
HETATM   24  O   UNL     1      -7.968   8.498  62.553  1.00  0.00    -0.134 OA 
HETATM   25  C   UNL     1      -8.021   7.663  64.755  1.00  0.00    -0.137 A  
ENDBRANCH  17  18
BRANCH  14  26
HETATM   26  C   UNL     1      -7.513  11.925  68.910  1.00  0.00    -0.060 A  
HETATM   27  C   UNL     1      -5.762  13.162  70.063  1.00  0.00    -0.131 A  
HETATM   28  F   UNL     1      -5.385  15.417  69.506  1.00  0.00    -0.097 F  
HETATM   29  C   UNL     1      -6.486  11.986  69.864  1.00  0.00    -0.029 A  
HETATM   30  C   UNL     1      -7.075  14.243  68.350  1.00  0.00    -0.105 A  
HETATM   31  C   UNL     1      -6.069  14.283  69.309  1.00  0.00    -0.099 A  
HETATM   32  C   UNL     1      -7.795  13.061  68.144  1.00  0.00    -0.145 A  
ENDBRANCH  14  26
ENDBRANCH  12  13
ENDBRANCH  11  12
ENDBRANCH   3  11
TORSDOF 6
ENDMDL
MODEL      180
REMARK 921   NORMALIZED FREE ENERGY PREDICTED BY IDOCK:   -3.99 KCAL/MOL
REMARK 922        TOTAL FREE ENERGY PREDICTED BY IDOCK:   -7.19 KCAL/MOL
REMARK 923 INTER-LIGAND FREE ENERGY PREDICTED BY IDOCK:   -5.78 KCAL/MOL
REMARK 924 INTRA-LIGAND FREE ENERGY PREDICTED BY IDOCK:   -1.41 KCAL/MOL
REMARK 927      BINDING AFFINITY PREDICTED BY RF-SCORE:    0.00 PKD
ROOT
HETATM    1  O   UNL     1      -7.524  13.439  69.548  1.00  0.00    -0.300 OA 
HETATM    2  H   UNL     1      -7.833  14.307  69.777  1.00  0.00     0.000 HD 
HETATM    3  C   UNL     1      -7.586  13.261  68.135  1.00  0.00    -0.141 C  
ENDROOT
BRANCH   3   4
HETATM    4  C   UNL     1      -8.981  13.554  67.625  1.00  0.00    -0.200 A  
HETATM    5  C   UNL     1     -10.120  13.158  68.346  1.00  0.00    -0.231 A  
HETATM    6  C   UNL     1      -9.154  14.231  66.404  1.00  0.00    -0.171 A  
HETATM    7  C   UNL     1     -11.399  13.456  67.877  1.00  0.00    -0.322 A  
HETATM    8  F   UNL     1     -12.770  14.453  66.241  1.00  0.00    -0.450 F  
HETATM    9  C   UNL     1     -10.434  14.532  65.938  1.00  0.00    -0.322 A  
HETATM   10  C   UNL     1     -11.544  14.147  66.682  1.00  0.00    -0.384 A  
ENDBRANCH   3   4
BRANCH   3  11
HETATM   11  C   UNL     1      -7.087  11.862  67.767  1.00  0.00    -0.103 C  
BRANCH  11  12
HETATM   12  C   UNL     1      -7.797  11.212  66.565  1.00  0.00    -0.151 C  
BRANCH  12  13
HETATM   13  C   UNL     1      -8.826  10.214  67.088  1.00  0.00    -0.138 C  
HETATM   14  N   UNL     1      -8.616   8.205  66.625  1.00  0.00    -0.130 N  
HETATM   15  O   UNL     1      -9.888   9.303  64.969  1.00  0.00    -0.022 OA 
HETATM   16  C   UNL     1      -9.284   9.213  66.010  1.00  0.00    -0.215 C  
HETATM   17  C   UNL     1      -8.361   8.929  67.877  1.00  0.00    -0.118 C  
BRANCH  17  18
HETATM   18  C   UNL     1      -9.301   8.609  69.139  1.00  0.00    -0.153 A  
HETATM   19  H   UNL     1     -12.166   6.630  72.363  1.00  0.00     0.000 HD 
HETATM   20  C   UNL     1      -9.739   8.658  71.560  1.00  0.00    -0.333 A  
HETATM   21  C   UNL     1      -9.022   9.084  70.437  1.00  0.00    -0.235 A  
HETATM   22  C   UNL     1     -10.389   7.717  69.024  1.00  0.00    -0.220 A  
HETATM   23  C   UNL     1     -10.771   7.744  71.402  1.00  0.00    -0.222 A  
HETATM   24  O   UNL     1     -11.460   7.256  72.471  1.00  0.00    -0.289 OA 
HETATM   25  C   UNL     1     -11.116   7.285  70.141  1.00  0.00    -0.281 A  
ENDBRANCH  17  18
BRANCH  14  26
HETATM   26  C   UNL     1      -8.238   6.944  66.174  1.00  0.00    -0.121 A  
HETATM   27  C   UNL     1      -8.792   4.608  65.775  1.00  0.00    -0.127 A  
HETATM   28  F   UNL     1      -7.173   3.181  64.836  1.00  0.00    -0.061 F  
HETATM   29  C   UNL     1      -9.147   5.878  66.231  1.00  0.00    -0.157 A  
HETATM   30  C   UNL     1      -6.606   5.446  65.186  1.00  0.00    -0.040 A  
HETATM   31  C   UNL     1      -7.522   4.402  65.263  1.00  0.00    -0.077 A  
HETATM   32  C   UNL     1      -6.965   6.721  65.636  1.00  0.00    -0.063 A  
ENDBRANCH  14  26
ENDBRANCH  12  13
ENDBRANCH  11  12
ENDBRANCH   3  11
TORSDOF 6
ENDMDL
MODEL      181
REMARK 921   NORMALIZED FREE ENERGY PREDICTED BY IDOCK:   -3.96 KCAL/MOL
REMARK 922        TOTAL FREE ENERGY PREDICTED BY IDOCK:   -7.15 KCAL/MOL
REMARK 923 INTER-LIGAND FREE ENERGY PREDICTED BY IDOCK:   -5.46 KCAL/MOL
REMARK 924 INTRA-LIGAND FREE ENERGY PREDICTED BY IDOCK:   -1.69 KCAL/MOL
REMARK 927      BINDING AFFINITY PREDICTED BY RF-SCORE:    0.00 PKD
ROOT
HETATM    1  O   UNL     1      -9.628  10.535  63.102  1.00  0.00    -0.303 OA 
HETATM    2  H   UNL     1     -10.143  10.730  62.328  1.00  0.00     0.000 HD 
HETATM    3  C   UNL     1     -10.399  10.793  64.273  1.00  0.00    -0.331 C  
ENDROOT
BRANCH   3   4
HETATM    4  C   UNL     1     -10.938  12.207  64.252  1.00  0.00    -0.391 A  
HETATM    5  C   UNL     1     -12.162  12.514  63.633  1.00  0.00    -0.642 A  
HETATM    6  C   UNL     1     -10.207  13.245  64.857  1.00  0.00    -0.313 A  
HETATM    7  C   UNL     1     -12.658  13.817  63.643  1.00  0.00     0.014 A  
HETATM    8  F   UNL     1     -12.416  16.067  64.296  1.00  0.00    -0.220 F  
HETATM    9  C   UNL     1     -10.707  14.548  64.869  1.00  0.00    -0.448 A  
HETATM   10  C   UNL     1     -11.930  14.820  64.268  1.00  0.00    -0.368 A  
ENDBRANCH   3   4
BRANCH   3  11
HETATM   11  C   UNL     1      -9.568  10.479  65.519  1.00  0.00    -0.282 C  
BRANCH  11  12
HETATM   12  C   UNL     1      -8.351   9.568  65.279  1.00  0.00    -0.144 C  
BRANCH  12  13
HETATM   13  C   UNL     1      -7.454   9.618  66.513  1.00  0.00    -0.094 C  
HETATM   14  N   UNL     1      -7.257  11.401  67.551  1.00  0.00    -0.100 N  
HETATM   15  O   UNL     1      -5.633  11.258  65.846  1.00  0.00    -0.167 OA 
HETATM   16  C   UNL     1      -6.542  10.860  66.533  1.00  0.00    -0.127 C  
HETATM   17  C   UNL     1      -8.007  10.181  67.878  1.00  0.00    -0.101 C  
BRANCH  17  18
HETATM   18  C   UNL     1      -7.524   9.315  69.141  1.00  0.00    -0.072 A  
HETATM   19  H   UNL     1      -7.074   7.145  73.337  1.00  0.00     0.000 HD 
HETATM   20  C   UNL     1      -6.635   7.232  70.105  1.00  0.00    -0.043 A  
HETATM   21  C   UNL     1      -6.892   8.061  69.008  1.00  0.00    -0.057 A  
HETATM   22  C   UNL     1      -7.834   9.718  70.458  1.00  0.00    -0.075 A  
HETATM   23  C   UNL     1      -7.000   7.653  71.376  1.00  0.00    -0.053 A  
HETATM   24  O   UNL     1      -6.824   6.857  72.468  1.00  0.00    -0.062 OA 
HETATM   25  C   UNL     1      -7.579   8.897  71.565  1.00  0.00    -0.092 A  
ENDBRANCH  17  18
BRANCH  14  26
HETATM   26  C   UNL     1      -7.309  12.699  68.049  1.00  0.00    -0.114 A  
HETATM   27  C   UNL     1      -6.695  14.310  69.766  1.00  0.00    -0.095 A  
HETATM   28  F   UNL     1      -7.418  16.541  69.568  1.00  0.00    -0.238 F  
HETATM   29  C   UNL     1      -6.664  13.013  69.254  1.00  0.00    -0.062 A  
HETATM   30  C   UNL     1      -8.013  15.013  67.870  1.00  0.00    -0.146 A  
HETATM   31  C   UNL     1      -7.375  15.298  69.073  1.00  0.00    -0.157 A  
HETATM   32  C   UNL     1      -7.976  13.713  67.353  1.00  0.00    -0.177 A  
ENDBRANCH  14  26
ENDBRANCH  12  13
ENDBRANCH  11  12
ENDBRANCH   3  11
TORSDOF 6
ENDMDL
MODEL      182
REMARK 921   NORMALIZED FREE ENERGY PREDICTED BY IDOCK:   -3.95 KCAL/MOL
REMARK 922        TOTAL FREE ENERGY PREDICTED BY IDOCK:   -7.15 KCAL/MOL
REMARK 923 INTER-LIGAND FREE ENERGY PREDICTED BY IDOCK:   -5.38 KCAL/MOL
REMARK 924 INTRA-LIGAND FREE ENERGY PREDICTED BY IDOCK:   -1.77 KCAL/MOL
REMARK 927      BINDING AFFINITY PREDICTED BY RF-SCORE:    0.00 PKD
ROOT
HETATM    1  O   UNL     1      -6.532  13.771  68.494  1.00  0.00    -0.080 OA 
HETATM    2  H   UNL     1      -6.712  14.673  68.731  1.00  0.00     0.000 HD 
HETATM    3  C   UNL     1      -7.539  13.296  67.604  1.00  0.00    -0.170 C  
ENDROOT
BRANCH   3   4
HETATM    4  C   UNL     1      -8.915  13.495  68.205  1.00  0.00    -0.187 A  
HETATM    5  C   UNL     1      -9.312  14.739  68.723  1.00  0.00    -0.198 A  
HETATM    6  C   UNL     1      -9.820  12.420  68.256  1.00  0.00    -0.224 A  
HETATM    7  C   UNL     1     -10.590  14.915  69.251  1.00  0.00    -0.248 A  
HETATM    8  F   UNL     1     -12.710  14.020  69.755  1.00  0.00    -0.357 F  
HETATM    9  C   UNL     1     -11.101  12.599  68.781  1.00  0.00    -0.307 A  
HETATM   10  C   UNL     1     -11.475  13.846  69.267  1.00  0.00    -0.297 A  
ENDBRANCH   3   4
BRANCH   3  11
HETATM   11  C   UNL     1      -7.249  11.842  67.223  1.00  0.00    -0.147 C  
BRANCH  11  12
HETATM   12  C   UNL     1      -6.292  11.098  68.172  1.00  0.00    -0.053 C  
BRANCH  12  13
HETATM   13  C   UNL     1      -6.534   9.598  68.029  1.00  0.00    -0.057 C  
HETATM   14  N   UNL     1      -8.163   8.738  68.977  1.00  0.00    -0.116 N  
HETATM   15  O   UNL     1      -6.284   8.736  70.404  1.00  0.00    -0.036 OA 
HETATM   16  C   UNL     1      -6.878   8.921  69.369  1.00  0.00    -0.049 C  
HETATM   17  C   UNL     1      -7.940   9.058  67.562  1.00  0.00    -0.101 C  
BRANCH  17  18
HETATM   18  C   UNL     1      -7.816   7.838  66.524  1.00  0.00    -0.101 A  
HETATM   19  H   UNL     1      -8.307   3.794  64.090  1.00  0.00     0.000 HD 
HETATM   20  C   UNL     1      -7.635   6.985  64.222  1.00  0.00    -0.112 A  
HETATM   21  C   UNL     1      -7.565   8.030  65.149  1.00  0.00    -0.098 A  
HETATM   22  C   UNL     1      -8.089   6.513  66.927  1.00  0.00    -0.113 A  
HETATM   23  C   UNL     1      -7.952   5.707  64.661  1.00  0.00    -0.120 A  
HETATM   24  O   UNL     1      -8.089   4.668  63.790  1.00  0.00    -0.090 OA 
HETATM   25  C   UNL     1      -8.159   5.458  66.008  1.00  0.00    -0.107 A  
ENDBRANCH  17  18
BRANCH  14  26
HETATM   26  C   UNL     1      -9.310   8.432  69.703  1.00  0.00    -0.161 A  
HETATM   27  C   UNL     1     -10.851   8.964  71.510  1.00  0.00    -0.396 A  
HETATM   28  F   UNL     1     -12.716   7.578  71.884  1.00  0.00    -0.317 F  
HETATM   29  C   UNL     1      -9.699   9.247  70.776  1.00  0.00    -0.348 A  
HETATM   30  C   UNL     1     -11.258   7.043  70.106  1.00  0.00    -0.325 A  
HETATM   31  C   UNL     1     -11.617   7.860  71.173  1.00  0.00    -0.280 A  
HETATM   32  C   UNL     1     -10.107   7.332  69.364  1.00  0.00    -0.183 A  
ENDBRANCH  14  26
ENDBRANCH  12  13
ENDBRANCH  11  12
ENDBRANCH   3  11
TORSDOF 6
ENDMDL
MODEL      183
REMARK 921   NORMALIZED FREE ENERGY PREDICTED BY IDOCK:   -3.89 KCAL/MOL
REMARK 922        TOTAL FREE ENERGY PREDICTED BY IDOCK:   -7.07 KCAL/MOL
REMARK 923 INTER-LIGAND FREE ENERGY PREDICTED BY IDOCK:   -5.48 KCAL/MOL
REMARK 924 INTRA-LIGAND FREE ENERGY PREDICTED BY IDOCK:   -1.59 KCAL/MOL
REMARK 927      BINDING AFFINITY PREDICTED BY RF-SCORE:    0.00 PKD
ROOT
HETATM    1  O   UNL     1      -6.923  10.577  70.810  1.00  0.00    -0.436 OA 
HETATM    2  H   UNL     1      -6.737  11.329  71.360  1.00  0.00     0.000 HD 
HETATM    3  C   UNL     1      -6.440  10.813  69.490  1.00  0.00    -0.089 C  
ENDROOT
BRANCH   3   4
HETATM    4  C   UNL     1      -7.002  12.109  68.944  1.00  0.00    -0.102 A  
HETATM    5  C   UNL     1      -6.434  13.349  69.279  1.00  0.00    -0.111 A  
HETATM    6  C   UNL     1      -8.116  12.083  68.087  1.00  0.00    -0.160 A  
HETATM    7  C   UNL     1      -6.946  14.533  68.749  1.00  0.00    -0.104 A  
HETATM    8  F   UNL     1      -8.511  15.615  67.359  1.00  0.00    -0.152 F  
HETATM    9  C   UNL     1      -8.626  13.268  67.554  1.00  0.00    -0.200 A  
HETATM   10  C   UNL     1      -8.032  14.481  67.885  1.00  0.00    -0.147 A  
ENDBRANCH   3   4
BRANCH   3  11
HETATM   11  C   UNL     1      -6.740   9.601  68.605  1.00  0.00    -0.052 C  
BRANCH  11  12
HETATM   12  C   UNL     1      -5.921   8.338  68.929  1.00  0.00    -0.043 C  
BRANCH  12  13
HETATM   13  C   UNL     1      -6.860   7.134  68.922  1.00  0.00    -0.069 C  
HETATM   14  N   UNL     1      -8.718   7.293  69.826  1.00  0.00    -0.141 N  
HETATM   15  O   UNL     1      -7.102   6.568  71.385  1.00  0.00    -0.074 OA 
HETATM   16  C   UNL     1      -7.513   6.883  70.294  1.00  0.00    -0.086 C  
HETATM   17  C   UNL     1      -8.343   7.283  68.406  1.00  0.00    -0.125 C  
BRANCH  17  18
HETATM   18  C   UNL     1      -8.811   6.034  67.511  1.00  0.00    -0.109 A  
HETATM   19  H   UNL     1      -9.454   2.792  64.107  1.00  0.00     0.000 HD 
HETATM   20  C   UNL     1      -9.288   3.633  67.255  1.00  0.00    -0.235 A  
HETATM   21  C   UNL     1      -9.056   4.756  68.056  1.00  0.00    -0.137 A  
HETATM   22  C   UNL     1      -8.869   6.131  66.104  1.00  0.00    -0.158 A  
HETATM   23  C   UNL     1      -9.290   3.771  65.875  1.00  0.00    -0.167 A  
HETATM   24  O   UNL     1      -9.453   2.697  65.052  1.00  0.00    -0.142 OA 
HETATM   25  C   UNL     1      -9.103   5.014  65.292  1.00  0.00    -0.143 A  
ENDBRANCH  17  18
BRANCH  14  26
HETATM   26  C   UNL     1      -9.882   7.670  70.489  1.00  0.00    -0.183 A  
HETATM   27  C   UNL     1     -11.923   7.046  71.658  1.00  0.00    -0.365 A  
HETATM   28  F   UNL     1     -13.345   8.732  72.479  1.00  0.00    -0.392 F  
HETATM   29  C   UNL     1     -10.756   6.690  70.981  1.00  0.00    -0.278 A  
HETATM   30  C   UNL     1     -11.362   9.377  71.372  1.00  0.00    -0.451 A  
HETATM   31  C   UNL     1     -12.219   8.387  71.841  1.00  0.00    -0.343 A  
HETATM   32  C   UNL     1     -10.187   9.019  70.701  1.00  0.00    -0.284 A  
ENDBRANCH  14  26
ENDBRANCH  12  13
ENDBRANCH  11  12
ENDBRANCH   3  11
TORSDOF 6
ENDMDL
MODEL      184
REMARK 921   NORMALIZED FREE ENERGY PREDICTED BY IDOCK:   -3.87 KCAL/MOL
REMARK 922        TOTAL FREE ENERGY PREDICTED BY IDOCK:   -7.03 KCAL/MOL
REMARK 923 INTER-LIGAND FREE ENERGY PREDICTED BY IDOCK:   -5.62 KCAL/MOL
REMARK 924 INTRA-LIGAND FREE ENERGY PREDICTED BY IDOCK:   -1.41 KCAL/MOL
REMARK 927      BINDING AFFINITY PREDICTED BY RF-SCORE:    0.00 PKD
ROOT
HETATM    1  O   UNL     1      -6.707   9.957  71.388  1.00  0.00    -0.323 OA 
HETATM    2  H   UNL     1      -6.308  10.562  72.001  1.00  0.00     0.000 HD 
HETATM    3  C   UNL     1      -6.253  10.240  70.066  1.00  0.00    -0.088 C  
ENDROOT
BRANCH   3   4
HETATM    4  C   UNL     1      -6.499  11.693  69.721  1.00  0.00    -0.111 A  
HETATM    5  C   UNL     1      -7.367  12.059  68.679  1.00  0.00    -0.111 A  
HETATM    6  C   UNL     1      -5.849  12.706  70.448  1.00  0.00    -0.155 A  
HETATM    7  C   UNL     1      -7.604  13.402  68.388  1.00  0.00    -0.133 A  
HETATM    8  F   UNL     1      -7.213  15.674  68.871  1.00  0.00    -0.116 F  
HETATM    9  C   UNL     1      -6.090  14.050  70.158  1.00  0.00    -0.154 A  
HETATM   10  C   UNL     1      -6.970  14.385  69.136  1.00  0.00    -0.123 A  
ENDBRANCH   3   4
BRANCH   3  11
HETATM   11  C   UNL     1      -6.896   9.264  69.078  1.00  0.00    -0.055 C  
BRANCH  11  12
HETATM   12  C   UNL     1      -7.661   8.094  69.722  1.00  0.00    -0.100 C  
BRANCH  12  13
HETATM   13  C   UNL     1      -8.665   7.552  68.708  1.00  0.00    -0.128 C  
HETATM   14  N   UNL     1      -9.363   8.798  67.206  1.00  0.00    -0.144 N  
HETATM   15  O   UNL     1     -10.734   8.965  69.119  1.00  0.00    -0.217 OA 
HETATM   16  C   UNL     1      -9.832   8.524  68.449  1.00  0.00    -0.173 C  
HETATM   17  C   UNL     1      -8.392   7.697  67.161  1.00  0.00    -0.121 C  
BRANCH  17  18
HETATM   18  C   UNL     1      -8.790   6.375  66.340  1.00  0.00    -0.146 A  
HETATM   19  H   UNL     1     -11.038   2.818  64.146  1.00  0.00     0.000 HD 
HETATM   20  C   UNL     1      -8.540   4.904  64.382  1.00  0.00    -0.142 A  
HETATM   21  C   UNL     1      -8.086   5.949  65.194  1.00  0.00    -0.131 A  
HETATM   22  C   UNL     1      -9.958   5.647  66.658  1.00  0.00    -0.211 A  
HETATM   23  C   UNL     1      -9.718   4.250  64.712  1.00  0.00    -0.164 A  
HETATM   24  O   UNL     1     -10.232   3.265  63.921  1.00  0.00    -0.175 OA 
HETATM   25  C   UNL     1     -10.420   4.598  65.854  1.00  0.00    -0.305 A  
ENDBRANCH  17  18
BRANCH  14  26
HETATM   26  C   UNL     1      -9.657   9.830  66.320  1.00  0.00    -0.213 A  
HETATM   27  C   UNL     1     -10.396  12.117  65.939  1.00  0.00    -0.286 A  
HETATM   28  F   UNL     1     -10.529  12.936  63.737  1.00  0.00    -0.398 F  
HETATM   29  C   UNL     1     -10.106  11.065  66.809  1.00  0.00    -0.260 A  
HETATM   30  C   UNL     1      -9.784  10.720  64.068  1.00  0.00    -0.367 A  
HETATM   31  C   UNL     1     -10.239  11.933  64.575  1.00  0.00    -0.282 A  
HETATM   32  C   UNL     1      -9.486   9.668  64.941  1.00  0.00    -0.288 A  
ENDBRANCH  14  26
ENDBRANCH  12  13
ENDBRANCH  11  12
ENDBRANCH   3  11
TORSDOF 6
ENDMDL
MODEL      185
REMARK 921   NORMALIZED FREE ENERGY PREDICTED BY IDOCK:   -3.82 KCAL/MOL
REMARK 922        TOTAL FREE ENERGY PREDICTED BY IDOCK:   -6.97 KCAL/MOL
REMARK 923 INTER-LIGAND FREE ENERGY PREDICTED BY IDOCK:   -5.48 KCAL/MOL
REMARK 924 INTRA-LIGAND FREE ENERGY PREDICTED BY IDOCK:   -1.48 KCAL/MOL
REMARK 927      BINDING AFFINITY PREDICTED BY RF-SCORE:    0.00 PKD
ROOT
HETATM    1  O   UNL     1      -7.598   7.821  73.454  1.00  0.00    -0.105 OA 
HETATM    2  H   UNL     1      -7.551   7.392  74.300  1.00  0.00     0.000 HD 
HETATM    3  C   UNL     1      -8.955   8.125  73.142  1.00  0.00    -0.261 C  
ENDROOT
BRANCH   3   4
HETATM    4  C   UNL     1      -9.810   6.879  73.230  1.00  0.00    -0.228 A  
HETATM    5  C   UNL     1     -10.955   6.720  72.430  1.00  0.00    -0.280 A  
HETATM    6  C   UNL     1      -9.466   5.855  74.130  1.00  0.00    -0.150 A  
HETATM    7  C   UNL     1     -11.719   5.556  72.504  1.00  0.00    -0.222 A  
HETATM    8  F   UNL     1     -12.066   3.422  73.438  1.00  0.00    -0.188 F  
HETATM    9  C   UNL     1     -10.230   4.689  74.200  1.00  0.00    -0.266 A  
HETATM   10  C   UNL     1     -11.345   4.548  73.382  1.00  0.00    -0.286 A  
ENDBRANCH   3   4
BRANCH   3  11
HETATM   11  C   UNL     1      -9.031   8.816  71.778  1.00  0.00    -0.283 C  
BRANCH  11  12
HETATM   12  C   UNL     1      -8.418   8.023  70.610  1.00  0.00    -0.125 C  
BRANCH  12  13
HETATM   13  C   UNL     1      -8.386   8.920  69.376  1.00  0.00    -0.112 C  
HETATM   14  N   UNL     1      -8.431   8.057  67.493  1.00  0.00    -0.126 N  
HETATM   15  O   UNL     1      -6.206   8.280  68.244  1.00  0.00    -0.048 OA 
HETATM   16  C   UNL     1      -7.403   8.418  68.301  1.00  0.00    -0.095 C  
HETATM   17  C   UNL     1      -9.476   8.761  68.247  1.00  0.00    -0.141 C  
BRANCH  17  18
HETATM   18  C   UNL     1      -9.987  10.176  67.683  1.00  0.00    -0.216 A  
HETATM   19  H   UNL     1     -10.851  14.771  66.872  1.00  0.00     0.000 HD 
HETATM   20  C   UNL     1     -10.412  11.717  65.811  1.00  0.00    -0.308 A  
HETATM   21  C   UNL     1     -10.140  10.436  66.305  1.00  0.00    -0.292 A  
HETATM   22  C   UNL     1     -10.182  11.274  68.548  1.00  0.00    -0.214 A  
HETATM   23  C   UNL     1     -10.549  12.773  66.699  1.00  0.00    -0.256 A  
HETATM   24  O   UNL     1     -10.757  14.048  66.264  1.00  0.00    -0.285 OA 
HETATM   25  C   UNL     1     -10.458  12.560  68.065  1.00  0.00    -0.227 A  
ENDBRANCH  17  18
BRANCH  14  26
HETATM   26  C   UNL     1      -8.474   7.228  66.376  1.00  0.00    -0.129 A  
HETATM   27  C   UNL     1      -8.032   6.878  64.008  1.00  0.00    -0.070 A  
HETATM   28  F   UNL     1      -8.563   4.806  63.028  1.00  0.00    -0.098 F  
HETATM   29  C   UNL     1      -8.008   7.696  65.138  1.00  0.00    -0.130 A  
HETATM   30  C   UNL     1      -8.984   5.098  65.333  1.00  0.00    -0.157 A  
HETATM   31  C   UNL     1      -8.527   5.589  64.114  1.00  0.00    -0.053 A  
HETATM   32  C   UNL     1      -8.952   5.916  66.468  1.00  0.00    -0.133 A  
ENDBRANCH  14  26
ENDBRANCH  12  13
ENDBRANCH  11  12
ENDBRANCH   3  11
TORSDOF 6
ENDMDL
MODEL      186
REMARK 921   NORMALIZED FREE ENERGY PREDICTED BY IDOCK:   -3.76 KCAL/MOL
REMARK 922        TOTAL FREE ENERGY PREDICTED BY IDOCK:   -6.88 KCAL/MOL
REMARK 923 INTER-LIGAND FREE ENERGY PREDICTED BY IDOCK:   -5.75 KCAL/MOL
REMARK 924 INTRA-LIGAND FREE ENERGY PREDICTED BY IDOCK:   -1.13 KCAL/MOL
REMARK 927      BINDING AFFINITY PREDICTED BY RF-SCORE:    0.00 PKD
ROOT
HETATM    1  O   UNL     1     -11.510   8.820  71.433  1.00  0.00    -0.260 OA 
HETATM    2  H   UNL     1     -11.587   8.162  72.114  1.00  0.00     0.000 HD 
HETATM    3  C   UNL     1     -11.768   8.230  70.161  1.00  0.00     0.208 C  
ENDROOT
BRANCH   3   4
HETATM    4  C   UNL     1     -10.870   7.030  69.941  1.00  0.00    -0.280 A  
HETATM    5  C   UNL     1     -10.626   6.527  68.653  1.00  0.00    -0.289 A  
HETATM    6  C   UNL     1     -10.267   6.395  71.042  1.00  0.00    -0.227 A  
HETATM    7  C   UNL     1      -9.778   5.437  68.463  1.00  0.00    -0.183 A  
HETATM    8  F   UNL     1      -8.343   3.809  69.379  1.00  0.00    -0.063 F  
HETATM    9  C   UNL     1      -9.415   5.307  70.850  1.00  0.00    -0.216 A  
HETATM   10  C   UNL     1      -9.174   4.842  69.562  1.00  0.00    -0.119 A  
ENDBRANCH   3   4
BRANCH   3  11
HETATM   11  C   UNL     1     -11.642   9.290  69.064  1.00  0.00     0.571 C  
BRANCH  11  12
HETATM   12  C   UNL     1     -12.043  10.715  69.486  1.00  0.00    -0.285 C  
BRANCH  12  13
HETATM   13  C   UNL     1     -11.247  11.713  68.648  1.00  0.00    -0.308 C  
HETATM   14  N   UNL     1      -9.879  11.007  67.260  1.00  0.00    -0.176 N  
HETATM   15  O   UNL     1      -8.847  11.295  69.362  1.00  0.00     0.157 OA 
HETATM   16  C   UNL     1      -9.751  11.358  68.564  1.00  0.00    -0.197 C  
HETATM   17  C   UNL     1     -11.216  11.586  67.076  1.00  0.00    -0.300 C  
BRANCH  17  18
HETATM   18  C   UNL     1     -11.326  13.011  66.342  1.00  0.00    -0.355 A  
HETATM   19  H   UNL     1     -10.852  16.767  63.482  1.00  0.00     0.000 HD 
HETATM   20  C   UNL     1     -12.670  14.836  65.382  1.00  0.00     0.063 A  
HETATM   21  C   UNL     1     -12.552  13.688  66.173  1.00  0.00    -0.391 A  
HETATM   22  C   UNL     1     -10.204  13.591  65.711  1.00  0.00    -0.305 A  
HETATM   23  C   UNL     1     -11.546  15.341  64.745  1.00  0.00    -0.322 A  
HETATM   24  O   UNL     1     -11.622  16.422  63.918  1.00  0.00    -1.100 OA 
HETATM   25  C   UNL     1     -10.310  14.741  64.919  1.00  0.00    -0.365 A  
ENDBRANCH  17  18
BRANCH  14  26
HETATM   26  C   UNL     1      -9.048  10.274  66.420  1.00  0.00    -0.152 A  
HETATM   27  C   UNL     1      -7.003   8.995  66.090  1.00  0.00    -0.085 A  
HETATM   28  F   UNL     1      -6.547   8.073  63.973  1.00  0.00    -0.062 F  
HETATM   29  C   UNL     1      -7.847   9.743  66.912  1.00  0.00    -0.102 A  
HETATM   30  C   UNL     1      -8.552   9.286  64.260  1.00  0.00    -0.214 A  
HETATM   31  C   UNL     1      -7.360   8.779  64.769  1.00  0.00    -0.093 A  
HETATM   32  C   UNL     1      -9.401  10.029  65.088  1.00  0.00    -0.302 A  
ENDBRANCH  14  26
ENDBRANCH  12  13
ENDBRANCH  11  12
ENDBRANCH   3  11
TORSDOF 6
ENDMDL
MODEL      187
REMARK 921   NORMALIZED FREE ENERGY PREDICTED BY IDOCK:   -3.74 KCAL/MOL
REMARK 922        TOTAL FREE ENERGY PREDICTED BY IDOCK:   -6.86 KCAL/MOL
REMARK 923 INTER-LIGAND FREE ENERGY PREDICTED BY IDOCK:   -5.05 KCAL/MOL
REMARK 924 INTRA-LIGAND FREE ENERGY PREDICTED BY IDOCK:   -1.82 KCAL/MOL
REMARK 927      BINDING AFFINITY PREDICTED BY RF-SCORE:    0.00 PKD
ROOT
HETATM    1  O   UNL     1     -10.769   5.556  68.604  1.00  0.00    -0.197 OA 
HETATM    2  H   UNL     1     -10.623   4.624  68.720  1.00  0.00     0.000 HD 
HETATM    3  C   UNL     1     -10.545   5.914  67.243  1.00  0.00    -0.291 C  
ENDROOT
BRANCH   3   4
HETATM    4  C   UNL     1      -9.171   5.462  66.796  1.00  0.00    -0.128 A  
HETATM    5  C   UNL     1      -8.948   4.976  65.497  1.00  0.00    -0.151 A  
HETATM    6  C   UNL     1      -8.088   5.521  67.692  1.00  0.00    -0.101 A  
HETATM    7  C   UNL     1      -7.672   4.588  65.091  1.00  0.00    -0.085 A  
HETATM    8  F   UNL     1      -5.385   4.325  65.589  1.00  0.00    -0.008 F  
HETATM    9  C   UNL     1      -6.811   5.135  67.283  1.00  0.00    -0.060 A  
HETATM   10  C   UNL     1      -6.614   4.678  65.985  1.00  0.00    -0.045 A  
ENDBRANCH   3   4
BRANCH   3  11
HETATM   11  C   UNL     1     -10.780   7.415  67.057  1.00  0.00    -0.389 C  
BRANCH  11  12
HETATM   12  C   UNL     1      -9.782   8.120  66.122  1.00  0.00    -0.154 C  
BRANCH  12  13
HETATM   13  C   UNL     1      -8.845   8.979  66.968  1.00  0.00    -0.131 C  
HETATM   14  N   UNL     1      -9.413  10.907  67.471  1.00  0.00    -0.155 N  
HETATM   15  O   UNL     1      -8.250  10.899  65.418  1.00  0.00    -0.124 OA 
HETATM   16  C   UNL     1      -8.702  10.413  66.427  1.00  0.00    -0.141 C  
HETATM   17  C   UNL     1      -9.374   9.681  68.278  1.00  0.00    -0.133 C  
BRANCH  17  18
HETATM   18  C   UNL     1      -8.316   9.607  69.485  1.00  0.00    -0.154 A  
HETATM   19  H   UNL     1      -5.242   8.258  72.839  1.00  0.00     0.000 HD 
HETATM   20  C   UNL     1      -6.269  10.398  70.600  1.00  0.00    -0.083 A  
HETATM   21  C   UNL     1      -7.292  10.562  69.659  1.00  0.00    -0.151 A  
HETATM   22  C   UNL     1      -8.285   8.496  70.355  1.00  0.00    -0.114 A  
HETATM   23  C   UNL     1      -6.257   9.266  71.401  1.00  0.00    -0.066 A  
HETATM   24  O   UNL     1      -5.250   9.034  72.291  1.00  0.00    -0.047 OA 
HETATM   25  C   UNL     1      -7.267   8.323  71.302  1.00  0.00    -0.073 A  
ENDBRANCH  17  18
BRANCH  14  26
HETATM   26  C   UNL     1     -10.035  12.137  67.660  1.00  0.00    -0.197 A  
HETATM   27  C   UNL     1     -12.028  13.525  67.495  1.00  0.00    -0.385 A  
HETATM   28  F   UNL     1     -11.937  15.765  68.211  1.00  0.00    -0.343 F  
HETATM   29  C   UNL     1     -11.382  12.303  67.305  1.00  0.00    -0.392 A  
HETATM   30  C   UNL     1      -9.991  14.444  68.409  1.00  0.00    -0.241 A  
HETATM   31  C   UNL     1     -11.324  14.587  68.039  1.00  0.00    -0.306 A  
HETATM   32  C   UNL     1      -9.346  13.215  68.226  1.00  0.00    -0.201 A  
ENDBRANCH  14  26
ENDBRANCH  12  13
ENDBRANCH  11  12
ENDBRANCH   3  11
TORSDOF 6
ENDMDL
MODEL      188
REMARK 921   NORMALIZED FREE ENERGY PREDICTED BY IDOCK:   -3.68 KCAL/MOL
REMARK 922        TOTAL FREE ENERGY PREDICTED BY IDOCK:   -6.78 KCAL/MOL
REMARK 923 INTER-LIGAND FREE ENERGY PREDICTED BY IDOCK:   -6.38 KCAL/MOL
REMARK 924 INTRA-LIGAND FREE ENERGY PREDICTED BY IDOCK:   -0.39 KCAL/MOL
REMARK 927      BINDING AFFINITY PREDICTED BY RF-SCORE:    0.00 PKD
ROOT
HETATM    1  O   UNL     1      -6.806   6.763  70.700  1.00  0.00    -0.056 OA 
HETATM    2  H   UNL     1      -6.342   6.838  69.874  1.00  0.00     0.000 HD 
HETATM    3  C   UNL     1      -7.752   7.823  70.820  1.00  0.00    -0.084 C  
ENDROOT
BRANCH   3   4
HETATM    4  C   UNL     1      -7.074   9.163  70.632  1.00  0.00    -0.099 A  
HETATM    5  C   UNL     1      -7.636  10.158  69.815  1.00  0.00    -0.175 A  
HETATM    6  C   UNL     1      -5.854   9.428  71.280  1.00  0.00    -0.074 A  
HETATM    7  C   UNL     1      -7.013  11.397  69.671  1.00  0.00    -0.022 A  
HETATM    8  F   UNL     1      -5.234  12.841  70.220  1.00  0.00    -0.082 F  
HETATM    9  C   UNL     1      -5.234  10.670  71.138  1.00  0.00    -0.098 A  
HETATM   10  C   UNL     1      -5.822  11.644  70.341  1.00  0.00    -0.156 A  
ENDBRANCH   3   4
BRANCH   3  11
HETATM   11  C   UNL     1      -8.499   7.701  72.150  1.00  0.00    -0.141 C  
BRANCH  11  12
HETATM   12  C   UNL     1      -9.894   8.352  72.177  1.00  0.00    -0.372 C  
BRANCH  12  13
HETATM   13  C   UNL     1     -10.595   8.055  70.854  1.00  0.00    -0.233 C  
HETATM   14  N   UNL     1     -11.124   9.627  69.611  1.00  0.00    -0.223 N  
HETATM   15  O   UNL     1     -12.864   9.158  71.133  1.00  0.00    -0.289 OA 
HETATM   16  C   UNL     1     -11.797   8.983  70.597  1.00  0.00    -0.154 C  
HETATM   17  C   UNL     1     -10.034   8.648  69.505  1.00  0.00    -0.196 C  
BRANCH  17  18
HETATM   18  C   UNL     1     -10.088   7.589  68.298  1.00  0.00    -0.209 A  
HETATM   19  H   UNL     1      -9.178   4.838  64.540  1.00  0.00     0.000 HD 
HETATM   20  C   UNL     1     -10.606   5.344  67.430  1.00  0.00    -0.228 A  
HETATM   21  C   UNL     1     -10.715   6.330  68.417  1.00  0.00    -0.356 A  
HETATM   22  C   UNL     1      -9.387   7.823  67.095  1.00  0.00    -0.185 A  
HETATM   23  C   UNL     1      -9.867   5.606  66.286  1.00  0.00    -0.123 A  
HETATM   24  O   UNL     1      -9.684   4.658  65.324  1.00  0.00    -0.169 OA 
HETATM   25  C   UNL     1      -9.274   6.844  66.100  1.00  0.00    -0.118 A  
ENDBRANCH  17  18
BRANCH  14  26
HETATM   26  C   UNL     1     -11.358  10.846  68.983  1.00  0.00    -0.281 A  
HETATM   27  C   UNL     1     -11.547  12.144  66.933  1.00  0.00    -0.408 A  
HETATM   28  F   UNL     1     -12.060  14.437  67.062  1.00  0.00    -0.405 F  
HETATM   29  C   UNL     1     -11.305  10.934  67.584  1.00  0.00    -0.345 A  
HETATM   30  C   UNL     1     -11.910  13.206  69.071  1.00  0.00    -0.358 A  
HETATM   31  C   UNL     1     -11.840  13.271  67.683  1.00  0.00    -0.357 A  
HETATM   32  C   UNL     1     -11.675  11.990  69.723  1.00  0.00    -0.390 A  
ENDBRANCH  14  26
ENDBRANCH  12  13
ENDBRANCH  11  12
ENDBRANCH   3  11
TORSDOF 6
ENDMDL
MODEL      189
REMARK 921   NORMALIZED FREE ENERGY PREDICTED BY IDOCK:   -3.62 KCAL/MOL
REMARK 922        TOTAL FREE ENERGY PREDICTED BY IDOCK:   -6.70 KCAL/MOL
REMARK 923 INTER-LIGAND FREE ENERGY PREDICTED BY IDOCK:   -5.22 KCAL/MOL
REMARK 924 INTRA-LIGAND FREE ENERGY PREDICTED BY IDOCK:   -1.47 KCAL/MOL
REMARK 927      BINDING AFFINITY PREDICTED BY RF-SCORE:    0.00 PKD
ROOT
HETATM    1  O   UNL     1     -12.551  15.366  64.585  1.00  0.00    -0.049 OA 
HETATM    2  H   UNL     1     -13.067  15.900  65.178  1.00  0.00     0.000 HD 
HETATM    3  C   UNL     1     -11.672  14.529  65.332  1.00  0.00    -0.354 C  
ENDROOT
BRANCH   3   4
HETATM    4  C   UNL     1     -10.830  15.356  66.280  1.00  0.00    -0.301 A  
HETATM    5  C   UNL     1     -10.255  16.572  65.874  1.00  0.00    -0.368 A  
HETATM    6  C   UNL     1     -10.607  14.907  67.594  1.00  0.00    -0.264 A  
HETATM    7  C   UNL     1      -9.502  17.336  66.765  1.00  0.00    -0.274 A  
HETATM    8  F   UNL     1      -8.613  17.628  68.927  1.00  0.00    -0.271 F  
HETATM    9  C   UNL     1      -9.857  15.675  68.485  1.00  0.00    -0.205 A  
HETATM   10  C   UNL     1      -9.317  16.885  68.064  1.00  0.00    -0.238 A  
ENDBRANCH   3   4
BRANCH   3  11
HETATM   11  C   UNL     1     -10.841  13.668  64.377  1.00  0.00    -0.374 C  
BRANCH  11  12
HETATM   12  C   UNL     1      -9.557  13.075  64.983  1.00  0.00     0.201 C  
BRANCH  12  13
HETATM   13  C   UNL     1      -9.913  11.777  65.703  1.00  0.00    -0.271 C  
HETATM   14  N   UNL     1      -8.800  10.070  65.325  1.00  0.00    -0.166 N  
HETATM   15  O   UNL     1     -10.603  10.230  63.812  1.00  0.00     0.330 OA 
HETATM   16  C   UNL     1      -9.931  10.560  64.759  1.00  0.00    -0.345 C  
HETATM   17  C   UNL     1      -8.806  10.970  66.485  1.00  0.00    -0.169 C  
BRANCH  17  18
HETATM   18  C   UNL     1      -9.341  10.392  67.885  1.00  0.00    -0.147 A  
HETATM   19  H   UNL     1      -9.826   8.831  72.340  1.00  0.00     0.000 HD 
HETATM   20  C   UNL     1     -10.995  10.365  69.708  1.00  0.00    -0.345 A  
HETATM   21  C   UNL     1     -10.606  10.724  68.413  1.00  0.00    -0.228 A  
HETATM   22  C   UNL     1      -8.503   9.621  68.720  1.00  0.00    -0.123 A  
HETATM   23  C   UNL     1     -10.117   9.646  70.506  1.00  0.00    -0.274 A  
HETATM   24  O   UNL     1     -10.427   9.323  71.793  1.00  0.00    -0.337 OA 
HETATM   25  C   UNL     1      -8.882   9.253  70.017  1.00  0.00    -0.212 A  
ENDBRANCH  17  18
BRANCH  14  26
HETATM   26  C   UNL     1      -7.904   9.097  64.894  1.00  0.00    -0.117 A  
HETATM   27  C   UNL     1      -5.798   7.912  65.186  1.00  0.00    -0.037 A  
HETATM   28  F   UNL     1      -5.210   6.212  63.668  1.00  0.00    -0.015 F  
HETATM   29  C   UNL     1      -6.706   8.889  65.594  1.00  0.00    -0.072 A  
HETATM   30  C   UNL     1      -7.272   7.322  63.366  1.00  0.00    -0.072 A  
HETATM   31  C   UNL     1      -6.086   7.142  64.070  1.00  0.00    -0.040 A  
HETATM   32  C   UNL     1      -8.186   8.297  63.781  1.00  0.00    -0.084 A  
ENDBRANCH  14  26
ENDBRANCH  12  13
ENDBRANCH  11  12
ENDBRANCH   3  11
TORSDOF 6
ENDMDL
MODEL      190
REMARK 921   NORMALIZED FREE ENERGY PREDICTED BY IDOCK:   -3.49 KCAL/MOL
REMARK 922        TOTAL FREE ENERGY PREDICTED BY IDOCK:   -6.52 KCAL/MOL
REMARK 923 INTER-LIGAND FREE ENERGY PREDICTED BY IDOCK:   -5.59 KCAL/MOL
REMARK 924 INTRA-LIGAND FREE ENERGY PREDICTED BY IDOCK:   -0.93 KCAL/MOL
REMARK 927      BINDING AFFINITY PREDICTED BY RF-SCORE:    0.00 PKD
ROOT
HETATM    1  O   UNL     1      -7.313  12.971  66.549  1.00  0.00     0.008 OA 
HETATM    2  H   UNL     1      -7.140  13.747  66.029  1.00  0.00     0.000 HD 
HETATM    3  C   UNL     1      -8.719  12.784  66.684  1.00  0.00    -0.058 C  
ENDROOT
BRANCH   3   4
HETATM    4  C   UNL     1      -9.370  14.034  67.237  1.00  0.00    -0.230 A  
HETATM    5  C   UNL     1     -10.761  14.114  67.420  1.00  0.00    -0.284 A  
HETATM    6  C   UNL     1      -8.578  15.147  67.572  1.00  0.00    -0.193 A  
HETATM    7  C   UNL     1     -11.344  15.262  67.954  1.00  0.00    -0.339 A  
HETATM    8  F   UNL     1     -11.095  17.434  68.833  1.00  0.00    -0.208 F  
HETATM    9  C   UNL     1      -9.162  16.294  68.109  1.00  0.00    -0.199 A  
HETATM   10  C   UNL     1     -10.538  16.339  68.301  1.00  0.00    -0.300 A  
ENDBRANCH   3   4
BRANCH   3  11
HETATM   11  C   UNL     1      -8.997  11.534  67.522  1.00  0.00    -0.159 C  
BRANCH  11  12
HETATM   12  C   UNL     1      -9.269  11.798  69.014  1.00  0.00     0.220 C  
BRANCH  12  13
HETATM   13  C   UNL     1      -9.934  10.561  69.614  1.00  0.00    -0.149 C  
HETATM   14  N   UNL     1      -9.973   8.800  68.523  1.00  0.00    -0.177 N  
HETATM   15  O   UNL     1     -11.871  10.114  68.035  1.00  0.00    -0.071 OA 
HETATM   16  C   UNL     1     -10.848   9.833  68.611  1.00  0.00    -0.188 C  
HETATM   17  C   UNL     1      -9.156   9.191  69.679  1.00  0.00    -0.160 C  
BRANCH  17  18
HETATM   18  C   UNL     1      -9.393   8.415  71.065  1.00  0.00    -0.211 A  
HETATM   19  H   UNL     1     -11.202   6.296  74.907  1.00  0.00     0.000 HD 
HETATM   20  C   UNL     1      -8.924   6.534  72.583  1.00  0.00    -0.134 A  
HETATM   21  C   UNL     1      -8.605   7.316  71.467  1.00  0.00    -0.118 A  
HETATM   22  C   UNL     1     -10.499   8.720  71.888  1.00  0.00    -0.423 A  
HETATM   23  C   UNL     1     -10.048   6.847  73.333  1.00  0.00    -0.259 A  
HETATM   24  O   UNL     1     -10.433   6.082  74.393  1.00  0.00    -0.269 OA 
HETATM   25  C   UNL     1     -10.827   7.946  73.008  1.00  0.00    -0.408 A  
ENDBRANCH  17  18
BRANCH  14  26
HETATM   26  C   UNL     1      -9.855   7.773  67.592  1.00  0.00    -0.163 A  
HETATM   27  C   UNL     1      -8.623   6.725  65.774  1.00  0.00    -0.144 A  
HETATM   28  F   UNL     1      -9.445   4.738  64.816  1.00  0.00    -0.159 F  
HETATM   29  C   UNL     1      -8.766   7.751  66.708  1.00  0.00    -0.143 A  
HETATM   30  C   UNL     1     -10.655   5.712  66.594  1.00  0.00    -0.361 A  
HETATM   31  C   UNL     1      -9.573   5.718  65.720  1.00  0.00     0.081 A  
HETATM   32  C   UNL     1     -10.795   6.738  67.536  1.00  0.00    -0.388 A  
ENDBRANCH  14  26
ENDBRANCH  12  13
ENDBRANCH  11  12
ENDBRANCH   3  11
TORSDOF 6
ENDMDL
MODEL      191
REMARK 921   NORMALIZED FREE ENERGY PREDICTED BY IDOCK:   -3.37 KCAL/MOL
REMARK 922        TOTAL FREE ENERGY PREDICTED BY IDOCK:   -6.36 KCAL/MOL
REMARK 923 INTER-LIGAND FREE ENERGY PREDICTED BY IDOCK:   -4.64 KCAL/MOL
REMARK 924 INTRA-LIGAND FREE ENERGY PREDICTED BY IDOCK:   -1.72 KCAL/MOL
REMARK 927      BINDING AFFINITY PREDICTED BY RF-SCORE:    0.00 PKD
ROOT
HETATM    1  O   UNL     1      -9.961  10.401  63.313  1.00  0.00    -0.469 OA 
HETATM    2  H   UNL     1     -10.421  11.098  62.862  1.00  0.00     0.000 HD 
HETATM    3  C   UNL     1     -10.298  10.418  64.698  1.00  0.00    -0.120 C  
ENDROOT
BRANCH   3   4
HETATM    4  C   UNL     1     -10.040  11.788  65.289  1.00  0.00    -0.300 A  
HETATM    5  C   UNL     1     -10.640  12.939  64.754  1.00  0.00    -0.362 A  
HETATM    6  C   UNL     1      -9.179  11.924  66.393  1.00  0.00    -0.218 A  
HETATM    7  C   UNL     1     -10.413  14.191  65.324  1.00  0.00    -0.402 A  
HETATM    8  F   UNL     1      -9.377  15.496  66.990  1.00  0.00    -0.205 F  
HETATM    9  C   UNL     1      -8.956  13.177  66.965  1.00  0.00    -0.228 A  
HETATM   10  C   UNL     1      -9.580  14.297  66.429  1.00  0.00    -0.298 A  
ENDBRANCH   3   4
BRANCH   3  11
HETATM   11  C   UNL     1      -9.557   9.294  65.426  1.00  0.00    -0.237 C  
BRANCH  11  12
HETATM   12  C   UNL     1      -8.858   8.274  64.509  1.00  0.00     0.257 C  
BRANCH  12  13
HETATM   13  C   UNL     1      -8.207   7.202  65.380  1.00  0.00    -0.137 C  
HETATM   14  N   UNL     1      -7.387   7.739  67.205  1.00  0.00    -0.090 N  
HETATM   15  O   UNL     1      -5.779   7.933  65.490  1.00  0.00    -0.036 OA 
HETATM   16  C   UNL     1      -6.854   7.650  65.961  1.00  0.00    -0.061 C  
HETATM   17  C   UNL     1      -8.635   7.033  66.888  1.00  0.00    -0.120 C  
BRANCH  17  18
HETATM   18  C   UNL     1      -8.761   5.492  67.323  1.00  0.00    -0.107 A  
HETATM   19  H   UNL     1      -9.874   1.362  69.377  1.00  0.00     0.000 HD 
HETATM   20  C   UNL     1      -9.045   3.114  66.752  1.00  0.00    -0.184 A  
HETATM   21  C   UNL     1      -8.758   4.435  66.389  1.00  0.00    -0.112 A  
HETATM   22  C   UNL     1      -9.015   5.135  68.665  1.00  0.00    -0.122 A  
HETATM   23  C   UNL     1      -9.334   2.821  68.077  1.00  0.00    -0.204 A  
HETATM   24  O   UNL     1      -9.677   1.562  68.470  1.00  0.00    -0.176 OA 
HETATM   25  C   UNL     1      -9.301   3.816  69.041  1.00  0.00    -0.240 A  
ENDBRANCH  17  18
BRANCH  14  26
HETATM   26  C   UNL     1      -6.927   8.365  68.360  1.00  0.00    -0.069 A  
HETATM   27  C   UNL     1      -6.844  10.339  69.782  1.00  0.00    -0.120 A  
HETATM   28  F   UNL     1      -5.604  10.270  71.781  1.00  0.00    -0.066 F  
HETATM   29  C   UNL     1      -7.285   9.695  68.625  1.00  0.00    -0.073 A  
HETATM   30  C   UNL     1      -5.681   8.328  70.440  1.00  0.00    -0.028 A  
HETATM   31  C   UNL     1      -6.040   9.652  70.676  1.00  0.00    -0.078 A  
HETATM   32  C   UNL     1      -6.130   7.680  69.284  1.00  0.00    -0.034 A  
ENDBRANCH  14  26
ENDBRANCH  12  13
ENDBRANCH  11  12
ENDBRANCH   3  11
TORSDOF 6
ENDMDL
MODEL      192
REMARK 921   NORMALIZED FREE ENERGY PREDICTED BY IDOCK:   -3.35 KCAL/MOL
REMARK 922        TOTAL FREE ENERGY PREDICTED BY IDOCK:   -6.34 KCAL/MOL
REMARK 923 INTER-LIGAND FREE ENERGY PREDICTED BY IDOCK:   -4.89 KCAL/MOL
REMARK 924 INTRA-LIGAND FREE ENERGY PREDICTED BY IDOCK:   -1.44 KCAL/MOL
REMARK 927      BINDING AFFINITY PREDICTED BY RF-SCORE:    0.00 PKD
ROOT
HETATM    1  O   UNL     1     -11.084  16.258  65.456  1.00  0.00    -0.177 OA 
HETATM    2  H   UNL     1     -10.418  16.365  64.787  1.00  0.00     0.000 HD 
HETATM    3  C   UNL     1     -10.924  14.996  66.098  1.00  0.00    -0.334 C  
ENDROOT
BRANCH   3   4
HETATM    4  C   UNL     1     -10.915  13.879  65.077  1.00  0.00    -0.371 A  
HETATM    5  C   UNL     1      -9.752  13.132  64.822  1.00  0.00     0.116 A  
HETATM    6  C   UNL     1     -12.085  13.576  64.359  1.00  0.00    -0.468 A  
HETATM    7  C   UNL     1      -9.765  12.089  63.896  1.00  0.00    -0.171 A  
HETATM    8  F   UNL     1     -10.958  10.778  62.344  1.00  0.00     0.392 F  
HETATM    9  C   UNL     1     -12.097  12.530  63.435  1.00  0.00    -0.621 A  
HETATM   10  C   UNL     1     -10.939  11.792  63.218  1.00  0.00    -0.308 A  
ENDBRANCH   3   4
BRANCH   3  11
HETATM   11  C   UNL     1     -11.997  14.824  67.176  1.00  0.00    -0.224 C  
BRANCH  11  12
HETATM   12  C   UNL     1     -12.408  13.368  67.460  1.00  0.00    -0.069 C  
BRANCH  12  13
HETATM   13  C   UNL     1     -11.281  12.686  68.232  1.00  0.00    -0.312 C  
HETATM   14  N   UNL     1     -11.751  11.395  69.784  1.00  0.00    -0.315 N  
HETATM   15  O   UNL     1     -11.542  13.605  70.584  1.00  0.00    -0.121 OA 
HETATM   16  C   UNL     1     -11.495  12.727  69.756  1.00  0.00    -0.129 C  
HETATM   17  C   UNL     1     -11.278  11.120  68.421  1.00  0.00    -0.262 C  
BRANCH  17  18
HETATM   18  C   UNL     1      -9.815  10.482  68.245  1.00  0.00    -0.162 A  
HETATM   19  H   UNL     1      -5.739   8.101  68.735  1.00  0.00     0.000 HD 
HETATM   20  C   UNL     1      -8.121   9.335  66.876  1.00  0.00    -0.108 A  
HETATM   21  C   UNL     1      -9.317  10.050  66.997  1.00  0.00    -0.180 A  
HETATM   22  C   UNL     1      -9.006  10.201  69.368  1.00  0.00    -0.205 A  
HETATM   23  C   UNL     1      -7.384   9.044  68.015  1.00  0.00    -0.084 A  
HETATM   24  O   UNL     1      -6.243   8.301  67.955  1.00  0.00    -0.049 OA 
HETATM   25  C   UNL     1      -7.805   9.488  69.257  1.00  0.00    -0.088 A  
ENDBRANCH  17  18
BRANCH  14  26
HETATM   26  C   UNL     1     -12.340  10.592  70.755  1.00  0.00    -0.376 A  
HETATM   27  C   UNL     1     -13.989  10.311  72.523  1.00  0.00     0.438 A  
HETATM   28  F   UNL     1     -14.137   8.248  73.646  1.00  0.00     0.604 F  
HETATM   29  C   UNL     1     -13.377  11.102  71.550  1.00  0.00    -0.235 A  
HETATM   30  C   UNL     1     -12.542   8.475  71.921  1.00  0.00    -0.400 A  
HETATM   31  C   UNL     1     -13.561   9.006  72.704  1.00  0.00    -0.352 A  
HETATM   32  C   UNL     1     -11.934   9.266  70.939  1.00  0.00    -0.321 A  
ENDBRANCH  14  26
ENDBRANCH  12  13
ENDBRANCH  11  12
ENDBRANCH   3  11
TORSDOF 6
ENDMDL
MODEL      193
REMARK 921   NORMALIZED FREE ENERGY PREDICTED BY IDOCK:   -3.02 KCAL/MOL
REMARK 922        TOTAL FREE ENERGY PREDICTED BY IDOCK:   -5.88 KCAL/MOL
REMARK 923 INTER-LIGAND FREE ENERGY PREDICTED BY IDOCK:   -4.46 KCAL/MOL
REMARK 924 INTRA-LIGAND FREE ENERGY PREDICTED BY IDOCK:   -1.42 KCAL/MOL
REMARK 927      BINDING AFFINITY PREDICTED BY RF-SCORE:    0.00 PKD
ROOT
HETATM    1  O   UNL     1      -9.429   5.466  73.973  1.00  0.00    -0.131 OA 
HETATM    2  H   UNL     1      -8.705   4.964  73.617  1.00  0.00     0.000 HD 
HETATM    3  C   UNL     1      -9.735   6.553  73.103  1.00  0.00    -0.158 C  
ENDROOT
BRANCH   3   4
HETATM    4  C   UNL     1      -8.499   7.387  72.841  1.00  0.00    -0.145 A  
HETATM    5  C   UNL     1      -8.038   7.619  71.534  1.00  0.00    -0.102 A  
HETATM    6  C   UNL     1      -7.786   7.940  73.919  1.00  0.00    -0.214 A  
HETATM    7  C   UNL     1      -6.912   8.409  71.307  1.00  0.00    -0.068 A  
HETATM    8  F   UNL     1      -5.171   9.742  72.167  1.00  0.00    -0.069 F  
HETATM    9  C   UNL     1      -6.661   8.734  73.690  1.00  0.00     0.036 A  
HETATM   10  C   UNL     1      -6.239   8.966  72.386  1.00  0.00    -0.018 A  
ENDBRANCH   3   4
BRANCH   3  11
HETATM   11  C   UNL     1     -10.902   7.362  73.675  1.00  0.00    -0.118 C  
BRANCH  11  12
HETATM   12  C   UNL     1     -11.223   8.665  72.922  1.00  0.00     0.331 C  
BRANCH  12  13
HETATM   13  C   UNL     1     -11.618   8.315  71.489  1.00  0.00    -0.326 C  
HETATM   14  N   UNL     1     -11.476   9.765  70.016  1.00  0.00    -0.216 N  
HETATM   15  O   UNL     1     -13.600   9.835  71.040  1.00  0.00    -0.320 OA 
HETATM   16  C   UNL     1     -12.495   9.398  70.833  1.00  0.00    -0.166 C  
HETATM   17  C   UNL     1     -10.625   8.602  70.298  1.00  0.00    -0.223 C  
BRANCH  17  18
HETATM   18  C   UNL     1     -10.597   7.410  69.221  1.00  0.00    -0.220 A  
HETATM   19  H   UNL     1      -9.519   4.378  65.734  1.00  0.00     0.000 HD 
HETATM   20  C   UNL     1     -10.848   5.031  68.641  1.00  0.00     0.516 A  
HETATM   21  C   UNL     1     -11.038   6.104  69.519  1.00  0.00    -0.490 A  
HETATM   22  C   UNL     1     -10.000   7.590  67.954  1.00  0.00    -0.203 A  
HETATM   23  C   UNL     1     -10.213   5.250  67.427  1.00  0.00    -0.191 A  
HETATM   24  O   UNL     1      -9.953   4.228  66.565  1.00  0.00    -0.223 OA 
HETATM   25  C   UNL     1      -9.806   6.524  67.067  1.00  0.00    -0.200 A  
ENDBRANCH  17  18
BRANCH  14  26
HETATM   26  C   UNL     1     -11.284  10.905  69.242  1.00  0.00    -0.265 A  
HETATM   27  C   UNL     1     -12.109  13.043  68.420  1.00  0.00    -0.193 A  
HETATM   28  F   UNL     1     -10.763  14.320  66.973  1.00  0.00    -0.278 F  
HETATM   29  C   UNL     1     -12.285  11.887  69.182  1.00  0.00    -0.141 A  
HETATM   30  C   UNL     1      -9.919  12.264  67.768  1.00  0.00    -0.200 A  
HETATM   31  C   UNL     1     -10.930  13.218  67.714  1.00  0.00    -0.258 A  
HETATM   32  C   UNL     1     -10.092  11.108  68.538  1.00  0.00    -0.208 A  
ENDBRANCH  14  26
ENDBRANCH  12  13
ENDBRANCH  11  12
ENDBRANCH   3  11
TORSDOF 6
ENDMDL
MODEL      194
REMARK 921   NORMALIZED FREE ENERGY PREDICTED BY IDOCK:   -2.89 KCAL/MOL
REMARK 922        TOTAL FREE ENERGY PREDICTED BY IDOCK:   -5.70 KCAL/MOL
REMARK 923 INTER-LIGAND FREE ENERGY PREDICTED BY IDOCK:   -5.53 KCAL/MOL
REMARK 924 INTRA-LIGAND FREE ENERGY PREDICTED BY IDOCK:   -0.18 KCAL/MOL
REMARK 927      BINDING AFFINITY PREDICTED BY RF-SCORE:    0.00 PKD
ROOT
HETATM    1  O   UNL     1      -8.918   7.375  66.976  1.00  0.00    -0.123 OA 
HETATM    2  H   UNL     1      -9.218   7.826  66.195  1.00  0.00     0.000 HD 
HETATM    3  C   UNL     1      -7.495   7.427  67.046  1.00  0.00    -0.098 C  
ENDROOT
BRANCH   3   4
HETATM    4  C   UNL     1      -6.882   6.889  65.770  1.00  0.00    -0.052 A  
HETATM    5  C   UNL     1      -5.883   7.600  65.084  1.00  0.00    -0.038 A  
HETATM    6  C   UNL     1      -7.317   5.658  65.249  1.00  0.00    -0.072 A  
HETATM    7  C   UNL     1      -5.310   7.081  63.924  1.00  0.00    -0.028 A  
HETATM    8  F   UNL     1      -5.172   5.342  62.340  1.00  0.00    -0.011 F  
HETATM    9  C   UNL     1      -6.739   5.138  64.090  1.00  0.00    -0.046 A  
HETATM   10  C   UNL     1      -5.737   5.851  63.442  1.00  0.00    -0.021 A  
ENDBRANCH   3   4
BRANCH   3  11
HETATM   11  C   UNL     1      -7.012   6.701  68.304  1.00  0.00    -0.077 C  
BRANCH  11  12
HETATM   12  C   UNL     1      -7.376   7.388  69.633  1.00  0.00    -0.091 C  
BRANCH  12  13
HETATM   13  C   UNL     1      -8.896   7.406  69.771  1.00  0.00    -0.141 C  
HETATM   14  N   UNL     1      -9.821   5.999  70.979  1.00  0.00    -0.180 N  
HETATM   15  O   UNL     1      -9.602   5.179  68.778  1.00  0.00    -0.126 OA 
HETATM   16  C   UNL     1      -9.520   6.003  69.657  1.00  0.00    -0.144 C  
HETATM   17  C   UNL     1      -9.566   7.429  71.199  1.00  0.00    -0.159 C  
BRANCH  17  18
HETATM   18  C   UNL     1     -10.829   8.418  71.270  1.00  0.00    -0.293 A  
HETATM   19  H   UNL     1     -14.580  11.012  72.582  1.00  0.00     0.000 HD 
HETATM   20  C   UNL     1     -11.894  10.583  70.779  1.00  0.00    -0.465 A  
HETATM   21  C   UNL     1     -10.875   9.646  70.576  1.00  0.00    -0.371 A  
HETATM   22  C   UNL     1     -11.905   8.159  72.146  1.00  0.00    -0.417 A  
HETATM   23  C   UNL     1     -12.906  10.301  71.686  1.00  0.00    -0.463 A  
HETATM   24  O   UNL     1     -13.888  11.205  71.961  1.00  0.00    -0.002 OA 
HETATM   25  C   UNL     1     -12.932   9.088  72.355  1.00  0.00    -0.471 A  
ENDBRANCH  17  18
BRANCH  14  26
HETATM   26  C   UNL     1     -10.172   4.964  71.839  1.00  0.00    -0.201 A  
HETATM   27  C   UNL     1     -10.216   2.583  72.343  1.00  0.00    -0.218 A  
HETATM   28  F   UNL     1     -11.178   1.848  74.361  1.00  0.00    -0.185 F  
HETATM   29  C   UNL     1      -9.882   3.636  71.491  1.00  0.00    -0.227 A  
HETATM   30  C   UNL     1     -11.133   4.166  73.919  1.00  0.00    -0.257 A  
HETATM   31  C   UNL     1     -10.845   2.857  73.547  1.00  0.00    -0.213 A  
HETATM   32  C   UNL     1     -10.790   5.223  73.068  1.00  0.00    -0.332 A  
ENDBRANCH  14  26
ENDBRANCH  12  13
ENDBRANCH  11  12
ENDBRANCH   3  11
TORSDOF 6
ENDMDL
MODEL      195
REMARK 921   NORMALIZED FREE ENERGY PREDICTED BY IDOCK:   -2.57 KCAL/MOL
REMARK 922        TOTAL FREE ENERGY PREDICTED BY IDOCK:   -5.28 KCAL/MOL
REMARK 923 INTER-LIGAND FREE ENERGY PREDICTED BY IDOCK:   -3.62 KCAL/MOL
REMARK 924 INTRA-LIGAND FREE ENERGY PREDICTED BY IDOCK:   -1.66 KCAL/MOL
REMARK 927      BINDING AFFINITY PREDICTED BY RF-SCORE:    0.00 PKD
ROOT
HETATM    1  O   UNL     1     -11.953   8.734  72.644  1.00  0.00    -0.298 OA 
HETATM    2  H   UNL     1     -11.967   8.601  73.584  1.00  0.00     0.000 HD 
HETATM    3  C   UNL     1     -12.143   7.487  71.978  1.00  0.00    -0.291 C  
ENDROOT
BRANCH   3   4
HETATM    4  C   UNL     1     -11.128   6.471  72.455  1.00  0.00    -0.294 A  
HETATM    5  C   UNL     1     -10.659   5.453  71.607  1.00  0.00    -0.284 A  
HETATM    6  C   UNL     1     -10.640   6.533  73.773  1.00  0.00    -0.285 A  
HETATM    7  C   UNL     1      -9.705   4.539  72.052  1.00  0.00    -0.229 A  
HETATM    8  F   UNL     1      -8.289   3.771  73.771  1.00  0.00    -0.083 F  
HETATM    9  C   UNL     1      -9.683   5.619  74.216  1.00  0.00    -0.189 A  
HETATM   10  C   UNL     1      -9.220   4.636  73.350  1.00  0.00    -0.113 A  
ENDBRANCH   3   4
BRANCH   3  11
HETATM   11  C   UNL     1     -12.120   7.702  70.462  1.00  0.00     0.022 C  
BRANCH  11  12
HETATM   12  C   UNL     1     -12.753   9.020  69.981  1.00  0.00     1.283 C  
BRANCH  12  13
HETATM   13  C   UNL     1     -11.684   9.840  69.263  1.00  0.00     0.216 C  
HETATM   14  N   UNL     1      -9.788   9.041  69.016  1.00  0.00    -0.171 N  
HETATM   15  O   UNL     1      -9.928  10.213  71.059  1.00  0.00     0.312 OA 
HETATM   16  C   UNL     1     -10.327   9.814  69.991  1.00  0.00    -0.263 C  
HETATM   17  C   UNL     1     -10.883   9.221  68.054  1.00  0.00    -0.106 C  
BRANCH  17  18
HETATM   18  C   UNL     1     -10.668  10.270  66.857  1.00  0.00    -0.252 A  
HETATM   19  H   UNL     1     -10.209  12.441  62.662  1.00  0.00     0.000 HD 
HETATM   20  C   UNL     1     -11.134  12.440  65.792  1.00  0.00    -0.351 A  
HETATM   21  C   UNL     1     -11.166  11.589  66.902  1.00  0.00    -0.363 A  
HETATM   22  C   UNL     1     -10.080   9.869  65.638  1.00  0.00    -0.307 A  
HETATM   23  C   UNL     1     -10.586  11.984  64.602  1.00  0.00    -0.307 A  
HETATM   24  O   UNL     1     -10.584  12.754  63.477  1.00  0.00    -0.350 OA 
HETATM   25  C   UNL     1     -10.040  10.713  64.520  1.00  0.00    -0.421 A  
ENDBRANCH  17  18
BRANCH  14  26
HETATM   26  C   UNL     1      -8.627   8.275  68.988  1.00  0.00    -0.135 A  
HETATM   27  C   UNL     1      -7.514   6.176  68.457  1.00  0.00    -0.087 A  
HETATM   28  F   UNL     1      -5.207   5.957  68.865  1.00  0.00    -0.003 F  
HETATM   29  C   UNL     1      -8.669   6.958  68.505  1.00  0.00    -0.125 A  
HETATM   30  C   UNL     1      -6.246   8.016  69.370  1.00  0.00    -0.034 A  
HETATM   31  C   UNL     1      -6.314   6.710  68.897  1.00  0.00    -0.035 A  
HETATM   32  C   UNL     1      -7.402   8.803  69.409  1.00  0.00    -0.072 A  
ENDBRANCH  14  26
ENDBRANCH  12  13
ENDBRANCH  11  12
ENDBRANCH   3  11
TORSDOF 6
ENDMDL
MODEL      196
REMARK 921   NORMALIZED FREE ENERGY PREDICTED BY IDOCK:   -2.54 KCAL/MOL
REMARK 922        TOTAL FREE ENERGY PREDICTED BY IDOCK:   -5.24 KCAL/MOL
REMARK 923 INTER-LIGAND FREE ENERGY PREDICTED BY IDOCK:   -4.10 KCAL/MOL
REMARK 924 INTRA-LIGAND FREE ENERGY PREDICTED BY IDOCK:   -1.14 KCAL/MOL
REMARK 927      BINDING AFFINITY PREDICTED BY RF-SCORE:    0.00 PKD
ROOT
HETATM    1  O   UNL     1     -13.234  13.898  65.336  1.00  0.00    -0.750 OA 
HETATM    2  H   UNL     1     -13.622  14.667  65.737  1.00  0.00     0.000 HD 
HETATM    3  C   UNL     1     -12.153  13.429  66.138  1.00  0.00    -0.429 C  
ENDROOT
BRANCH   3   4
HETATM    4  C   UNL     1     -11.157  14.541  66.389  1.00  0.00    -0.331 A  
HETATM    5  C   UNL     1     -10.067  14.753  65.528  1.00  0.00    -0.409 A  
HETATM    6  C   UNL     1     -11.312  15.382  67.505  1.00  0.00    -0.269 A  
HETATM    7  C   UNL     1      -9.171  15.797  65.757  1.00  0.00    -0.255 A  
HETATM    8  F   UNL     1      -8.512  17.645  67.060  1.00  0.00    -0.216 F  
HETATM    9  C   UNL     1     -10.417  16.429  67.731  1.00  0.00    -0.300 A  
HETATM   10  C   UNL     1      -9.359  16.630  66.851  1.00  0.00    -0.231 A  
ENDBRANCH   3   4
BRANCH   3  11
HETATM   11  C   UNL     1     -11.529  12.190  65.491  1.00  0.00    -0.394 C  
BRANCH  11  12
HETATM   12  C   UNL     1     -11.872  10.854  66.175  1.00  0.00     1.463 C  
BRANCH  12  13
HETATM   13  C   UNL     1     -10.694   9.899  65.996  1.00  0.00     0.138 C  
HETATM   14  N   UNL     1      -9.026  10.107  67.208  1.00  0.00    -0.135 N  
HETATM   15  O   UNL     1      -8.804  11.429  65.267  1.00  0.00    -0.088 OA 
HETATM   16  C   UNL     1      -9.336  10.625  65.993  1.00  0.00    -0.186 C  
HETATM   17  C   UNL     1     -10.109   9.116  67.234  1.00  0.00    -0.233 C  
BRANCH  17  18
HETATM   18  C   UNL     1      -9.744   7.592  66.880  1.00  0.00    -0.272 A  
HETATM   19  H   UNL     1      -9.809   2.977  65.776  1.00  0.00     0.000 HD 
HETATM   20  C   UNL     1      -8.437   5.933  65.614  1.00  0.00    -0.153 A  
HETATM   21  C   UNL     1      -8.647   7.241  66.065  1.00  0.00    -0.160 A  
HETATM   22  C   UNL     1     -10.595   6.533  67.266  1.00  0.00    -0.383 A  
HETATM   23  C   UNL     1      -9.328   4.936  65.984  1.00  0.00    -0.156 A  
HETATM   24  O   UNL     1      -9.199   3.660  65.523  1.00  0.00    -0.142 OA 
HETATM   25  C   UNL     1     -10.393   5.220  66.822  1.00  0.00    -0.320 A  
ENDBRANCH  17  18
BRANCH  14  26
HETATM   26  C   UNL     1      -8.056  10.465  68.139  1.00  0.00    -0.111 A  
HETATM   27  C   UNL     1      -5.935  10.001  69.239  1.00  0.00    -0.037 A  
HETATM   28  F   UNL     1      -5.136  11.486  70.880  1.00  0.00    -0.085 F  
HETATM   29  C   UNL     1      -6.925   9.655  68.318  1.00  0.00    -0.073 A  
HETATM   30  C   UNL     1      -7.185  11.983  69.819  1.00  0.00     0.537 A  
HETATM   31  C   UNL     1      -6.077  11.158  69.986  1.00  0.00    -0.134 A  
HETATM   32  C   UNL     1      -8.174  11.641  68.889  1.00  0.00     0.017 A  
ENDBRANCH  14  26
ENDBRANCH  12  13
ENDBRANCH  11  12
ENDBRANCH   3  11
TORSDOF 6
ENDMDL
MODEL      197
REMARK 921   NORMALIZED FREE ENERGY PREDICTED BY IDOCK:   -2.47 KCAL/MOL
REMARK 922        TOTAL FREE ENERGY PREDICTED BY IDOCK:   -5.14 KCAL/MOL
REMARK 923 INTER-LIGAND FREE ENERGY PREDICTED BY IDOCK:   -4.19 KCAL/MOL
REMARK 924 INTRA-LIGAND FREE ENERGY PREDICTED BY IDOCK:   -0.95 KCAL/MOL
REMARK 927      BINDING AFFINITY PREDICTED BY RF-SCORE:    0.00 PKD
ROOT
HETATM    1  O   UNL     1     -12.942  15.227  64.373  1.00  0.00    -0.256 OA 
HETATM    2  H   UNL     1     -13.438  15.845  64.897  1.00  0.00     0.000 HD 
HETATM    3  C   UNL     1     -12.019  14.524  65.201  1.00  0.00    -0.369 C  
ENDROOT
BRANCH   3   4
HETATM    4  C   UNL     1     -11.146  15.496  65.966  1.00  0.00    -0.185 A  
HETATM    5  C   UNL     1     -11.326  15.712  67.343  1.00  0.00    -0.163 A  
HETATM    6  C   UNL     1     -10.136  16.207  65.295  1.00  0.00    -0.105 A  
HETATM    7  C   UNL     1     -10.498  16.591  68.039  1.00  0.00    -0.313 A  
HETATM    8  F   UNL     1      -8.682  18.092  68.032  1.00  0.00    -0.245 F  
HETATM    9  C   UNL     1      -9.306  17.085  65.994  1.00  0.00    -0.187 A  
HETATM   10  C   UNL     1      -9.491  17.263  67.360  1.00  0.00    -0.245 A  
ENDBRANCH   3   4
BRANCH   3  11
HETATM   11  C   UNL     1     -11.221  13.527  64.357  1.00  0.00    -0.399 C  
BRANCH  11  12
HETATM   12  C   UNL     1      -9.694  13.713  64.399  1.00  0.00     0.778 C  
BRANCH  12  13
HETATM   13  C   UNL     1      -9.088  12.581  65.226  1.00  0.00     0.580 C  
HETATM   14  N   UNL     1     -10.053  11.957  66.951  1.00  0.00    -0.206 N  
HETATM   15  O   UNL     1      -8.541  13.701  67.438  1.00  0.00    -0.187 OA 
HETATM   16  C   UNL     1      -9.087  12.885  66.736  1.00  0.00    -0.211 C  
HETATM   17  C   UNL     1      -9.962  11.331  65.625  1.00  0.00    -0.247 C  
BRANCH  17  18
HETATM   18  C   UNL     1      -9.152   9.949  65.499  1.00  0.00    -0.232 A  
HETATM   19  H   UNL     1      -6.471   6.295  64.095  1.00  0.00     0.000 HD 
HETATM   20  C   UNL     1      -7.618   8.264  66.430  1.00  0.00    -0.091 A  
HETATM   21  C   UNL     1      -8.466   9.367  66.585  1.00  0.00    -0.130 A  
HETATM   22  C   UNL     1      -8.981   9.321  64.246  1.00  0.00    -0.142 A  
HETATM   23  C   UNL     1      -7.447   7.710  65.169  1.00  0.00    -0.088 A  
HETATM   24  O   UNL     1      -6.588   6.674  64.958  1.00  0.00    -0.044 OA 
HETATM   25  C   UNL     1      -8.137   8.216  64.080  1.00  0.00    -0.122 A  
ENDBRANCH  17  18
BRANCH  14  26
HETATM   26  C   UNL     1     -10.894  11.741  68.037  1.00  0.00    -0.213 A  
HETATM   27  C   UNL     1     -12.330  10.244  69.311  1.00  0.00     0.352 A  
HETATM   28  F   UNL     1     -13.391  11.037  71.255  1.00  0.00    -0.415 F  
HETATM   29  C   UNL     1     -11.491  10.485  68.222  1.00  0.00    -0.272 A  
HETATM   30  C   UNL     1     -11.987  12.513  70.061  1.00  0.00    -0.372 A  
HETATM   31  C   UNL     1     -12.576  11.262  70.216  1.00  0.00    -0.177 A  
HETATM   32  C   UNL     1     -11.139  12.752  68.973  1.00  0.00    -0.285 A  
ENDBRANCH  14  26
ENDBRANCH  12  13
ENDBRANCH  11  12
ENDBRANCH   3  11
TORSDOF 6
ENDMDL
MODEL      198
REMARK 921   NORMALIZED FREE ENERGY PREDICTED BY IDOCK:   -2.13 KCAL/MOL
REMARK 922        TOTAL FREE ENERGY PREDICTED BY IDOCK:   -4.68 KCAL/MOL
REMARK 923 INTER-LIGAND FREE ENERGY PREDICTED BY IDOCK:   -4.06 KCAL/MOL
REMARK 924 INTRA-LIGAND FREE ENERGY PREDICTED BY IDOCK:   -0.61 KCAL/MOL
REMARK 927      BINDING AFFINITY PREDICTED BY RF-SCORE:    0.00 PKD
ROOT
HETATM    1  O   UNL     1      -6.023   7.392  72.493  1.00  0.00    -0.040 OA 
HETATM    2  H   UNL     1      -5.350   7.231  71.842  1.00  0.00     0.000 HD 
HETATM    3  C   UNL     1      -7.083   8.149  71.913  1.00  0.00    -0.081 C  
ENDROOT
BRANCH   3   4
HETATM    4  C   UNL     1      -6.546   9.414  71.279  1.00  0.00    -0.023 A  
HETATM    5  C   UNL     1      -6.908   9.788  69.974  1.00  0.00    -0.097 A  
HETATM    6  C   UNL     1      -5.662  10.238  71.999  1.00  0.00     0.376 A  
HETATM    7  C   UNL     1      -6.425  10.969  69.411  1.00  0.00    -0.095 A  
HETATM    8  F   UNL     1      -5.127  12.924  69.620  1.00  0.00    -0.071 F  
HETATM    9  C   UNL     1      -5.183  11.422  71.436  1.00  0.00    -0.015 A  
HETATM   10  C   UNL     1      -5.574  11.779  70.151  1.00  0.00    -0.131 A  
ENDBRANCH   3   4
BRANCH   3  11
HETATM   11  C   UNL     1      -8.167   8.409  72.962  1.00  0.00    -0.181 C  
BRANCH  11  12
HETATM   12  C   UNL     1      -9.573   8.675  72.394  1.00  0.00    -0.305 C  
BRANCH  12  13
HETATM   13  C   UNL     1      -9.888   7.605  71.352  1.00  0.00    -0.195 C  
HETATM   14  N   UNL     1      -9.960   8.129  69.349  1.00  0.00    -0.183 N  
HETATM   15  O   UNL     1     -12.081   8.395  70.346  1.00  0.00     0.037 OA 
HETATM   16  C   UNL     1     -10.917   8.077  70.308  1.00  0.00    -0.242 C  
HETATM   17  C   UNL     1      -8.939   7.398  70.110  1.00  0.00    -0.148 C  
BRANCH  17  18
HETATM   18  C   UNL     1      -8.709   5.846  69.764  1.00  0.00    -0.129 A  
HETATM   19  H   UNL     1      -9.155   1.292  68.507  1.00  0.00     0.000 HD 
HETATM   20  C   UNL     1      -7.430   4.058  68.657  1.00  0.00    -0.055 A  
HETATM   21  C   UNL     1      -7.548   5.374  69.115  1.00  0.00    -0.085 A  
HETATM   22  C   UNL     1      -9.730   4.895  69.980  1.00  0.00    -0.285 A  
HETATM   23  C   UNL     1      -8.480   3.173  68.852  1.00  0.00    -0.067 A  
HETATM   24  O   UNL     1      -8.436   1.898  68.373  1.00  0.00    -0.056 OA 
HETATM   25  C   UNL     1      -9.621   3.574  69.528  1.00  0.00    -0.179 A  
ENDBRANCH  17  18
BRANCH  14  26
HETATM   26  C   UNL     1      -9.941   8.745  68.102  1.00  0.00    -0.173 A  
HETATM   27  C   UNL     1      -9.174   8.778  65.792  1.00  0.00    -0.269 A  
HETATM   28  F   UNL     1      -9.862  10.524  64.372  1.00  0.00    -0.294 F  
HETATM   29  C   UNL     1      -9.199   8.182  67.053  1.00  0.00    -0.187 A  
HETATM   30  C   UNL     1     -10.646  10.514  66.598  1.00  0.00    -0.263 A  
HETATM   31  C   UNL     1      -9.893   9.943  65.577  1.00  0.00    -0.311 A  
HETATM   32  C   UNL     1     -10.676   9.912  67.861  1.00  0.00    -0.316 A  
ENDBRANCH  14  26
ENDBRANCH  12  13
ENDBRANCH  11  12
ENDBRANCH   3  11
TORSDOF 6
ENDMDL
MODEL      199
REMARK 921   NORMALIZED FREE ENERGY PREDICTED BY IDOCK:   -2.11 KCAL/MOL
REMARK 922        TOTAL FREE ENERGY PREDICTED BY IDOCK:   -4.65 KCAL/MOL
REMARK 923 INTER-LIGAND FREE ENERGY PREDICTED BY IDOCK:   -3.86 KCAL/MOL
REMARK 924 INTRA-LIGAND FREE ENERGY PREDICTED BY IDOCK:   -0.79 KCAL/MOL
REMARK 927      BINDING AFFINITY PREDICTED BY RF-SCORE:    0.00 PKD
ROOT
HETATM    1  O   UNL     1     -12.539  15.769  64.391  1.00  0.00    -0.212 OA 
HETATM    2  H   UNL     1     -12.736  16.692  64.492  1.00  0.00     0.000 HD 
HETATM    3  C   UNL     1     -12.087  15.234  65.633  1.00  0.00     0.364 C  
ENDROOT
BRANCH   3   4
HETATM    4  C   UNL     1     -10.922  16.041  66.165  1.00  0.00    -0.083 A  
HETATM    5  C   UNL     1      -9.676  16.041  65.515  1.00  0.00    -0.169 A  
HETATM    6  C   UNL     1     -11.075  16.806  67.334  1.00  0.00     0.019 A  
HETATM    7  C   UNL     1      -8.619  16.808  66.002  1.00  0.00    -0.213 A  
HETATM    8  F   UNL     1      -7.794  18.330  67.601  1.00  0.00    -0.220 F  
HETATM    9  C   UNL     1     -10.017  17.577  67.819  1.00  0.00    -0.312 A  
HETATM   10  C   UNL     1      -8.802  17.576  67.144  1.00  0.00    -0.238 A  
ENDBRANCH   3   4
BRANCH   3  11
HETATM   11  C   UNL     1     -11.769  13.745  65.469  1.00  0.00    -0.356 C  
BRANCH  11  12
HETATM   12  C   UNL     1     -11.051  13.097  66.667  1.00  0.00    -0.316 C  
BRANCH  12  13
HETATM   13  C   UNL     1      -9.629  12.736  66.245  1.00  0.00    -0.242 C  
HETATM   14  N   UNL     1      -8.306  12.004  67.663  1.00  0.00    -0.150 N  
HETATM   15  O   UNL     1      -8.196  14.359  67.571  1.00  0.00    -0.161 OA 
HETATM   16  C   UNL     1      -8.566  13.263  67.228  1.00  0.00    -0.210 C  
HETATM   17  C   UNL     1      -9.033  11.317  66.588  1.00  0.00    -0.176 C  
BRANCH  17  18
HETATM   18  C   UNL     1      -8.178  10.700  65.375  1.00  0.00    -0.125 A  
HETATM   19  H   UNL     1      -5.123   8.311  62.641  1.00  0.00     0.000 HD 
HETATM   20  C   UNL     1      -8.048   9.666  63.145  1.00  0.00    -0.146 A  
HETATM   21  C   UNL     1      -8.753  10.365  64.131  1.00  0.00    -0.205 A  
HETATM   22  C   UNL     1      -6.824  10.342  65.551  1.00  0.00    -0.134 A  
HETATM   23  C   UNL     1      -6.733   9.296  63.383  1.00  0.00    -0.091 A  
HETATM   24  O   UNL     1      -6.024   8.565  62.478  1.00  0.00    -0.082 OA 
HETATM   25  C   UNL     1      -6.108   9.645  64.569  1.00  0.00    -0.088 A  
ENDBRANCH  17  18
BRANCH  14  26
HETATM   26  C   UNL     1      -7.643  11.542  68.795  1.00  0.00    -0.129 A  
HETATM   27  C   UNL     1      -7.385   9.853  70.529  1.00  0.00    -0.085 A  
HETATM   28  F   UNL     1      -5.699  10.112  72.150  1.00  0.00     0.018 F  
HETATM   29  C   UNL     1      -8.043  10.341  69.399  1.00  0.00    -0.167 A  
HETATM   30  C   UNL     1      -5.902  11.758  70.470  1.00  0.00    -0.125 A  
HETATM   31  C   UNL     1      -6.325  10.570  71.059  1.00  0.00     0.251 A  
HETATM   32  C   UNL     1      -6.557  12.242  69.332  1.00  0.00    -0.081 A  
ENDBRANCH  14  26
ENDBRANCH  12  13
ENDBRANCH  11  12
ENDBRANCH   3  11
TORSDOF 6
ENDMDL
MODEL      200
REMARK 921   NORMALIZED FREE ENERGY PREDICTED BY IDOCK:   -1.69 KCAL/MOL
REMARK 922        TOTAL FREE ENERGY PREDICTED BY IDOCK:   -4.10 KCAL/MOL
REMARK 923 INTER-LIGAND FREE ENERGY PREDICTED BY IDOCK:   -2.15 KCAL/MOL
REMARK 924 INTRA-LIGAND FREE ENERGY PREDICTED BY IDOCK:   -1.95 KCAL/MOL
REMARK 927      BINDING AFFINITY PREDICTED BY RF-SCORE:    0.00 PKD
ROOT
HETATM    1  O   UNL     1     -12.217   8.933  72.327  1.00  0.00    -0.367 OA 
HETATM    2  H   UNL     1     -11.975   8.596  73.182  1.00  0.00     0.000 HD 
HETATM    3  C   UNL     1     -12.755   7.881  71.528  1.00  0.00    -0.322 C  
ENDROOT
BRANCH   3   4
HETATM    4  C   UNL     1     -11.787   6.719  71.462  1.00  0.00    -0.378 A  
HETATM    5  C   UNL     1     -11.382   6.039  72.623  1.00  0.00    -0.320 A  
HETATM    6  C   UNL     1     -11.272   6.306  70.220  1.00  0.00    -0.455 A  
HETATM    7  C   UNL     1     -10.509   4.954  72.544  1.00  0.00    -0.262 A  
HETATM    8  F   UNL     1      -9.213   3.494  71.226  1.00  0.00    -0.138 F  
HETATM    9  C   UNL     1     -10.402   5.217  70.143  1.00  0.00    -0.354 A  
HETATM   10  C   UNL     1     -10.034   4.548  71.304  1.00  0.00    -0.188 A  
ENDBRANCH   3   4
BRANCH   3  11
HETATM   11  C   UNL     1     -13.145   8.425  70.152  1.00  0.00     1.787 C  
BRANCH  11  12
HETATM   12  C   UNL     1     -13.584   9.900  70.134  1.00  0.00     0.851 C  
BRANCH  12  13
HETATM   13  C   UNL     1     -12.510  10.720  69.424  1.00  0.00     0.008 C  
HETATM   14  N   UNL     1     -10.514  10.365  69.855  1.00  0.00    -0.246 N  
HETATM   15  O   UNL     1     -11.397  11.991  71.320  1.00  0.00     1.640 OA 
HETATM   16  C   UNL     1     -11.418  11.227  70.386  1.00  0.00    -0.107 C  
HETATM   17  C   UNL     1     -11.319  10.000  68.682  1.00  0.00    -0.055 C  
BRANCH  17  18
HETATM   18  C   UNL     1     -10.961  10.693  67.278  1.00  0.00    -0.348 A  
HETATM   19  H   UNL     1     -10.054  11.673  62.725  1.00  0.00     0.000 HD 
HETATM   20  C   UNL     1     -11.252  12.510  65.642  1.00  0.00    -0.352 A  
HETATM   21  C   UNL     1     -11.413  11.984  66.928  1.00  0.00    -0.402 A  
HETATM   22  C   UNL     1     -10.282   9.978  66.268  1.00  0.00    -0.285 A  
HETATM   23  C   UNL     1     -10.617  11.749  64.671  1.00  0.00    -0.308 A  
HETATM   24  O   UNL     1     -10.488  12.195  63.389  1.00  0.00    -0.441 OA 
HETATM   25  C   UNL     1     -10.112  10.496  64.978  1.00  0.00    -0.390 A  
ENDBRANCH  17  18
BRANCH  14  26
HETATM   26  C   UNL     1      -9.280   9.925  70.323  1.00  0.00    -0.068 A  
HETATM   27  C   UNL     1      -6.853  10.108  70.323  1.00  0.00    -0.150 A  
HETATM   28  F   UNL     1      -5.587   8.669  71.688  1.00  0.00    -0.033 F  
HETATM   29  C   UNL     1      -8.101  10.527  69.860  1.00  0.00     0.130 A  
HETATM   30  C   UNL     1      -7.939   8.478  71.733  1.00  0.00    -0.177 A  
HETATM   31  C   UNL     1      -6.783   9.082  71.251  1.00  0.00    -0.085 A  
HETATM   32  C   UNL     1      -9.191   8.903  71.274  1.00  0.00    -0.328 A  
ENDBRANCH  14  26
ENDBRANCH  12  13
ENDBRANCH  11  12
ENDBRANCH   3  11
TORSDOF 6
ENDMDL
MODEL      201
REMARK 921   NORMALIZED FREE ENERGY PREDICTED BY IDOCK:   -1.69 KCAL/MOL
REMARK 922        TOTAL FREE ENERGY PREDICTED BY IDOCK:   -4.09 KCAL/MOL
REMARK 923 INTER-LIGAND FREE ENERGY PREDICTED BY IDOCK:   -3.14 KCAL/MOL
REMARK 924 INTRA-LIGAND FREE ENERGY PREDICTED BY IDOCK:   -0.95 KCAL/MOL
REMARK 927      BINDING AFFINITY PREDICTED BY RF-SCORE:    0.00 PKD
ROOT
HETATM    1  O   UNL     1      -8.261   5.134  73.088  1.00  0.00    -0.107 OA 
HETATM    2  H   UNL     1      -8.658   4.308  73.339  1.00  0.00     0.000 HD 
HETATM    3  C   UNL     1      -9.012   5.727  72.030  1.00  0.00    -0.138 C  
ENDROOT
BRANCH   3   4
HETATM    4  C   UNL     1      -9.160   4.757  70.877  1.00  0.00    -0.181 A  
HETATM    5  C   UNL     1      -8.653   3.449  70.954  1.00  0.00    -0.113 A  
HETATM    6  C   UNL     1      -9.811   5.163  69.699  1.00  0.00    -0.286 A  
HETATM    7  C   UNL     1      -8.818   2.558  69.894  1.00  0.00    -0.144 A  
HETATM    8  F   UNL     1      -9.665   2.114  67.740  1.00  0.00    -0.222 F  
HETATM    9  C   UNL     1      -9.979   4.269  68.640  1.00  0.00    -0.024 A  
HETATM   10  C   UNL     1      -9.487   2.974  68.750  1.00  0.00    -0.115 A  
ENDBRANCH   3   4
BRANCH   3  11
HETATM   11  C   UNL     1      -8.373   7.057  71.625  1.00  0.00    -0.108 C  
BRANCH  11  12
HETATM   12  C   UNL     1      -7.207   6.943  70.627  1.00  0.00    -0.069 C  
BRANCH  12  13
HETATM   13  C   UNL     1      -7.675   7.461  69.270  1.00  0.00    -0.107 C  
HETATM   14  N   UNL     1      -7.165   9.383  68.687  1.00  0.00    -0.074 N  
HETATM   15  O   UNL     1      -9.202   9.396  69.876  1.00  0.00    -0.175 OA 
HETATM   16  C   UNL     1      -8.244   8.890  69.344  1.00  0.00    -0.107 C  
HETATM   17  C   UNL     1      -6.640   8.082  68.254  1.00  0.00    -0.056 C  
BRANCH  17  18
HETATM   18  C   UNL     1      -6.916   7.624  66.739  1.00  0.00    -0.079 A  
HETATM   19  H   UNL     1      -7.591   5.219  62.704  1.00  0.00     0.000 HD 
HETATM   20  C   UNL     1      -8.231   7.751  64.662  1.00  0.00    -0.080 A  
HETATM   21  C   UNL     1      -7.866   8.260  65.912  1.00  0.00    -0.093 A  
HETATM   22  C   UNL     1      -6.306   6.467  66.208  1.00  0.00    -0.042 A  
HETATM   23  C   UNL     1      -7.635   6.585  64.203  1.00  0.00    -0.100 A  
HETATM   24  O   UNL     1      -7.999   6.018  63.018  1.00  0.00    -0.098 OA 
HETATM   25  C   UNL     1      -6.661   5.950  64.956  1.00  0.00    -0.043 A  
ENDBRANCH  17  18
BRANCH  14  26
HETATM   26  C   UNL     1      -6.686  10.682  68.551  1.00  0.00    -0.056 A  
HETATM   27  C   UNL     1      -5.878  12.736  69.578  1.00  0.00    -0.105 A  
HETATM   28  F   UNL     1      -5.246  14.542  68.208  1.00  0.00    -0.086 F  
HETATM   29  C   UNL     1      -6.369  11.435  69.692  1.00  0.00    -0.127 A  
HETATM   30  C   UNL     1      -6.002  12.558  67.174  1.00  0.00    -0.027 A  
HETATM   31  C   UNL     1      -5.705  13.289  68.320  1.00  0.00    -0.095 A  
HETATM   32  C   UNL     1      -6.487  11.250  67.288  1.00  0.00    -0.085 A  
ENDBRANCH  14  26
ENDBRANCH  12  13
ENDBRANCH  11  12
ENDBRANCH   3  11
TORSDOF 6
ENDMDL
MODEL      202
REMARK 921   NORMALIZED FREE ENERGY PREDICTED BY IDOCK:   -1.24 KCAL/MOL
REMARK 922        TOTAL FREE ENERGY PREDICTED BY IDOCK:   -3.48 KCAL/MOL
REMARK 923 INTER-LIGAND FREE ENERGY PREDICTED BY IDOCK:   -1.88 KCAL/MOL
REMARK 924 INTRA-LIGAND FREE ENERGY PREDICTED BY IDOCK:   -1.60 KCAL/MOL
REMARK 927      BINDING AFFINITY PREDICTED BY RF-SCORE:    0.00 PKD
ROOT
HETATM    1  O   UNL     1      -7.606   9.284  71.881  1.00  0.00    -0.309 OA 
HETATM    2  H   UNL     1      -7.365   9.882  72.579  1.00  0.00     0.000 HD 
HETATM    3  C   UNL     1      -6.665   9.382  70.815  1.00  0.00    -0.105 C  
ENDROOT
BRANCH   3   4
HETATM    4  C   UNL     1      -6.535  10.819  70.354  1.00  0.00    -0.077 A  
HETATM    5  C   UNL     1      -6.897  11.204  69.053  1.00  0.00    -0.092 A  
HETATM    6  C   UNL     1      -6.037  11.795  71.236  1.00  0.00     1.005 A  
HETATM    7  C   UNL     1      -6.795  12.535  68.650  1.00  0.00    -0.088 A  
HETATM    8  F   UNL     1      -6.246  14.767  69.167  1.00  0.00    -0.095 F  
HETATM    9  C   UNL     1      -5.939  13.127  70.833  1.00  0.00     0.053 A  
HETATM   10  C   UNL     1      -6.325  13.485  69.546  1.00  0.00    -0.108 A  
ENDBRANCH   3   4
BRANCH   3  11
HETATM   11  C   UNL     1      -7.054   8.418  69.691  1.00  0.00    -0.052 C  
BRANCH  11  12
HETATM   12  C   UNL     1      -8.345   7.616  69.937  1.00  0.00    -0.132 C  
BRANCH  12  13
HETATM   13  C   UNL     1      -8.664   6.810  68.681  1.00  0.00    -0.125 C  
HETATM   14  N   UNL     1      -8.350   7.665  66.820  1.00  0.00    -0.122 N  
HETATM   15  O   UNL     1     -10.529   8.142  67.589  1.00  0.00    -0.234 OA 
HETATM   16  C   UNL     1      -9.437   7.628  67.630  1.00  0.00    -0.142 C  
HETATM   17  C   UNL     1      -7.583   6.643  67.545  1.00  0.00    -0.105 C  
BRANCH  17  18
HETATM   18  C   UNL     1      -7.550   5.155  66.941  1.00  0.00    -0.088 A  
HETATM   19  H   UNL     1      -8.074   1.239  64.313  1.00  0.00     0.000 HD 
HETATM   20  C   UNL     1      -6.326   3.107  66.338  1.00  0.00    -0.028 A  
HETATM   21  C   UNL     1      -6.411   4.327  67.018  1.00  0.00    -0.042 A  
HETATM   22  C   UNL     1      -8.631   4.657  66.181  1.00  0.00    -0.114 A  
HETATM   23  C   UNL     1      -7.398   2.682  65.567  1.00  0.00    -0.067 A  
HETATM   24  O   UNL     1      -7.340   1.530  64.841  1.00  0.00    -0.050 OA 
HETATM   25  C   UNL     1      -8.557   3.436  65.499  1.00  0.00    -0.112 A  
ENDBRANCH  17  18
BRANCH  14  26
HETATM   26  C   UNL     1      -8.047   8.466  65.724  1.00  0.00    -0.117 A  
HETATM   27  C   UNL     1      -8.091   8.829  63.317  1.00  0.00    -0.170 A  
HETATM   28  F   UNL     1      -7.186  10.812  62.432  1.00  0.00    -0.147 F  
HETATM   29  C   UNL     1      -8.376   8.036  64.430  1.00  0.00    -0.026 A  
HETATM   30  C   UNL     1      -7.147  10.508  64.772  1.00  0.00     0.049 A  
HETATM   31  C   UNL     1      -7.472  10.054  63.498  1.00  0.00    -0.140 A  
HETATM   32  C   UNL     1      -7.440   9.716  65.889  1.00  0.00    -0.099 A  
ENDBRANCH  14  26
ENDBRANCH  12  13
ENDBRANCH  11  12
ENDBRANCH   3  11
TORSDOF 6
ENDMDL
MODEL      203
REMARK 921   NORMALIZED FREE ENERGY PREDICTED BY IDOCK:   -0.88 KCAL/MOL
REMARK 922        TOTAL FREE ENERGY PREDICTED BY IDOCK:   -2.99 KCAL/MOL
REMARK 923 INTER-LIGAND FREE ENERGY PREDICTED BY IDOCK:   -4.18 KCAL/MOL
REMARK 924 INTRA-LIGAND FREE ENERGY PREDICTED BY IDOCK:    1.18 KCAL/MOL
REMARK 927      BINDING AFFINITY PREDICTED BY RF-SCORE:    0.00 PKD
ROOT
HETATM    1  O   UNL     1      -7.290  10.024  68.349  1.00  0.00    -0.076 OA 
HETATM    2  H   UNL     1      -7.862   9.304  68.113  1.00  0.00     0.000 HD 
HETATM    3  C   UNL     1      -6.169   9.531  69.080  1.00  0.00    -0.042 C  
ENDROOT
BRANCH   3   4
HETATM    4  C   UNL     1      -6.630   8.715  70.269  1.00  0.00    -0.039 A  
HETATM    5  C   UNL     1      -7.640   9.181  71.127  1.00  0.00    -0.093 A  
HETATM    6  C   UNL     1      -6.038   7.467  70.535  1.00  0.00    -0.031 A  
HETATM    7  C   UNL     1      -8.072   8.409  72.205  1.00  0.00    -0.192 A  
HETATM    8  F   UNL     1      -7.919   6.417  73.453  1.00  0.00    -0.097 F  
HETATM    9  C   UNL     1      -6.474   6.694  71.612  1.00  0.00    -0.046 A  
HETATM   10  C   UNL     1      -7.491   7.169  72.432  1.00  0.00    -0.088 A  
ENDBRANCH   3   4
BRANCH   3  11
HETATM   11  C   UNL     1      -5.248  10.692  69.461  1.00  0.00    -0.038 C  
BRANCH  11  12
HETATM   12  C   UNL     1      -5.956  11.910  70.082  1.00  0.00    -0.159 C  
BRANCH  12  13
HETATM   13  C   UNL     1      -6.143  12.969  68.998  1.00  0.00    -0.089 C  
HETATM   14  N   UNL     1      -7.626  12.711  67.574  1.00  0.00    -0.149 N  
HETATM   15  O   UNL     1      -5.612  11.714  66.855  1.00  0.00    -0.111 OA 
HETATM   16  C   UNL     1      -6.316  12.358  67.595  1.00  0.00    -0.131 C  
HETATM   17  C   UNL     1      -7.564  13.601  68.740  1.00  0.00    -0.079 C  
BRANCH  17  18
HETATM   18  C   UNL     1      -7.494  15.184  68.476  1.00  0.00    -0.121 A  
HETATM   19  H   UNL     1      -6.981  19.529  66.637  1.00  0.00     0.000 HD 
HETATM   20  C   UNL     1      -8.466  17.438  68.656  1.00  0.00    -0.257 A  
HETATM   21  C   UNL     1      -8.423  16.091  69.029  1.00  0.00    -0.244 A  
HETATM   22  C   UNL     1      -6.565  15.727  67.561  1.00  0.00    -0.213 A  
HETATM   23  C   UNL     1      -7.561  17.914  67.718  1.00  0.00    -0.214 A  
HETATM   24  O   UNL     1      -7.601  19.203  67.280  1.00  0.00    -0.231 OA 
HETATM   25  C   UNL     1      -6.598  17.075  67.183  1.00  0.00    -0.217 A  
ENDBRANCH  17  18
BRANCH  14  26
HETATM   26  C   UNL     1      -8.677  12.294  66.763  1.00  0.00    -0.175 A  
HETATM   27  C   UNL     1      -9.462  11.046  64.827  1.00  0.00    -0.267 A  
HETATM   28  F   UNL     1     -11.762  11.013  64.329  1.00  0.00    -0.129 F  
HETATM   29  C   UNL     1      -8.422  11.484  65.647  1.00  0.00     0.193 A  
HETATM   30  C   UNL     1     -11.042  12.214  66.230  1.00  0.00    -0.353 A  
HETATM   31  C   UNL     1     -10.763  11.421  65.121  1.00  0.00    -0.269 A  
HETATM   32  C   UNL     1      -9.999  12.646  67.057  1.00  0.00    -0.220 A  
ENDBRANCH  14  26
ENDBRANCH  12  13
ENDBRANCH  11  12
ENDBRANCH   3  11
TORSDOF 6
ENDMDL
MODEL      204
REMARK 921   NORMALIZED FREE ENERGY PREDICTED BY IDOCK:   -0.80 KCAL/MOL
REMARK 922        TOTAL FREE ENERGY PREDICTED BY IDOCK:   -2.88 KCAL/MOL
REMARK 923 INTER-LIGAND FREE ENERGY PREDICTED BY IDOCK:   -0.76 KCAL/MOL
REMARK 924 INTRA-LIGAND FREE ENERGY PREDICTED BY IDOCK:   -2.13 KCAL/MOL
REMARK 927      BINDING AFFINITY PREDICTED BY RF-SCORE:    0.00 PKD
ROOT
HETATM    1  O   UNL     1      -6.619  10.398  69.069  1.00  0.00    -0.054 OA 
HETATM    2  H   UNL     1      -7.093  10.009  69.794  1.00  0.00     0.000 HD 
HETATM    3  C   UNL     1      -7.538  10.834  68.070  1.00  0.00    -0.092 C  
ENDROOT
BRANCH   3   4
HETATM    4  C   UNL     1      -8.445   9.696  67.652  1.00  0.00    -0.125 A  
HETATM    5  C   UNL     1      -8.090   8.356  67.883  1.00  0.00    -0.123 A  
HETATM    6  C   UNL     1      -9.667   9.972  67.013  1.00  0.00    -0.227 A  
HETATM    7  C   UNL     1      -8.946   7.319  67.515  1.00  0.00    -0.122 A  
HETATM    8  F   UNL     1     -10.991   6.624  66.574  1.00  0.00    -0.340 F  
HETATM    9  C   UNL     1     -10.525   8.933  66.649  1.00  0.00    -0.231 A  
HETATM   10  C   UNL     1     -10.159   7.618  66.909  1.00  0.00    -0.278 A  
ENDBRANCH   3   4
BRANCH   3  11
HETATM   11  C   UNL     1      -6.773  11.461  66.901  1.00  0.00    -0.145 C  
BRANCH  11  12
HETATM   12  C   UNL     1      -7.115  12.934  66.614  1.00  0.00     0.979 C  
BRANCH  12  13
HETATM   13  C   UNL     1      -8.026  13.448  67.726  1.00  0.00    -0.167 C  
HETATM   14  N   UNL     1      -8.918  15.308  67.526  1.00  0.00    -0.181 N  
HETATM   15  O   UNL     1      -6.811  15.512  68.569  1.00  0.00    -0.109 OA 
HETATM   16  C   UNL     1      -7.746  14.919  68.089  1.00  0.00    -0.115 C  
HETATM   17  C   UNL     1      -9.480  13.958  67.392  1.00  0.00    -0.226 C  
BRANCH  17  18
HETATM   18  C   UNL     1     -10.563  13.481  68.478  1.00  0.00    -0.257 A  
HETATM   19  H   UNL     1     -14.394  11.848  70.753  1.00  0.00     0.000 HD 
HETATM   20  C   UNL     1     -11.162  12.220  70.506  1.00  0.00     1.052 A  
HETATM   21  C   UNL     1     -10.207  12.788  69.655  1.00  0.00     1.058 A  
HETATM   22  C   UNL     1     -11.946  13.622  68.234  1.00  0.00    -0.385 A  
HETATM   23  C   UNL     1     -12.508  12.346  70.198  1.00  0.00    -0.020 A  
HETATM   24  O   UNL     1     -13.472  11.761  70.964  1.00  0.00     0.261 OA 
HETATM   25  C   UNL     1     -12.910  13.060  69.081  1.00  0.00     1.152 A  
ENDBRANCH  17  18
BRANCH  14  26
HETATM   26  C   UNL     1      -9.379  16.562  67.138  1.00  0.00    -0.233 A  
HETATM   27  C   UNL     1     -10.439  17.980  65.468  1.00  0.00     0.031 A  
HETATM   28  F   UNL     1     -10.779  20.261  65.937  1.00  0.00    -0.464 F  
HETATM   29  C   UNL     1      -9.960  16.733  65.873  1.00  0.00    -0.299 A  
HETATM   30  C   UNL     1      -9.770  18.913  67.592  1.00  0.00    -0.362 A  
HETATM   31  C   UNL     1     -10.332  19.060  66.328  1.00  0.00    -0.459 A  
HETATM   32  C   UNL     1      -9.298  17.660  68.002  1.00  0.00    -0.274 A  
ENDBRANCH  14  26
ENDBRANCH  12  13
ENDBRANCH  11  12
ENDBRANCH   3  11
TORSDOF 6
ENDMDL
MODEL      205
REMARK 921   NORMALIZED FREE ENERGY PREDICTED BY IDOCK:   -0.57 KCAL/MOL
REMARK 922        TOTAL FREE ENERGY PREDICTED BY IDOCK:   -2.57 KCAL/MOL
REMARK 923 INTER-LIGAND FREE ENERGY PREDICTED BY IDOCK:   -1.77 KCAL/MOL
REMARK 924 INTRA-LIGAND FREE ENERGY PREDICTED BY IDOCK:   -0.80 KCAL/MOL
REMARK 927      BINDING AFFINITY PREDICTED BY RF-SCORE:    0.00 PKD
ROOT
HETATM    1  O   UNL     1      -7.607  15.416  71.224  1.00  0.00     1.710 OA 
HETATM    2  H   UNL     1      -6.724  15.586  71.528  1.00  0.00     0.000 HD 
HETATM    3  C   UNL     1      -7.623  15.358  69.799  1.00  0.00    -0.091 C  
ENDROOT
BRANCH   3   4
HETATM    4  C   UNL     1      -7.018  16.615  69.212  1.00  0.00    -0.225 A  
HETATM    5  C   UNL     1      -7.695  17.845  69.264  1.00  0.00     0.101 A  
HETATM    6  C   UNL     1      -5.756  16.563  68.593  1.00  0.00    -0.117 A  
HETATM    7  C   UNL     1      -7.115  19.000  68.741  1.00  0.00    -0.353 A  
HETATM    8  F   UNL     1      -5.290  20.041  67.674  1.00  0.00    -0.175 F  
HETATM    9  C   UNL     1      -5.175  17.721  68.073  1.00  0.00    -0.145 A  
HETATM   10  C   UNL     1      -5.857  18.929  68.158  1.00  0.00    -0.208 A  
ENDBRANCH   3   4
BRANCH   3  11
HETATM   11  C   UNL     1      -9.047  15.084  69.308  1.00  0.00    -0.157 C  
BRANCH  11  12
HETATM   12  C   UNL     1      -9.452  15.837  68.028  1.00  0.00    -0.202 C  
BRANCH  12  13
HETATM   13  C   UNL     1      -9.460  14.850  66.864  1.00  0.00    -0.251 C  
HETATM   14  N   UNL     1      -8.861  12.893  67.190  1.00  0.00    -0.204 N  
HETATM   15  O   UNL     1      -7.012  14.234  66.600  1.00  0.00     0.640 OA 
HETATM   16  C   UNL     1      -8.179  13.998  66.798  1.00  0.00     0.200 C  
HETATM   17  C   UNL     1     -10.201  13.464  67.001  1.00  0.00    -0.249 C  
BRANCH  17  18
HETATM   18  C   UNL     1     -11.009  13.065  65.671  1.00  0.00    -0.296 A  
HETATM   19  H   UNL     1     -13.022  10.829  62.002  1.00  0.00     0.000 HD 
HETATM   20  C   UNL     1     -13.030  13.174  64.271  1.00  0.00     0.098 A  
HETATM   21  C   UNL     1     -12.247  13.648  65.329  1.00  0.00    -0.466 A  
HETATM   22  C   UNL     1     -10.572  12.005  64.847  1.00  0.00    -0.334 A  
HETATM   23  C   UNL     1     -12.579  12.099  63.519  1.00  0.00    -0.506 A  
HETATM   24  O   UNL     1     -13.332  11.565  62.517  1.00  0.00     0.509 OA 
HETATM   25  C   UNL     1     -11.347  11.524  63.784  1.00  0.00    -0.420 A  
ENDBRANCH  17  18
BRANCH  14  26
HETATM   26  C   UNL     1      -8.421  11.668  67.682  1.00  0.00    -0.142 A  
HETATM   27  C   UNL     1      -8.105  10.158  69.564  1.00  0.00    -0.176 A  
HETATM   28  F   UNL     1      -7.145   8.040  69.197  1.00  0.00    -0.061 F  
HETATM   29  C   UNL     1      -8.530  11.384  69.051  1.00  0.00     0.051 A  
HETATM   30  C   UNL     1      -7.459   9.468  67.342  1.00  0.00    -0.091 A  
HETATM   31  C   UNL     1      -7.566   9.213  68.706  1.00  0.00    -0.083 A  
HETATM   32  C   UNL     1      -7.892  10.694  66.827  1.00  0.00    -0.126 A  
ENDBRANCH  14  26
ENDBRANCH  12  13
ENDBRANCH  11  12
ENDBRANCH   3  11
TORSDOF 6
ENDMDL
MODEL      206
REMARK 921   NORMALIZED FREE ENERGY PREDICTED BY IDOCK:    0.48 KCAL/MOL
REMARK 922        TOTAL FREE ENERGY PREDICTED BY IDOCK:   -1.16 KCAL/MOL
REMARK 923 INTER-LIGAND FREE ENERGY PREDICTED BY IDOCK:   -2.69 KCAL/MOL
REMARK 924 INTRA-LIGAND FREE ENERGY PREDICTED BY IDOCK:    1.53 KCAL/MOL
REMARK 927      BINDING AFFINITY PREDICTED BY RF-SCORE:    0.00 PKD
ROOT
HETATM    1  O   UNL     1      -7.552  14.587  71.317  1.00  0.00     1.240 OA 
HETATM    2  H   UNL     1      -6.695  14.786  71.675  1.00  0.00     0.000 HD 
HETATM    3  C   UNL     1      -7.515  14.684  69.896  1.00  0.00     0.118 C  
ENDROOT
BRANCH   3   4
HETATM    4  C   UNL     1      -6.987  16.038  69.471  1.00  0.00    -0.191 A  
HETATM    5  C   UNL     1      -7.739  16.889  68.643  1.00  0.00    -0.235 A  
HETATM    6  C   UNL     1      -5.717  16.462  69.902  1.00  0.00    -0.193 A  
HETATM    7  C   UNL     1      -7.251  18.143  68.280  1.00  0.00    -0.257 A  
HETATM    8  F   UNL     1      -5.546  19.763  68.409  1.00  0.00    -0.202 F  
HETATM    9  C   UNL     1      -5.232  17.720  69.541  1.00  0.00    -0.182 A  
HETATM   10  C   UNL     1      -6.006  18.551  68.739  1.00  0.00    -0.210 A  
ENDBRANCH   3   4
BRANCH   3  11
HETATM   11  C   UNL     1      -8.896  14.364  69.319  1.00  0.00     0.193 C  
BRANCH  11  12
HETATM   12  C   UNL     1      -9.057  14.651  67.815  1.00  0.00    -0.191 C  
BRANCH  12  13
HETATM   13  C   UNL     1      -8.387  13.525  67.030  1.00  0.00    -0.096 C  
HETATM   14  N   UNL     1      -7.767  11.821  68.032  1.00  0.00    -0.115 N  
HETATM   15  O   UNL     1      -6.048  13.437  68.015  1.00  0.00    -0.100 OA 
HETATM   16  C   UNL     1      -7.129  12.980  67.731  1.00  0.00    -0.139 C  
HETATM   17  C   UNL     1      -8.918  12.045  67.149  1.00  0.00    -0.185 C  
BRANCH  17  18
HETATM   18  C   UNL     1      -8.943  11.286  65.733  1.00  0.00    -0.191 A  
HETATM   19  H   UNL     1      -8.419   8.244  62.130  1.00  0.00     0.000 HD 
HETATM   20  C   UNL     1     -10.150  10.491  63.741  1.00  0.00    -0.253 A  
HETATM   21  C   UNL     1     -10.068  11.296  64.883  1.00  0.00    -0.333 A  
HETATM   22  C   UNL     1      -7.871  10.457  65.337  1.00  0.00    -0.143 A  
HETATM   23  C   UNL     1      -9.089   9.658  63.419  1.00  0.00    -0.178 A  
HETATM   24  O   UNL     1      -9.145   8.814  62.350  1.00  0.00    -0.084 OA 
HETATM   25  C   UNL     1      -7.942   9.649  64.195  1.00  0.00    -0.143 A  
ENDBRANCH  17  18
BRANCH  14  26
HETATM   26  C   UNL     1      -7.458  10.810  68.937  1.00  0.00    -0.116 A  
HETATM   27  C   UNL     1      -5.846   9.739  70.412  1.00  0.00    -0.060 A  
HETATM   28  F   UNL     1      -6.491   7.838  71.641  1.00  0.00    -0.038 F  
HETATM   29  C   UNL     1      -6.174  10.738  69.495  1.00  0.00    -0.064 A  
HETATM   30  C   UNL     1      -8.090   8.864  70.239  1.00  0.00    -0.125 A  
HETATM   31  C   UNL     1      -6.806   8.806  70.771  1.00  0.00    -0.056 A  
HETATM   32  C   UNL     1      -8.420   9.871  69.325  1.00  0.00    -0.158 A  
ENDBRANCH  14  26
ENDBRANCH  12  13
ENDBRANCH  11  12
ENDBRANCH   3  11
TORSDOF 6
ENDMDL
MODEL      207
REMARK 921   NORMALIZED FREE ENERGY PREDICTED BY IDOCK:    1.67 KCAL/MOL
REMARK 922        TOTAL FREE ENERGY PREDICTED BY IDOCK:    0.46 KCAL/MOL
REMARK 923 INTER-LIGAND FREE ENERGY PREDICTED BY IDOCK:   -1.75 KCAL/MOL
REMARK 924 INTRA-LIGAND FREE ENERGY PREDICTED BY IDOCK:    2.20 KCAL/MOL
REMARK 927      BINDING AFFINITY PREDICTED BY RF-SCORE:    0.00 PKD
ROOT
HETATM    1  O   UNL     1     -10.743  12.440  70.706  1.00  0.00     1.891 OA 
HETATM    2  H   UNL     1     -10.137  12.453  71.437  1.00  0.00     0.000 HD 
HETATM    3  C   UNL     1     -10.913  13.762  70.199  1.00  0.00     0.441 C  
ENDROOT
BRANCH   3   4
HETATM    4  C   UNL     1     -11.329  14.706  71.307  1.00  0.00    -0.045 A  
HETATM    5  C   UNL     1     -11.927  14.229  72.486  1.00  0.00     0.216 A  
HETATM    6  C   UNL     1     -11.122  16.089  71.164  1.00  0.00    -0.188 A  
HETATM    7  C   UNL     1     -12.282  15.108  73.509  1.00  0.00    -0.598 A  
HETATM    8  F   UNL     1     -12.366  17.308  74.346  1.00  0.00    -0.371 F  
HETATM    9  C   UNL     1     -11.474  16.967  72.191  1.00  0.00     0.433 A  
HETATM   10  C   UNL     1     -12.044  16.467  73.356  1.00  0.00    -0.438 A  
ENDBRANCH   3   4
BRANCH   3  11
HETATM   11  C   UNL     1     -11.891  13.742  69.021  1.00  0.00    -0.397 C  
BRANCH  11  12
HETATM   12  C   UNL     1     -11.944  12.417  68.240  1.00  0.00    -0.270 C  
BRANCH  12  13
HETATM   13  C   UNL     1     -10.614  12.224  67.516  1.00  0.00    -0.242 C  
HETATM   14  N   UNL     1      -9.011  11.403  68.541  1.00  0.00    -0.167 N  
HETATM   15  O   UNL     1      -9.030  13.749  68.786  1.00  0.00    -0.096 OA 
HETATM   16  C   UNL     1      -9.408  12.687  68.356  1.00  0.00    -0.148 C  
HETATM   17  C   UNL     1      -9.897  10.819  67.526  1.00  0.00    -0.172 C  
BRANCH  17  18
HETATM   18  C   UNL     1      -9.263  10.443  66.099  1.00  0.00    -0.199 A  
HETATM   19  H   UNL     1      -6.851   8.518  62.495  1.00  0.00     0.000 HD 
HETATM   20  C   UNL     1      -9.507   9.988  63.692  1.00  0.00    -0.253 A  
HETATM   21  C   UNL     1     -10.007  10.485  64.901  1.00  0.00    -0.401 A  
HETATM   22  C   UNL     1      -7.956   9.920  66.001  1.00  0.00    -0.114 A  
HETATM   23  C   UNL     1      -8.232   9.441  63.657  1.00  0.00    -0.169 A  
HETATM   24  O   UNL     1      -7.723   8.892  62.518  1.00  0.00    -0.109 OA 
HETATM   25  C   UNL     1      -7.444   9.422  64.796  1.00  0.00    -0.107 A  
ENDBRANCH  17  18
BRANCH  14  26
HETATM   26  C   UNL     1      -8.122  10.838  69.450  1.00  0.00    -0.043 A  
HETATM   27  C   UNL     1      -7.695   9.287  71.276  1.00  0.00     0.025 A  
HETATM   28  F   UNL     1      -5.522   9.116  72.163  1.00  0.00    -0.053 F  
HETATM   29  C   UNL     1      -8.572   9.873  70.363  1.00  0.00     0.035 A  
HETATM   30  C   UNL     1      -5.891  10.614  70.376  1.00  0.00    -0.108 A  
HETATM   31  C   UNL     1      -6.364   9.668  71.279  1.00  0.00     0.021 A  
HETATM   32  C   UNL     1      -6.769  11.197  69.455  1.00  0.00    -0.120 A  
ENDBRANCH  14  26
ENDBRANCH  12  13
ENDBRANCH  11  12
ENDBRANCH   3  11
TORSDOF 6
ENDMDL
MODEL      208
REMARK 921   NORMALIZED FREE ENERGY PREDICTED BY IDOCK:    1.77 KCAL/MOL
REMARK 922        TOTAL FREE ENERGY PREDICTED BY IDOCK:    0.58 KCAL/MOL
REMARK 923 INTER-LIGAND FREE ENERGY PREDICTED BY IDOCK:    2.00 KCAL/MOL
REMARK 924 INTRA-LIGAND FREE ENERGY PREDICTED BY IDOCK:   -1.42 KCAL/MOL
REMARK 927      BINDING AFFINITY PREDICTED BY RF-SCORE:    0.00 PKD
ROOT
HETATM    1  O   UNL     1      -5.962  13.829  72.071  1.00  0.00    -0.546 OA 
HETATM    2  H   UNL     1      -5.420  14.602  72.178  1.00  0.00     0.000 HD 
HETATM    3  C   UNL     1      -5.658  13.193  70.832  1.00  0.00    -0.188 C  
ENDROOT
BRANCH   3   4
HETATM    4  C   UNL     1      -5.781  14.176  69.687  1.00  0.00    -0.101 A  
HETATM    5  C   UNL     1      -5.211  13.910  68.431  1.00  0.00    -0.102 A  
HETATM    6  C   UNL     1      -6.474  15.386  69.874  1.00  0.00    -0.155 A  
HETATM    7  C   UNL     1      -5.354  14.813  67.379  1.00  0.00     0.351 A  
HETATM    8  F   UNL     1      -6.220  16.846  66.563  1.00  0.00    -0.212 F  
HETATM    9  C   UNL     1      -6.620  16.287  68.818  1.00  0.00    -0.136 A  
HETATM   10  C   UNL     1      -6.064  15.989  67.579  1.00  0.00    -0.159 A  
ENDBRANCH   3   4
BRANCH   3  11
HETATM   11  C   UNL     1      -6.533  11.949  70.661  1.00  0.00     0.802 C  
BRANCH  11  12
HETATM   12  C   UNL     1      -8.021  12.231  70.390  1.00  0.00     4.244 C  
BRANCH  12  13
HETATM   13  C   UNL     1      -8.348  11.799  68.963  1.00  0.00     0.180 C  
HETATM   14  N   UNL     1      -9.299   9.986  68.645  1.00  0.00    -0.151 N  
HETATM   15  O   UNL     1      -6.958   9.697  68.655  1.00  0.00    -0.062 OA 
HETATM   16  C   UNL     1      -7.987  10.327  68.691  1.00  0.00    -0.111 C  
HETATM   17  C   UNL     1      -9.813  11.360  68.579  1.00  0.00    -0.198 C  
BRANCH  17  18
HETATM   18  C   UNL     1     -10.269  11.926  67.147  1.00  0.00    -0.230 A  
HETATM   19  H   UNL     1     -11.718  12.480  62.662  1.00  0.00     0.000 HD 
HETATM   20  C   UNL     1     -11.615  13.462  65.772  1.00  0.00    -0.358 A  
HETATM   21  C   UNL     1     -11.073  13.076  67.003  1.00  0.00    -0.311 A  
HETATM   22  C   UNL     1      -9.990  11.211  65.962  1.00  0.00    -0.280 A  
HETATM   23  C   UNL     1     -11.349  12.700  64.644  1.00  0.00    -0.318 A  
HETATM   24  O   UNL     1     -11.900  13.002  63.434  1.00  0.00    -0.524 OA 
HETATM   25  C   UNL     1     -10.525  11.589  64.724  1.00  0.00    -0.354 A  
ENDBRANCH  17  18
BRANCH  14  26
HETATM   26  C   UNL     1      -9.930   8.748  68.720  1.00  0.00    -0.185 A  
HETATM   27  C   UNL     1     -10.507   6.765  70.009  1.00  0.00    -0.241 A  
HETATM   28  F   UNL     1     -11.798   5.072  69.006  1.00  0.00     2.145 F  
HETATM   29  C   UNL     1      -9.872   8.004  69.908  1.00  0.00    -0.186 A  
HETATM   30  C   UNL     1     -11.280   6.992  67.733  1.00  0.00    -0.044 A  
HETATM   31  C   UNL     1     -11.199   6.267  68.917  1.00  0.00    -0.309 A  
HETATM   32  C   UNL     1     -10.650   8.238  67.635  1.00  0.00    -0.264 A  
ENDBRANCH  14  26
ENDBRANCH  12  13
ENDBRANCH  11  12
ENDBRANCH   3  11
TORSDOF 6
ENDMDL
MODEL      209
REMARK 921   NORMALIZED FREE ENERGY PREDICTED BY IDOCK:    2.72 KCAL/MOL
REMARK 922        TOTAL FREE ENERGY PREDICTED BY IDOCK:    1.87 KCAL/MOL
REMARK 923 INTER-LIGAND FREE ENERGY PREDICTED BY IDOCK:    3.33 KCAL/MOL
REMARK 924 INTRA-LIGAND FREE ENERGY PREDICTED BY IDOCK:   -1.46 KCAL/MOL
REMARK 927      BINDING AFFINITY PREDICTED BY RF-SCORE:    0.00 PKD
ROOT
HETATM    1  O   UNL     1      -7.968   3.811  73.963  1.00  0.00    -0.080 OA 
HETATM    2  H   UNL     1      -8.428   3.035  74.261  1.00  0.00     0.000 HD 
HETATM    3  C   UNL     1      -8.832   4.600  73.149  1.00  0.00    -0.111 C  
ENDROOT
BRANCH   3   4
HETATM    4  C   UNL     1      -9.401   3.770  72.019  1.00  0.00    -0.188 A  
HETATM    5  C   UNL     1     -10.274   4.328  71.070  1.00  0.00    -0.070 A  
HETATM    6  C   UNL     1      -9.061   2.409  71.909  1.00  0.00    -0.141 A  
HETATM    7  C   UNL     1     -10.771   3.557  70.020  1.00  0.00     2.694 A  
HETATM    8  F   UNL     1     -10.861   1.488  68.898  1.00  0.00     1.172 F  
HETATM    9  C   UNL     1      -9.557   1.640  70.855  1.00  0.00    -0.180 A  
HETATM   10  C   UNL     1     -10.401   2.223  69.917  1.00  0.00     1.603 A  
ENDBRANCH   3   4
BRANCH   3  11
HETATM   11  C   UNL     1      -8.091   5.851  72.669  1.00  0.00    -0.105 C  
BRANCH  11  12
HETATM   12  C   UNL     1      -6.867   5.580  71.776  1.00  0.00    -0.066 C  
BRANCH  12  13
HETATM   13  C   UNL     1      -7.200   6.009  70.350  1.00  0.00    -0.083 C  
HETATM   14  N   UNL     1      -6.880   7.977  69.782  1.00  0.00    -0.044 N  
HETATM   15  O   UNL     1      -9.051   7.718  70.670  1.00  0.00    -0.151 OA 
HETATM   16  C   UNL     1      -7.966   7.345  70.295  1.00  0.00    -0.107 C  
HETATM   17  C   UNL     1      -6.125   6.757  69.471  1.00  0.00    -0.029 C  
BRANCH  17  18
HETATM   18  C   UNL     1      -6.113   6.245  67.948  1.00  0.00    -0.024 A  
HETATM   19  H   UNL     1      -5.780   3.735  63.935  1.00  0.00     0.000 HD 
HETATM   20  C   UNL     1      -7.159   6.089  65.725  1.00  0.00    -0.073 A  
HETATM   21  C   UNL     1      -7.063   6.668  66.995  1.00  0.00    -0.076 A  
HETATM   22  C   UNL     1      -5.218   5.237  67.528  1.00  0.00    -0.004 A  
HETATM   23  C   UNL     1      -6.286   5.069  65.376  1.00  0.00    -0.035 A  
HETATM   24  O   UNL     1      -6.378   4.434  64.174  1.00  0.00    -0.032 OA 
HETATM   25  C   UNL     1      -5.304   4.652  66.258  1.00  0.00    -0.009 A  
ENDBRANCH  17  18
BRANCH  14  26
HETATM   26  C   UNL     1      -6.570   9.328  69.673  1.00  0.00    -0.043 A  
HETATM   27  C   UNL     1      -5.694  11.365  70.677  1.00  0.00    -0.119 A  
HETATM   28  F   UNL     1      -5.616  13.341  69.401  1.00  0.00    -0.074 F  
HETATM   29  C   UNL     1      -6.022  10.012  70.768  1.00  0.00    -0.095 A  
HETATM   30  C   UNL     1      -6.450  11.380  68.384  1.00  0.00    -0.050 A  
HETATM   31  C   UNL     1      -5.918  12.039  69.488  1.00  0.00    -0.100 A  
HETATM   32  C   UNL     1      -6.771  10.021  68.473  1.00  0.00    -0.054 A  
ENDBRANCH  14  26
ENDBRANCH  12  13
ENDBRANCH  11  12
ENDBRANCH   3  11
TORSDOF 6
ENDMDL
MODEL      210
REMARK 921   NORMALIZED FREE ENERGY PREDICTED BY IDOCK:    5.55 KCAL/MOL
REMARK 922        TOTAL FREE ENERGY PREDICTED BY IDOCK:    5.70 KCAL/MOL
REMARK 923 INTER-LIGAND FREE ENERGY PREDICTED BY IDOCK:    7.37 KCAL/MOL
REMARK 924 INTRA-LIGAND FREE ENERGY PREDICTED BY IDOCK:   -1.68 KCAL/MOL
REMARK 927      BINDING AFFINITY PREDICTED BY RF-SCORE:    0.00 PKD
ROOT
HETATM    1  O   UNL     1      -9.817  17.137  72.177  1.00  0.00     6.456 OA 
HETATM    2  H   UNL     1      -9.757  16.516  72.894  1.00  0.00     0.000 HD 
HETATM    3  C   UNL     1     -11.181  17.486  71.955  1.00  0.00     1.947 C  
ENDROOT
BRANCH   3   4
HETATM    4  C   UNL     1     -12.019  16.243  71.743  1.00  0.00    -0.473 A  
HETATM    5  C   UNL     1     -12.903  15.781  72.733  1.00  0.00    -0.569 A  
HETATM    6  C   UNL     1     -11.916  15.525  70.538  1.00  0.00    -0.406 A  
HETATM    7  C   UNL     1     -13.687  14.649  72.515  1.00  0.00    -0.572 A  
HETATM    8  F   UNL     1     -14.354  12.896  71.089  1.00  0.00     0.844 F  
HETATM    9  C   UNL     1     -12.704  14.394  70.320  1.00  0.00    -0.318 A  
HETATM   10  C   UNL     1     -13.586  13.971  71.308  1.00  0.00    -0.201 A  
ENDBRANCH   3   4
BRANCH   3  11
HETATM   11  C   UNL     1     -11.277  18.486  70.799  1.00  0.00     4.118 C  
BRANCH  11  12
HETATM   12  C   UNL     1     -10.025  18.575  69.909  1.00  0.00     0.795 C  
BRANCH  12  13
HETATM   13  C   UNL     1     -10.372  18.033  68.524  1.00  0.00    -0.359 C  
HETATM   14  N   UNL     1      -9.108  18.435  66.932  1.00  0.00    -0.278 N  
HETATM   15  O   UNL     1     -10.731  20.135  67.146  1.00  0.00    -0.309 OA 
HETATM   16  C   UNL     1     -10.197  19.085  67.413  1.00  0.00    -0.394 C  
HETATM   17  C   UNL     1      -9.311  17.203  67.705  1.00  0.00    -0.245 C  
BRANCH  17  18
HETATM   18  C   UNL     1      -9.964  15.941  66.955  1.00  0.00    -0.248 A  
HETATM   19  H   UNL     1     -12.195  11.914  65.808  1.00  0.00     0.000 HD 
HETATM   20  C   UNL     1     -11.333  14.990  65.144  1.00  0.00    -0.372 A  
HETATM   21  C   UNL     1     -10.614  16.050  65.708  1.00  0.00    -0.366 A  
HETATM   22  C   UNL     1     -10.030  14.679  67.583  1.00  0.00    -0.227 A  
HETATM   23  C   UNL     1     -11.408  13.782  65.823  1.00  0.00    -0.304 A  
HETATM   24  O   UNL     1     -12.144  12.740  65.343  1.00  0.00    -0.413 OA 
HETATM   25  C   UNL     1     -10.746  13.610  67.027  1.00  0.00    -0.278 A  
ENDBRANCH  17  18
BRANCH  14  26
HETATM   26  C   UNL     1      -8.103  18.845  66.062  1.00  0.00    -0.137 A  
HETATM   27  C   UNL     1      -7.115  20.581  64.672  1.00  0.00     0.150 A  
HETATM   28  F   UNL     1      -5.135  20.122  63.485  1.00  0.00    -0.165 F  
HETATM   29  C   UNL     1      -8.119  20.146  65.538  1.00  0.00     0.191 A  
HETATM   30  C   UNL     1      -6.051  18.421  64.841  1.00  0.00    -0.066 A  
HETATM   31  C   UNL     1      -6.093  19.712  64.325  1.00  0.00    -0.188 A  
HETATM   32  C   UNL     1      -7.053  17.987  65.716  1.00  0.00    -0.242 A  
ENDBRANCH  14  26
ENDBRANCH  12  13
ENDBRANCH  11  12
ENDBRANCH   3  11
TORSDOF 6
ENDMDL
MODEL      211
REMARK 921   NORMALIZED FREE ENERGY PREDICTED BY IDOCK:    8.29 KCAL/MOL
REMARK 922        TOTAL FREE ENERGY PREDICTED BY IDOCK:    9.39 KCAL/MOL
REMARK 923 INTER-LIGAND FREE ENERGY PREDICTED BY IDOCK:   11.00 KCAL/MOL
REMARK 924 INTRA-LIGAND FREE ENERGY PREDICTED BY IDOCK:   -1.61 KCAL/MOL
REMARK 927      BINDING AFFINITY PREDICTED BY RF-SCORE:    0.00 PKD
ROOT
HETATM    1  O   UNL     1      -9.688  17.751  72.655  1.00  0.00     8.215 OA 
HETATM    2  H   UNL     1      -9.583  17.243  73.451  1.00  0.00     0.000 HD 
HETATM    3  C   UNL     1     -11.070  17.837  72.317  1.00  0.00     2.524 C  
ENDROOT
BRANCH   3   4
HETATM    4  C   UNL     1     -11.681  16.454  72.231  1.00  0.00    -0.463 A  
HETATM    5  C   UNL     1     -11.508  15.649  71.093  1.00  0.00    -0.463 A  
HETATM    6  C   UNL     1     -12.444  15.957  73.303  1.00  0.00    -0.636 A  
HETATM    7  C   UNL     1     -12.056  14.368  71.038  1.00  0.00    -0.417 A  
HETATM    8  F   UNL     1     -13.293  12.652  72.075  1.00  0.00    -0.522 F  
HETATM    9  C   UNL     1     -12.989  14.674  73.247  1.00  0.00    -0.569 A  
HETATM   10  C   UNL     1     -12.784  13.889  72.118  1.00  0.00    -0.230 A  
ENDBRANCH   3   4
BRANCH   3  11
HETATM   11  C   UNL     1     -11.239  18.655  71.034  1.00  0.00     4.458 C  
BRANCH  11  12
HETATM   12  C   UNL     1      -9.949  18.865  70.221  1.00  0.00     1.279 C  
BRANCH  12  13
HETATM   13  C   UNL     1      -9.934  17.866  69.066  1.00  0.00    -0.276 C  
HETATM   14  N   UNL     1      -8.720  18.231  67.427  1.00  0.00    -0.254 N  
HETATM   15  O   UNL     1     -10.842  19.212  67.115  1.00  0.00    -0.464 OA 
HETATM   16  C   UNL     1     -10.012  18.550  67.688  1.00  0.00    -0.338 C  
HETATM   17  C   UNL     1      -8.568  17.282  68.537  1.00  0.00    -0.270 C  
BRANCH  17  18
HETATM   18  C   UNL     1      -8.658  15.713  68.206  1.00  0.00    -0.158 A  
HETATM   19  H   UNL     1      -8.373  11.392  66.265  1.00  0.00     0.000 HD 
HETATM   20  C   UNL     1      -8.396  13.357  68.870  1.00  0.00     0.206 A  
HETATM   21  C   UNL     1      -8.494  14.715  69.190  1.00  0.00    -0.044 A  
HETATM   22  C   UNL     1      -8.775  15.258  66.874  1.00  0.00    -0.288 A  
HETATM   23  C   UNL     1      -8.471  12.964  67.541  1.00  0.00    -0.186 A  
HETATM   24  O   UNL     1      -8.322  11.660  67.175  1.00  0.00    -0.150 OA 
HETATM   25  C   UNL     1      -8.680  13.901  66.542  1.00  0.00     0.066 A  
ENDBRANCH  17  18
BRANCH  14  26
HETATM   26  C   UNL     1      -7.829  18.713  66.473  1.00  0.00    -0.268 A  
HETATM   27  C   UNL     1      -7.398  20.103  64.522  1.00  0.00     0.805 A  
HETATM   28  F   UNL     1      -5.225  20.189  63.623  1.00  0.00    -0.170 F  
HETATM   29  C   UNL     1      -8.276  19.599  65.482  1.00  0.00     0.315 A  
HETATM   30  C   UNL     1      -5.598  18.848  65.530  1.00  0.00    -0.214 A  
HETATM   31  C   UNL     1      -6.068  19.717  64.551  1.00  0.00    -0.261 A  
HETATM   32  C   UNL     1      -6.478  18.349  66.498  1.00  0.00    -0.223 A  
ENDBRANCH  14  26
ENDBRANCH  12  13
ENDBRANCH  11  12
ENDBRANCH   3  11
TORSDOF 6
ENDMDL
MODEL      212
REMARK 921   NORMALIZED FREE ENERGY PREDICTED BY IDOCK:   10.32 KCAL/MOL
REMARK 922        TOTAL FREE ENERGY PREDICTED BY IDOCK:   12.13 KCAL/MOL
REMARK 923 INTER-LIGAND FREE ENERGY PREDICTED BY IDOCK:    5.59 KCAL/MOL
REMARK 924 INTRA-LIGAND FREE ENERGY PREDICTED BY IDOCK:    6.54 KCAL/MOL
REMARK 927      BINDING AFFINITY PREDICTED BY RF-SCORE:    0.00 PKD
ROOT
HETATM    1  O   UNL     1      -7.794   3.601  73.340  1.00  0.00    -0.072 OA 
HETATM    2  H   UNL     1      -8.240   2.832  73.672  1.00  0.00     0.000 HD 
HETATM    3  C   UNL     1      -8.715   4.423  72.627  1.00  0.00    -0.109 C  
ENDROOT
BRANCH   3   4
HETATM    4  C   UNL     1      -9.415   3.624  71.549  1.00  0.00    -0.220 A  
HETATM    5  C   UNL     1      -9.873   2.317  71.790  1.00  0.00    -0.222 A  
HETATM    6  C   UNL     1      -9.612   4.186  70.275  1.00  0.00    -0.269 A  
HETATM    7  C   UNL     1     -10.538   1.601  70.795  1.00  0.00     1.123 A  
HETATM    8  F   UNL     1     -11.400   1.509  68.604  1.00  0.00     3.294 F  
HETATM    9  C   UNL     1     -10.281   3.470  69.282  1.00  0.00     0.979 A  
HETATM   10  C   UNL     1     -10.743   2.187  69.553  1.00  0.00     3.324 A  
ENDBRANCH   3   4
BRANCH   3  11
HETATM   11  C   UNL     1      -7.996   5.663  72.092  1.00  0.00    -0.107 C  
BRANCH  11  12
HETATM   12  C   UNL     1      -6.871   5.378  71.081  1.00  0.00    -0.052 C  
BRANCH  12  13
HETATM   13  C   UNL     1      -7.436   5.519  69.670  1.00  0.00    -0.070 C  
HETATM   14  N   UNL     1      -8.193   7.349  69.059  1.00  0.00    -0.127 N  
HETATM   15  O   UNL     1      -9.885   6.054  70.072  1.00  0.00    -0.164 OA 
HETATM   16  C   UNL     1      -8.779   6.273  69.641  1.00  0.00    -0.136 C  
HETATM   17  C   UNL     1      -6.933   6.674  68.721  1.00  0.00    -0.080 C  
BRANCH  17  18
HETATM   18  C   UNL     1      -6.725   6.180  67.207  1.00  0.00    -0.061 A  
HETATM   19  H   UNL     1      -7.066   4.115  62.949  1.00  0.00     0.000 HD 
HETATM   20  C   UNL     1      -6.266   6.654  64.836  1.00  0.00    -0.038 A  
HETATM   21  C   UNL     1      -6.275   7.037  66.181  1.00  0.00    -0.039 A  
HETATM   22  C   UNL     1      -7.115   4.884  66.807  1.00  0.00    -0.068 A  
HETATM   23  C   UNL     1      -6.703   5.384  64.488  1.00  0.00    -0.047 A  
HETATM   24  O   UNL     1      -6.767   4.984  63.187  1.00  0.00    -0.029 OA 
HETATM   25  C   UNL     1      -7.108   4.488  65.464  1.00  0.00    -0.067 A  
ENDBRANCH  17  18
BRANCH  14  26
HETATM   26  C   UNL     1      -8.625   8.664  68.914  1.00  0.00    -0.130 A  
HETATM   27  C   UNL     1      -8.260  10.903  68.033  1.00  0.00    -0.121 A  
HETATM   28  F   UNL     1      -9.862  12.578  68.440  1.00  0.00    -0.212 F  
HETATM   29  C   UNL     1      -7.842   9.582  68.199  1.00  0.00    -0.083 A  
HETATM   30  C   UNL     1     -10.262  10.413  69.290  1.00  0.00    -0.248 A  
HETATM   31  C   UNL     1      -9.464  11.308  68.586  1.00  0.00    -0.175 A  
HETATM   32  C   UNL     1      -9.847   9.086  69.449  1.00  0.00    -0.183 A  
ENDBRANCH  14  26
ENDBRANCH  12  13
ENDBRANCH  11  12
ENDBRANCH   3  11
TORSDOF 6
ENDMDL
MODEL      213
REMARK 921   NORMALIZED FREE ENERGY PREDICTED BY IDOCK:   16.37 KCAL/MOL
REMARK 922        TOTAL FREE ENERGY PREDICTED BY IDOCK:   20.31 KCAL/MOL
REMARK 923 INTER-LIGAND FREE ENERGY PREDICTED BY IDOCK:    3.63 KCAL/MOL
REMARK 924 INTRA-LIGAND FREE ENERGY PREDICTED BY IDOCK:   16.68 KCAL/MOL
REMARK 927      BINDING AFFINITY PREDICTED BY RF-SCORE:    0.00 PKD
ROOT
HETATM    1  O   UNL     1      -5.302  19.701  69.351  1.00  0.00    -0.188 OA 
HETATM    2  H   UNL     1      -5.604  20.585  69.519  1.00  0.00     0.000 HD 
HETATM    3  C   UNL     1      -6.177  19.061  68.424  1.00  0.00    -0.222 C  
ENDROOT
BRANCH   3   4
HETATM    4  C   UNL     1      -7.607  19.122  68.917  1.00  0.00    -0.371 A  
HETATM    5  C   UNL     1      -8.012  18.432  70.071  1.00  0.00     1.603 A  
HETATM    6  C   UNL     1      -8.560  19.878  68.210  1.00  0.00    -0.259 A  
HETATM    7  C   UNL     1      -9.327  18.517  70.527  1.00  0.00     2.997 A  
HETATM    8  F   UNL     1     -11.501  19.390  70.276  1.00  0.00     2.895 F  
HETATM    9  C   UNL     1      -9.875  19.966  68.670  1.00  0.00    -0.438 A  
HETATM   10  C   UNL     1     -10.244  19.290  69.827  1.00  0.00     0.530 A  
ENDBRANCH   3   4
BRANCH   3  11
HETATM   11  C   UNL     1      -5.690  17.635  68.152  1.00  0.00    -0.155 C  
BRANCH  11  12
HETATM   12  C   UNL     1      -6.607  16.795  67.246  1.00  0.00    -0.206 C  
BRANCH  12  13
HETATM   13  C   UNL     1      -8.043  16.929  67.747  1.00  0.00    -0.188 C  
HETATM   14  N   UNL     1      -9.536  15.797  66.862  1.00  0.00    -0.224 N  
HETATM   15  O   UNL     1      -9.283  17.853  65.734  1.00  0.00    -0.498 OA 
HETATM   16  C   UNL     1      -9.065  17.042  66.600  1.00  0.00    -0.254 C  
HETATM   17  C   UNL     1      -8.866  15.648  68.160  1.00  0.00    -0.174 C  
BRANCH  17  18
HETATM   18  C   UNL     1      -9.737  15.880  69.490  1.00  0.00    -0.255 A  
HETATM   19  H   UNL     1     -12.689  17.485  72.840  1.00  0.00     0.000 HD 
HETATM   20  C   UNL     1     -11.230  15.034  71.255  1.00  0.00    -0.265 A  
HETATM   21  C   UNL     1     -10.329  14.818  70.207  1.00  0.00     0.222 A  
HETATM   22  C   UNL     1     -10.062  17.182  69.927  1.00  0.00     0.391 A  
HETATM   23  C   UNL     1     -11.552  16.334  71.617  1.00  0.00    -0.362 A  
HETATM   24  O   UNL     1     -12.468  16.595  72.592  1.00  0.00    -0.175 OA 
HETATM   25  C   UNL     1     -10.961  17.410  70.977  1.00  0.00     1.526 A  
ENDBRANCH  17  18
BRANCH  14  26
HETATM   26  C   UNL     1     -10.322  14.934  66.106  1.00  0.00    -0.301 A  
HETATM   27  C   UNL     1     -10.543  13.411  64.220  1.00  0.00    -0.358 A  
HETATM   28  F   UNL     1     -12.606  12.348  63.829  1.00  0.00    -0.504 F  
HETATM   29  C   UNL     1      -9.776  14.288  64.987  1.00  0.00     0.130 A  
HETATM   30  C   UNL     1     -12.424  13.800  65.682  1.00  0.00    -0.541 A  
HETATM   31  C   UNL     1     -11.863  13.180  64.570  1.00  0.00    -0.377 A  
HETATM   32  C   UNL     1     -11.652  14.674  66.456  1.00  0.00    -0.350 A  
ENDBRANCH  14  26
ENDBRANCH  12  13
ENDBRANCH  11  12
ENDBRANCH   3  11
TORSDOF 6
ENDMDL
