MODEL        1
REMARK 921   NORMALIZED FREE ENERGY PREDICTED BY IDOCK:   -6.55 KCAL/MOL
REMARK 922        TOTAL FREE ENERGY PREDICTED BY IDOCK:   -9.56 KCAL/MOL
REMARK 923 INTER-LIGAND FREE ENERGY PREDICTED BY IDOCK:   -8.85 KCAL/MOL
REMARK 924 INTRA-LIGAND FREE ENERGY PREDICTED BY IDOCK:   -0.71 KCAL/MOL
REMARK 927      BINDING AFFINITY PREDICTED BY RF-SCORE:    0.00 PKD
ROOT
HETATM    1  C   UNL     1      -9.957   4.454  70.807  1.00  0.00    -0.247 C  
HETATM    2  C   UNL     1      -9.844   4.563  72.318  1.00  0.00    -0.170 C  
ENDROOT
BRANCH   2   3
HETATM    3  O   UNL     1     -11.092   5.064  72.815  1.00  0.00    -0.247 OA 
BRANCH   3   4
HETATM    4  C   UNL     1     -11.134   6.397  73.063  1.00  0.00    -0.200 C  
HETATM    5  O   UNL     1     -10.348   6.999  73.783  1.00  0.00    -0.339 OA 
HETATM    6  N   UNL     1     -12.098   6.933  72.257  1.00  0.00    -0.482 N  
HETATM    7  H   UNL     1     -12.877   6.344  71.961  1.00  0.00     0.000 HD 
BRANCH   6   8
HETATM    8  C   UNL     1     -12.051   8.274  71.819  1.00  0.00    -0.319 A  
HETATM    9  C   UNL     1     -12.940   9.270  72.261  1.00  0.00    -0.412 A  
HETATM   10  C   UNL     1     -12.804  10.563  71.728  1.00  0.00    -0.559 A  
HETATM   11  N   UNL     1     -14.112   8.952  72.981  1.00  0.00    -1.139 NA 
HETATM   12  H2  UNL     1     -13.839   8.394  73.791  1.00  0.00     0.000 HD 
HETATM   13  C   UNL     1     -11.784  10.892  70.823  1.00  0.00    -0.252 A  
HETATM   14  H1  UNL     1     -14.757   9.675  73.303  1.00  0.00     0.000 HD 
HETATM   15  C   UNL     1     -11.028   8.591  70.921  1.00  0.00    -0.292 A  
HETATM   16  C   UNL     1     -10.874   9.898  70.462  1.00  0.00    -0.391 A  
BRANCH  13  17
HETATM   17  N   UNL     1     -11.695  12.221  70.377  1.00  0.00    -0.534 NA 
HETATM   18  H   UNL     1     -10.853  12.575  69.924  1.00  0.00     0.000 HD 
BRANCH  17  19
HETATM   19  C   UNL     1     -12.862  13.072  70.589  1.00  0.00    -0.008 C  
BRANCH  19  20
HETATM   20  C   UNL     1     -12.571  14.198  71.556  1.00  0.00    -0.434 A  
HETATM   21  C   UNL     1     -11.791  15.286  71.123  1.00  0.00    -0.399 A  
HETATM   22  C   UNL     1     -11.560  16.374  71.965  1.00  0.00    -0.339 A  
HETATM   23  C   UNL     1     -12.113  16.382  73.240  1.00  0.00    -0.457 A  
HETATM   24  C   UNL     1     -12.903  15.331  73.683  1.00  0.00    -0.662 A  
HETATM   25  F   UNL     1     -11.890  17.429  74.046  1.00  0.00    -0.383 F  
HETATM   26  C   UNL     1     -13.142  14.244  72.841  1.00  0.00    -0.589 A  
ENDBRANCH  19  20
ENDBRANCH  17  19
ENDBRANCH  13  17
ENDBRANCH   6   8
ENDBRANCH   3   4
ENDBRANCH   2   3
TORSDOF 6
ENDMDL
MODEL        2
REMARK 921   NORMALIZED FREE ENERGY PREDICTED BY IDOCK:   -6.39 KCAL/MOL
REMARK 922        TOTAL FREE ENERGY PREDICTED BY IDOCK:   -9.34 KCAL/MOL
REMARK 923 INTER-LIGAND FREE ENERGY PREDICTED BY IDOCK:   -8.65 KCAL/MOL
REMARK 924 INTRA-LIGAND FREE ENERGY PREDICTED BY IDOCK:   -0.69 KCAL/MOL
REMARK 927      BINDING AFFINITY PREDICTED BY RF-SCORE:    0.00 PKD
ROOT
HETATM    1  C   UNL     1      -7.670  20.421  67.227  1.00  0.00    -0.372 C  
HETATM    2  C   UNL     1      -8.055  19.741  65.924  1.00  0.00    -0.252 C  
ENDROOT
BRANCH   2   3
HETATM    3  O   UNL     1      -9.482  19.614  65.902  1.00  0.00    -0.378 OA 
BRANCH   3   4
HETATM    4  C   UNL     1      -9.993  18.581  66.619  1.00  0.00    -0.372 C  
HETATM    5  O   UNL     1     -10.888  18.679  67.446  1.00  0.00    -0.439 OA 
HETATM    6  N   UNL     1      -9.433  17.432  66.134  1.00  0.00    -0.213 N  
HETATM    7  H   UNL     1      -8.508  17.478  65.705  1.00  0.00     0.000 HD 
BRANCH   6   8
HETATM    8  C   UNL     1     -10.090  16.186  66.209  1.00  0.00    -0.321 A  
HETATM    9  C   UNL     1     -10.937  15.689  65.202  1.00  0.00    -0.398 A  
HETATM   10  C   UNL     1     -11.552  14.443  65.409  1.00  0.00    -0.347 A  
HETATM   11  N   UNL     1     -11.402  16.511  64.153  1.00  0.00    -1.452 NA 
HETATM   12  H2  UNL     1     -10.590  16.930  63.700  1.00  0.00     0.000 HD 
HETATM   13  C   UNL     1     -11.301  13.669  66.552  1.00  0.00    -0.319 A  
HETATM   14  H1  UNL     1     -12.017  16.150  63.422  1.00  0.00     0.000 HD 
HETATM   15  C   UNL     1      -9.829  15.422  67.350  1.00  0.00    -0.216 A  
HETATM   16  C   UNL     1     -10.399  14.158  67.497  1.00  0.00    -0.248 A  
BRANCH  13  17
HETATM   17  N   UNL     1     -11.924  12.415  66.654  1.00  0.00    -0.596 NA 
HETATM   18  H   UNL     1     -12.934  12.312  66.550  1.00  0.00     0.000 HD 
BRANCH  17  19
HETATM   19  C   UNL     1     -11.065  11.265  66.917  1.00  0.00    -0.275 C  
BRANCH  19  20
HETATM   20  C   UNL     1     -11.272  10.712  68.310  1.00  0.00    -0.362 A  
HETATM   21  C   UNL     1     -10.565   9.561  68.700  1.00  0.00    -0.239 A  
HETATM   22  C   UNL     1     -10.679   9.063  69.999  1.00  0.00    -0.247 A  
HETATM   23  C   UNL     1     -11.493   9.719  70.914  1.00  0.00    -0.369 A  
HETATM   24  C   UNL     1     -12.184  10.869  70.559  1.00  0.00    -0.459 A  
HETATM   25  F   UNL     1     -11.600   9.239  72.161  1.00  0.00    -0.420 F  
HETATM   26  C   UNL     1     -12.067  11.373  69.264  1.00  0.00    -0.356 A  
ENDBRANCH  19  20
ENDBRANCH  17  19
ENDBRANCH  13  17
ENDBRANCH   6   8
ENDBRANCH   3   4
ENDBRANCH   2   3
TORSDOF 6
ENDMDL
MODEL        3
REMARK 921   NORMALIZED FREE ENERGY PREDICTED BY IDOCK:   -6.37 KCAL/MOL
REMARK 922        TOTAL FREE ENERGY PREDICTED BY IDOCK:   -9.31 KCAL/MOL
REMARK 923 INTER-LIGAND FREE ENERGY PREDICTED BY IDOCK:   -8.55 KCAL/MOL
REMARK 924 INTRA-LIGAND FREE ENERGY PREDICTED BY IDOCK:   -0.76 KCAL/MOL
REMARK 927      BINDING AFFINITY PREDICTED BY RF-SCORE:    0.00 PKD
ROOT
HETATM    1  C   UNL     1     -10.570  11.977  63.484  1.00  0.00    -0.514 C  
HETATM    2  C   UNL     1     -11.940  12.621  63.362  1.00  0.00    -0.528 C  
ENDROOT
BRANCH   2   3
HETATM    3  O   UNL     1     -11.872  13.914  63.977  1.00  0.00    -0.401 OA 
BRANCH   3   4
HETATM    4  C   UNL     1     -12.435  14.010  65.209  1.00  0.00    -0.475 C  
HETATM    5  O   UNL     1     -13.638  13.980  65.432  1.00  0.00    -0.593 OA 
HETATM    6  N   UNL     1     -11.421  13.992  66.124  1.00  0.00    -0.335 N  
HETATM    7  H   UNL     1     -10.500  14.334  65.846  1.00  0.00     0.000 HD 
BRANCH   6   8
HETATM    8  C   UNL     1     -11.603  13.515  67.440  1.00  0.00    -0.356 A  
HETATM    9  C   UNL     1     -11.933  14.340  68.529  1.00  0.00    -0.317 A  
HETATM   10  C   UNL     1     -12.062  13.745  69.796  1.00  0.00    -0.400 A  
HETATM   11  N   UNL     1     -11.853  15.747  68.445  1.00  0.00    -0.438 NA 
HETATM   12  H2  UNL     1     -12.413  16.045  67.646  1.00  0.00     0.000 HD 
HETATM   13  C   UNL     1     -11.929  12.362  69.985  1.00  0.00    -0.299 A  
HETATM   14  H1  UNL     1     -12.092  16.346  69.236  1.00  0.00     0.000 HD 
HETATM   15  C   UNL     1     -11.472  12.135  67.616  1.00  0.00    -0.399 A  
HETATM   16  C   UNL     1     -11.675  11.562  68.870  1.00  0.00    -0.403 A  
BRANCH  13  17
HETATM   17  N   UNL     1     -12.120  11.848  71.278  1.00  0.00    -0.143 NA 
HETATM   18  H   UNL     1     -11.516  12.121  72.054  1.00  0.00     0.000 HD 
BRANCH  17  19
HETATM   19  C   UNL     1     -13.218  10.905  71.463  1.00  0.00    -0.319 C  
BRANCH  19  20
HETATM   20  C   UNL     1     -12.722   9.486  71.631  1.00  0.00    -0.478 A  
HETATM   21  C   UNL     1     -13.651   8.429  71.604  1.00  0.00    -0.380 A  
HETATM   22  C   UNL     1     -13.222   7.104  71.689  1.00  0.00    -0.403 A  
HETATM   23  C   UNL     1     -11.863   6.830  71.792  1.00  0.00    -0.330 A  
HETATM   24  C   UNL     1     -10.927   7.854  71.799  1.00  0.00    -0.290 A  
HETATM   25  F   UNL     1     -11.455   5.556  71.871  1.00  0.00    -0.296 F  
HETATM   26  C   UNL     1     -11.351   9.179  71.708  1.00  0.00    -0.451 A  
ENDBRANCH  19  20
ENDBRANCH  17  19
ENDBRANCH  13  17
ENDBRANCH   6   8
ENDBRANCH   3   4
ENDBRANCH   2   3
TORSDOF 6
ENDMDL
MODEL        4
REMARK 921   NORMALIZED FREE ENERGY PREDICTED BY IDOCK:   -6.36 KCAL/MOL
REMARK 922        TOTAL FREE ENERGY PREDICTED BY IDOCK:   -9.30 KCAL/MOL
REMARK 923 INTER-LIGAND FREE ENERGY PREDICTED BY IDOCK:   -8.87 KCAL/MOL
REMARK 924 INTRA-LIGAND FREE ENERGY PREDICTED BY IDOCK:   -0.43 KCAL/MOL
REMARK 927      BINDING AFFINITY PREDICTED BY RF-SCORE:    0.00 PKD
ROOT
HETATM    1  C   UNL     1      -9.081  11.060  62.684  1.00  0.00    -0.375 C  
HETATM    2  C   UNL     1     -10.294  10.758  63.548  1.00  0.00    -0.163 C  
ENDROOT
BRANCH   2   3
HETATM    3  O   UNL     1     -11.378  11.570  63.079  1.00  0.00    -0.118 OA 
BRANCH   3   4
HETATM    4  C   UNL     1     -11.753  12.583  63.902  1.00  0.00    -0.452 C  
HETATM    5  O   UNL     1     -12.791  12.610  64.549  1.00  0.00    -0.706 OA 
HETATM    6  N   UNL     1     -10.706  13.457  63.977  1.00  0.00    -0.541 N  
HETATM    7  H   UNL     1     -10.058  13.519  63.191  1.00  0.00     0.000 HD 
BRANCH   6   8
HETATM    8  C   UNL     1     -10.490  14.277  65.105  1.00  0.00    -0.411 A  
HETATM    9  C   UNL     1     -10.943  15.604  65.203  1.00  0.00    -0.398 A  
HETATM   10  C   UNL     1     -10.640  16.323  66.371  1.00  0.00    -0.253 A  
HETATM   11  N   UNL     1     -11.426  16.308  64.078  1.00  0.00    -1.521 NA 
HETATM   12  H2  UNL     1     -12.171  15.752  63.658  1.00  0.00     0.000 HD 
HETATM   13  C   UNL     1      -9.957  15.740  67.449  1.00  0.00    -0.237 A  
HETATM   14  H1  UNL     1     -11.755  17.271  64.149  1.00  0.00     0.000 HD 
HETATM   15  C   UNL     1      -9.811  13.684  66.174  1.00  0.00    -0.304 A  
HETATM   16  C   UNL     1      -9.585  14.399  67.349  1.00  0.00    -0.216 A  
BRANCH  13  17
HETATM   17  N   UNL     1      -9.737  16.519  68.596  1.00  0.00    -0.237 NA 
HETATM   18  H   UNL     1      -8.794  16.737  68.919  1.00  0.00     0.000 HD 
BRANCH  17  19
HETATM   19  C   UNL     1     -10.917  17.005  69.305  1.00  0.00    -0.008 C  
BRANCH  19  20
HETATM   20  C   UNL     1     -11.508  15.947  70.208  1.00  0.00    -0.376 A  
HETATM   21  C   UNL     1     -11.583  16.192  71.592  1.00  0.00    -0.503 A  
HETATM   22  C   UNL     1     -12.184  15.267  72.446  1.00  0.00    -0.471 A  
HETATM   23  C   UNL     1     -12.720  14.097  71.920  1.00  0.00    -0.320 A  
HETATM   24  C   UNL     1     -12.678  13.842  70.557  1.00  0.00    -0.318 A  
HETATM   25  F   UNL     1     -13.298  13.212  72.743  1.00  0.00    -0.594 F  
HETATM   26  C   UNL     1     -12.083  14.768  69.699  1.00  0.00    -0.346 A  
ENDBRANCH  19  20
ENDBRANCH  17  19
ENDBRANCH  13  17
ENDBRANCH   6   8
ENDBRANCH   3   4
ENDBRANCH   2   3
TORSDOF 6
ENDMDL
MODEL        5
REMARK 921   NORMALIZED FREE ENERGY PREDICTED BY IDOCK:   -6.35 KCAL/MOL
REMARK 922        TOTAL FREE ENERGY PREDICTED BY IDOCK:   -9.29 KCAL/MOL
REMARK 923 INTER-LIGAND FREE ENERGY PREDICTED BY IDOCK:   -8.98 KCAL/MOL
REMARK 924 INTRA-LIGAND FREE ENERGY PREDICTED BY IDOCK:   -0.31 KCAL/MOL
REMARK 927      BINDING AFFINITY PREDICTED BY RF-SCORE:    0.00 PKD
ROOT
HETATM    1  C   UNL     1     -11.241   2.993  73.542  1.00  0.00    -0.293 C  
HETATM    2  C   UNL     1     -10.973   4.476  73.737  1.00  0.00    -0.286 C  
ENDROOT
BRANCH   2   3
HETATM    3  O   UNL     1     -11.987   5.201  73.028  1.00  0.00    -0.231 OA 
BRANCH   3   4
HETATM    4  C   UNL     1     -11.538   6.136  72.153  1.00  0.00    -0.317 C  
HETATM    5  O   UNL     1     -11.215   5.912  70.995  1.00  0.00    -0.279 OA 
HETATM    6  N   UNL     1     -11.665   7.355  72.758  1.00  0.00    -0.560 N  
HETATM    7  H   UNL     1     -11.628   7.406  73.777  1.00  0.00     0.000 HD 
BRANCH   6   8
HETATM    8  C   UNL     1     -11.845   8.545  72.021  1.00  0.00    -0.362 A  
HETATM    9  C   UNL     1     -12.962   9.387  72.162  1.00  0.00    -0.421 A  
HETATM   10  C   UNL     1     -13.036  10.531  71.350  1.00  0.00    -0.542 A  
HETATM   11  N   UNL     1     -14.118   8.976  72.862  1.00  0.00    -1.110 NA 
HETATM   12  H2  UNL     1     -13.829   8.681  73.795  1.00  0.00     0.000 HD 
HETATM   13  C   UNL     1     -12.009  10.879  70.459  1.00  0.00    -0.371 A  
HETATM   14  H1  UNL     1     -14.928   9.588  72.965  1.00  0.00     0.000 HD 
HETATM   15  C   UNL     1     -10.815   8.883  71.139  1.00  0.00    -0.352 A  
HETATM   16  C   UNL     1     -10.881  10.061  70.397  1.00  0.00    -0.380 A  
BRANCH  13  17
HETATM   17  N   UNL     1     -12.146  12.065  69.719  1.00  0.00    -0.278 NA 
HETATM   18  H   UNL     1     -13.003  12.618  69.752  1.00  0.00     0.000 HD 
BRANCH  17  19
HETATM   19  C   UNL     1     -11.008  12.473  68.901  1.00  0.00    -0.227 C  
BRANCH  19  20
HETATM   20  C   UNL     1     -11.379  12.602  67.441  1.00  0.00    -0.367 A  
HETATM   21  C   UNL     1     -12.118  13.723  67.020  1.00  0.00    -0.436 A  
HETATM   22  C   UNL     1     -12.419  13.909  65.671  1.00  0.00    -0.538 A  
HETATM   23  C   UNL     1     -11.977  12.980  64.736  1.00  0.00    -0.395 A  
HETATM   24  C   UNL     1     -11.229  11.878  65.124  1.00  0.00    -0.346 A  
HETATM   25  F   UNL     1     -12.267  13.163  63.441  1.00  0.00    -0.539 F  
HETATM   26  C   UNL     1     -10.920  11.692  66.472  1.00  0.00    -0.349 A  
ENDBRANCH  19  20
ENDBRANCH  17  19
ENDBRANCH  13  17
ENDBRANCH   6   8
ENDBRANCH   3   4
ENDBRANCH   2   3
TORSDOF 6
ENDMDL
MODEL        6
REMARK 921   NORMALIZED FREE ENERGY PREDICTED BY IDOCK:   -6.33 KCAL/MOL
REMARK 922        TOTAL FREE ENERGY PREDICTED BY IDOCK:   -9.26 KCAL/MOL
REMARK 923 INTER-LIGAND FREE ENERGY PREDICTED BY IDOCK:   -8.83 KCAL/MOL
REMARK 924 INTRA-LIGAND FREE ENERGY PREDICTED BY IDOCK:   -0.43 KCAL/MOL
REMARK 927      BINDING AFFINITY PREDICTED BY RF-SCORE:    0.00 PKD
ROOT
HETATM    1  C   UNL     1      -9.796   4.167  71.822  1.00  0.00    -0.252 C  
HETATM    2  C   UNL     1     -10.893   4.910  72.565  1.00  0.00    -0.170 C  
ENDROOT
BRANCH   2   3
HETATM    3  O   UNL     1     -10.276   5.662  73.618  1.00  0.00    -0.185 OA 
BRANCH   3   4
HETATM    4  C   UNL     1     -10.412   7.010  73.535  1.00  0.00    -0.375 C  
HETATM    5  O   UNL     1      -9.537   7.819  73.813  1.00  0.00    -0.288 OA 
HETATM    6  N   UNL     1     -11.622   7.264  72.953  1.00  0.00    -0.563 N  
HETATM    7  H   UNL     1     -12.373   6.582  73.061  1.00  0.00     0.000 HD 
BRANCH   6   8
HETATM    8  C   UNL     1     -11.867   8.437  72.209  1.00  0.00    -0.389 A  
HETATM    9  C   UNL     1     -12.975   9.276  72.418  1.00  0.00    -0.377 A  
HETATM   10  C   UNL     1     -13.119  10.403  71.591  1.00  0.00    -0.553 A  
HETATM   11  N   UNL     1     -14.070   8.874  73.214  1.00  0.00    -1.248 NA 
HETATM   12  H2  UNL     1     -13.708   8.600  74.128  1.00  0.00     0.000 HD 
HETATM   13  C   UNL     1     -12.168  10.737  70.616  1.00  0.00    -0.379 A  
HETATM   14  H1  UNL     1     -14.875   9.483  73.366  1.00  0.00     0.000 HD 
HETATM   15  C   UNL     1     -10.910   8.762  71.243  1.00  0.00    -0.347 A  
HETATM   16  C   UNL     1     -11.042   9.924  70.484  1.00  0.00    -0.398 A  
BRANCH  13  17
HETATM   17  N   UNL     1     -12.369  11.907  69.865  1.00  0.00    -0.155 NA 
HETATM   18  H   UNL     1     -13.284  12.355  69.812  1.00  0.00     0.000 HD 
BRANCH  17  19
HETATM   19  C   UNL     1     -11.212  12.453  69.163  1.00  0.00    -0.236 C  
BRANCH  19  20
HETATM   20  C   UNL     1     -11.498  12.685  67.697  1.00  0.00    -0.390 A  
HETATM   21  C   UNL     1     -11.993  13.936  67.286  1.00  0.00    -0.446 A  
HETATM   22  C   UNL     1     -12.204  14.207  65.934  1.00  0.00    -0.458 A  
HETATM   23  C   UNL     1     -11.914  13.233  64.986  1.00  0.00    -0.371 A  
HETATM   24  C   UNL     1     -11.405  11.999  65.365  1.00  0.00    -0.375 A  
HETATM   25  F   UNL     1     -12.116  13.497  63.689  1.00  0.00    -0.485 F  
HETATM   26  C   UNL     1     -11.186  11.726  66.716  1.00  0.00    -0.388 A  
ENDBRANCH  19  20
ENDBRANCH  17  19
ENDBRANCH  13  17
ENDBRANCH   6   8
ENDBRANCH   3   4
ENDBRANCH   2   3
TORSDOF 6
ENDMDL
MODEL        7
REMARK 921   NORMALIZED FREE ENERGY PREDICTED BY IDOCK:   -6.33 KCAL/MOL
REMARK 922        TOTAL FREE ENERGY PREDICTED BY IDOCK:   -9.25 KCAL/MOL
REMARK 923 INTER-LIGAND FREE ENERGY PREDICTED BY IDOCK:   -8.87 KCAL/MOL
REMARK 924 INTRA-LIGAND FREE ENERGY PREDICTED BY IDOCK:   -0.38 KCAL/MOL
REMARK 927      BINDING AFFINITY PREDICTED BY RF-SCORE:    0.00 PKD
ROOT
HETATM    1  C   UNL     1     -10.051   4.266  72.048  1.00  0.00    -0.244 C  
HETATM    2  C   UNL     1     -11.084   5.030  72.859  1.00  0.00    -0.279 C  
ENDROOT
BRANCH   2   3
HETATM    3  O   UNL     1     -10.380   5.865  73.788  1.00  0.00    -0.221 OA 
BRANCH   3   4
HETATM    4  C   UNL     1     -10.440   7.199  73.541  1.00  0.00    -0.380 C  
HETATM    5  O   UNL     1      -9.509   7.979  73.689  1.00  0.00    -0.259 OA 
HETATM    6  N   UNL     1     -11.653   7.455  72.969  1.00  0.00    -0.597 N  
HETATM    7  H   UNL     1     -12.439   6.840  73.183  1.00  0.00     0.000 HD 
BRANCH   6   8
HETATM    8  C   UNL     1     -11.857   8.541  72.091  1.00  0.00    -0.379 A  
HETATM    9  C   UNL     1     -12.924   9.449  72.209  1.00  0.00    -0.400 A  
HETATM   10  C   UNL     1     -13.030  10.475  71.254  1.00  0.00    -0.532 A  
HETATM   11  N   UNL     1     -14.023   9.196  73.058  1.00  0.00    -1.110 NA 
HETATM   12  H2  UNL     1     -13.660   9.016  73.994  1.00  0.00     0.000 HD 
HETATM   13  C   UNL     1     -12.078  10.646  70.237  1.00  0.00    -0.338 A  
HETATM   14  H1  UNL     1     -14.798   9.855  73.144  1.00  0.00     0.000 HD 
HETATM   15  C   UNL     1     -10.901   8.704  71.084  1.00  0.00    -0.320 A  
HETATM   16  C   UNL     1     -10.992   9.772  70.193  1.00  0.00    -0.339 A  
BRANCH  13  17
HETATM   17  N   UNL     1     -12.238  11.726  69.354  1.00  0.00    -0.214 NA 
HETATM   18  H   UNL     1     -13.136  12.199  69.248  1.00  0.00     0.000 HD 
BRANCH  17  19
HETATM   19  C   UNL     1     -11.064  12.143  68.595  1.00  0.00    -0.251 C  
BRANCH  19  20
HETATM   20  C   UNL     1     -11.415  12.520  67.173  1.00  0.00    -0.414 A  
HETATM   21  C   UNL     1     -11.080  11.638  66.130  1.00  0.00    -0.335 A  
HETATM   22  C   UNL     1     -11.448  11.922  64.814  1.00  0.00    -0.323 A  
HETATM   23  C   UNL     1     -12.160  13.083  64.537  1.00  0.00    -0.410 A  
HETATM   24  C   UNL     1     -12.521  13.957  65.552  1.00  0.00    -0.541 A  
HETATM   25  F   UNL     1     -12.514  13.351  63.273  1.00  0.00    -0.553 F  
HETATM   26  C   UNL     1     -12.160  13.674  66.870  1.00  0.00    -0.431 A  
ENDBRANCH  19  20
ENDBRANCH  17  19
ENDBRANCH  13  17
ENDBRANCH   6   8
ENDBRANCH   3   4
ENDBRANCH   2   3
TORSDOF 6
ENDMDL
MODEL        8
REMARK 921   NORMALIZED FREE ENERGY PREDICTED BY IDOCK:   -6.30 KCAL/MOL
REMARK 922        TOTAL FREE ENERGY PREDICTED BY IDOCK:   -9.21 KCAL/MOL
REMARK 923 INTER-LIGAND FREE ENERGY PREDICTED BY IDOCK:   -8.55 KCAL/MOL
REMARK 924 INTRA-LIGAND FREE ENERGY PREDICTED BY IDOCK:   -0.66 KCAL/MOL
REMARK 927      BINDING AFFINITY PREDICTED BY RF-SCORE:    0.00 PKD
ROOT
HETATM    1  C   UNL     1      -9.884  19.989  66.770  1.00  0.00    -0.574 C  
HETATM    2  C   UNL     1     -10.346  18.544  66.836  1.00  0.00    -0.397 C  
ENDROOT
BRANCH   2   3
HETATM    3  O   UNL     1      -9.630  17.809  65.834  1.00  0.00    -0.517 OA 
BRANCH   3   4
HETATM    4  C   UNL     1      -9.412  16.498  66.109  1.00  0.00    -0.315 C  
HETATM    5  O   UNL     1      -8.397  16.052  66.628  1.00  0.00    -0.239 OA 
HETATM    6  N   UNL     1     -10.572  15.827  65.845  1.00  0.00    -0.329 N  
HETATM    7  H   UNL     1     -11.211  16.204  65.144  1.00  0.00     0.000 HD 
BRANCH   6   8
HETATM    8  C   UNL     1     -10.917  14.630  66.508  1.00  0.00    -0.318 A  
HETATM    9  C   UNL     1     -10.544  13.352  66.055  1.00  0.00    -0.287 A  
HETATM   10  C   UNL     1     -10.973  12.236  66.793  1.00  0.00    -0.321 A  
HETATM   11  N   UNL     1     -10.016  13.149  64.761  1.00  0.00    -0.578 NA 
HETATM   12  H2  UNL     1      -9.212  13.767  64.651  1.00  0.00     0.000 HD 
HETATM   13  C   UNL     1     -11.703  12.367  67.984  1.00  0.00    -0.356 A  
HETATM   14  H1  UNL     1      -9.745  12.221  64.432  1.00  0.00     0.000 HD 
HETATM   15  C   UNL     1     -11.641  14.773  67.695  1.00  0.00    -0.374 A  
HETATM   16  C   UNL     1     -11.993  13.652  68.445  1.00  0.00    -0.391 A  
BRANCH  13  17
HETATM   17  N   UNL     1     -12.051  11.199  68.681  1.00  0.00    -0.679 NA 
HETATM   18  H   UNL     1     -11.956  10.276  68.255  1.00  0.00     0.000 HD 
BRANCH  17  19
HETATM   19  C   UNL     1     -12.554  11.361  70.041  1.00  0.00    -0.059 C  
BRANCH  19  20
HETATM   20  C   UNL     1     -12.112  10.232  70.946  1.00  0.00    -0.468 A  
HETATM   21  C   UNL     1     -13.061   9.614  71.780  1.00  0.00    -0.514 A  
HETATM   22  C   UNL     1     -12.704   8.526  72.577  1.00  0.00    -0.329 A  
HETATM   23  C   UNL     1     -11.400   8.046  72.536  1.00  0.00    -0.406 A  
HETATM   24  C   UNL     1     -10.452   8.625  71.705  1.00  0.00    -0.394 A  
HETATM   25  F   UNL     1     -11.061   6.999  73.301  1.00  0.00    -0.300 F  
HETATM   26  C   UNL     1     -10.807   9.710  70.902  1.00  0.00    -0.409 A  
ENDBRANCH  19  20
ENDBRANCH  17  19
ENDBRANCH  13  17
ENDBRANCH   6   8
ENDBRANCH   3   4
ENDBRANCH   2   3
TORSDOF 6
ENDMDL
MODEL        9
REMARK 921   NORMALIZED FREE ENERGY PREDICTED BY IDOCK:   -6.29 KCAL/MOL
REMARK 922        TOTAL FREE ENERGY PREDICTED BY IDOCK:   -9.21 KCAL/MOL
REMARK 923 INTER-LIGAND FREE ENERGY PREDICTED BY IDOCK:   -8.49 KCAL/MOL
REMARK 924 INTRA-LIGAND FREE ENERGY PREDICTED BY IDOCK:   -0.71 KCAL/MOL
REMARK 927      BINDING AFFINITY PREDICTED BY RF-SCORE:    0.00 PKD
ROOT
HETATM    1  C   UNL     1     -10.829  19.130  67.213  1.00  0.00    -0.529 C  
HETATM    2  C   UNL     1     -10.239  18.898  65.832  1.00  0.00    -0.286 C  
ENDROOT
BRANCH   2   3
HETATM    3  O   UNL     1     -10.923  17.783  65.246  1.00  0.00    -0.557 OA 
BRANCH   3   4
HETATM    4  C   UNL     1     -10.312  16.579  65.385  1.00  0.00    -0.221 C  
HETATM    5  O   UNL     1      -9.145  16.422  65.719  1.00  0.00    -0.465 OA 
HETATM    6  N   UNL     1     -11.269  15.615  65.235  1.00  0.00    -0.278 N  
HETATM    7  H   UNL     1     -12.088  15.819  64.663  1.00  0.00     0.000 HD 
BRANCH   6   8
HETATM    8  C   UNL     1     -11.161  14.347  65.846  1.00  0.00    -0.324 A  
HETATM    9  C   UNL     1     -10.544  13.239  65.239  1.00  0.00    -0.315 A  
HETATM   10  C   UNL     1     -10.526  12.023  65.943  1.00  0.00    -0.290 A  
HETATM   11  N   UNL     1     -10.212  13.235  63.867  1.00  0.00    -0.735 NA 
HETATM   12  H2  UNL     1      -9.634  14.055  63.683  1.00  0.00     0.000 HD 
HETATM   13  C   UNL     1     -11.048  11.906  67.240  1.00  0.00    -0.288 A  
HETATM   14  H1  UNL     1      -9.764  12.431  63.426  1.00  0.00     0.000 HD 
HETATM   15  C   UNL     1     -11.682  14.243  67.139  1.00  0.00    -0.430 A  
HETATM   16  C   UNL     1     -11.588  13.043  67.842  1.00  0.00    -0.385 A  
BRANCH  13  17
HETATM   17  N   UNL     1     -10.946  10.663  67.886  1.00  0.00    -0.273 NA 
HETATM   18  H   UNL     1     -11.280   9.805  67.447  1.00  0.00     0.000 HD 
BRANCH  17  19
HETATM   19  C   UNL     1     -10.340  10.653  69.214  1.00  0.00    -0.218 C  
BRANCH  19  20
HETATM   20  C   UNL     1     -11.322  10.221  70.280  1.00  0.00    -0.398 A  
HETATM   21  C   UNL     1     -12.213  11.170  70.814  1.00  0.00    -0.484 A  
HETATM   22  C   UNL     1     -13.177  10.792  71.749  1.00  0.00    -0.523 A  
HETATM   23  C   UNL     1     -13.261   9.463  72.147  1.00  0.00    -0.460 A  
HETATM   24  C   UNL     1     -12.408   8.505  71.619  1.00  0.00    -0.371 A  
HETATM   25  F   UNL     1     -14.189   9.103  73.044  1.00  0.00    -0.385 F  
HETATM   26  C   UNL     1     -11.446   8.878  70.679  1.00  0.00    -0.280 A  
ENDBRANCH  19  20
ENDBRANCH  17  19
ENDBRANCH  13  17
ENDBRANCH   6   8
ENDBRANCH   3   4
ENDBRANCH   2   3
TORSDOF 6
ENDMDL
MODEL       10
REMARK 921   NORMALIZED FREE ENERGY PREDICTED BY IDOCK:   -6.25 KCAL/MOL
REMARK 922        TOTAL FREE ENERGY PREDICTED BY IDOCK:   -9.15 KCAL/MOL
REMARK 923 INTER-LIGAND FREE ENERGY PREDICTED BY IDOCK:   -8.56 KCAL/MOL
REMARK 924 INTRA-LIGAND FREE ENERGY PREDICTED BY IDOCK:   -0.59 KCAL/MOL
REMARK 927      BINDING AFFINITY PREDICTED BY RF-SCORE:    0.00 PKD
ROOT
HETATM    1  C   UNL     1     -10.079  19.778  66.186  1.00  0.00    -0.600 C  
HETATM    2  C   UNL     1     -10.197  18.375  66.756  1.00  0.00    -0.388 C  
ENDROOT
BRANCH   2   3
HETATM    3  O   UNL     1     -10.116  17.450  65.664  1.00  0.00    -0.566 OA 
BRANCH   3   4
HETATM    4  C   UNL     1      -9.841  16.164  66.001  1.00  0.00    -0.347 C  
HETATM    5  O   UNL     1      -8.773  15.774  66.453  1.00  0.00    -0.290 OA 
HETATM    6  N   UNL     1     -11.002  15.454  65.885  1.00  0.00    -0.318 N  
HETATM    7  H   UNL     1     -11.710  15.771  65.222  1.00  0.00     0.000 HD 
BRANCH   6   8
HETATM    8  C   UNL     1     -11.255  14.296  66.651  1.00  0.00    -0.334 A  
HETATM    9  C   UNL     1     -11.838  14.319  67.929  1.00  0.00    -0.358 A  
HETATM   10  C   UNL     1     -12.014  13.096  68.600  1.00  0.00    -0.319 A  
HETATM   11  N   UNL     1     -11.980  15.519  68.658  1.00  0.00    -0.556 NA 
HETATM   12  H2  UNL     1     -12.486  16.183  68.071  1.00  0.00     0.000 HD 
HETATM   13  C   UNL     1     -11.679  11.869  68.009  1.00  0.00    -0.312 A  
HETATM   14  H1  UNL     1     -12.404  15.536  69.587  1.00  0.00     0.000 HD 
HETATM   15  C   UNL     1     -10.920  13.078  66.051  1.00  0.00    -0.296 A  
HETATM   16  C   UNL     1     -11.170  11.876  66.710  1.00  0.00    -0.384 A  
BRANCH  13  17
HETATM   17  N   UNL     1     -11.930  10.693  68.735  1.00  0.00    -0.736 NA 
HETATM   18  H   UNL     1     -11.784   9.771  68.322  1.00  0.00     0.000 HD 
BRANCH  17  19
HETATM   19  C   UNL     1     -12.411  10.847  70.104  1.00  0.00    -0.322 C  
BRANCH  19  20
HETATM   20  C   UNL     1     -11.959   9.709  70.992  1.00  0.00    -0.427 A  
HETATM   21  C   UNL     1     -10.584   9.444  71.118  1.00  0.00    -0.403 A  
HETATM   22  C   UNL     1     -10.128   8.446  71.980  1.00  0.00    -0.364 A  
HETATM   23  C   UNL     1     -11.045   7.716  72.727  1.00  0.00    -0.383 A  
HETATM   24  C   UNL     1     -12.406   7.973  72.636  1.00  0.00    -0.165 A  
HETATM   25  F   UNL     1     -10.604   6.759  73.556  1.00  0.00    -0.257 F  
HETATM   26  C   UNL     1     -12.864   8.974  71.780  1.00  0.00    -0.437 A  
ENDBRANCH  19  20
ENDBRANCH  17  19
ENDBRANCH  13  17
ENDBRANCH   6   8
ENDBRANCH   3   4
ENDBRANCH   2   3
TORSDOF 6
ENDMDL
MODEL       11
REMARK 921   NORMALIZED FREE ENERGY PREDICTED BY IDOCK:   -6.23 KCAL/MOL
REMARK 922        TOTAL FREE ENERGY PREDICTED BY IDOCK:   -9.12 KCAL/MOL
REMARK 923 INTER-LIGAND FREE ENERGY PREDICTED BY IDOCK:   -8.47 KCAL/MOL
REMARK 924 INTRA-LIGAND FREE ENERGY PREDICTED BY IDOCK:   -0.65 KCAL/MOL
REMARK 927      BINDING AFFINITY PREDICTED BY RF-SCORE:    0.00 PKD
ROOT
HETATM    1  C   UNL     1     -10.473  19.828  66.008  1.00  0.00    -0.609 C  
HETATM    2  C   UNL     1      -9.813  18.526  66.428  1.00  0.00    -0.361 C  
ENDROOT
BRANCH   2   3
HETATM    3  O   UNL     1     -10.218  17.511  65.500  1.00  0.00    -0.608 OA 
BRANCH   3   4
HETATM    4  C   UNL     1      -9.828  16.247  65.803  1.00  0.00    -0.299 C  
HETATM    5  O   UNL     1      -8.794  15.956  66.390  1.00  0.00    -0.275 OA 
HETATM    6  N   UNL     1     -10.857  15.411  65.472  1.00  0.00    -0.356 N  
HETATM    7  H   UNL     1     -11.497  15.689  64.728  1.00  0.00     0.000 HD 
BRANCH   6   8
HETATM    8  C   UNL     1     -11.064  14.177  66.125  1.00  0.00    -0.312 A  
HETATM    9  C   UNL     1     -10.545  12.955  65.665  1.00  0.00    -0.277 A  
HETATM   10  C   UNL     1     -10.845  11.791  66.393  1.00  0.00    -0.325 A  
HETATM   11  N   UNL     1      -9.992  12.823  64.372  1.00  0.00    -0.593 NA 
HETATM   12  H2  UNL     1      -9.264  13.531  64.270  1.00  0.00     0.000 HD 
HETATM   13  C   UNL     1     -11.589  11.828  67.582  1.00  0.00    -0.294 A  
HETATM   14  H1  UNL     1      -9.615  11.935  64.038  1.00  0.00     0.000 HD 
HETATM   15  C   UNL     1     -11.804  14.227  67.310  1.00  0.00    -0.444 A  
HETATM   16  C   UNL     1     -12.027  13.067  68.050  1.00  0.00    -0.335 A  
BRANCH  13  17
HETATM   17  N   UNL     1     -11.803  10.622  68.269  1.00  0.00    -0.786 NA 
HETATM   18  H   UNL     1     -11.664   9.719  67.815  1.00  0.00     0.000 HD 
BRANCH  17  19
HETATM   19  C   UNL     1     -12.232  10.717  69.661  1.00  0.00    -0.254 C  
BRANCH  19  20
HETATM   20  C   UNL     1     -11.434   9.803  70.562  1.00  0.00    -0.370 A  
HETATM   21  C   UNL     1     -10.037   9.739  70.407  1.00  0.00    -0.313 A  
HETATM   22  C   UNL     1      -9.262   8.958  71.265  1.00  0.00    -0.328 A  
HETATM   23  C   UNL     1      -9.879   8.245  72.286  1.00  0.00    -0.294 A  
HETATM   24  C   UNL     1     -11.253   8.308  72.473  1.00  0.00    -0.446 A  
HETATM   25  F   UNL     1      -9.132   7.497  73.110  1.00  0.00    -0.155 F  
HETATM   26  C   UNL     1     -12.030   9.093  71.621  1.00  0.00    -0.437 A  
ENDBRANCH  19  20
ENDBRANCH  17  19
ENDBRANCH  13  17
ENDBRANCH   6   8
ENDBRANCH   3   4
ENDBRANCH   2   3
TORSDOF 6
ENDMDL
MODEL       12
REMARK 921   NORMALIZED FREE ENERGY PREDICTED BY IDOCK:   -6.10 KCAL/MOL
REMARK 922        TOTAL FREE ENERGY PREDICTED BY IDOCK:   -8.95 KCAL/MOL
REMARK 923 INTER-LIGAND FREE ENERGY PREDICTED BY IDOCK:   -8.44 KCAL/MOL
REMARK 924 INTRA-LIGAND FREE ENERGY PREDICTED BY IDOCK:   -0.51 KCAL/MOL
REMARK 927      BINDING AFFINITY PREDICTED BY RF-SCORE:    0.00 PKD
ROOT
HETATM    1  C   UNL     1     -10.690   5.842  71.420  1.00  0.00    -0.319 C  
HETATM    2  C   UNL     1     -11.294   6.806  70.413  1.00  0.00    -0.347 C  
ENDROOT
BRANCH   2   3
HETATM    3  O   UNL     1     -12.236   7.633  71.110  1.00  0.00    -0.312 OA 
BRANCH   3   4
HETATM    4  C   UNL     1     -11.838   8.910  71.343  1.00  0.00    -0.317 C  
HETATM    5  O   UNL     1     -10.756   9.229  71.816  1.00  0.00    -0.363 OA 
HETATM    6  N   UNL     1     -12.791   9.736  70.819  1.00  0.00    -0.537 N  
HETATM    7  H   UNL     1     -13.752   9.401  70.752  1.00  0.00     0.000 HD 
BRANCH   6   8
HETATM    8  C   UNL     1     -12.490  11.039  70.367  1.00  0.00    -0.313 A  
HETATM    9  C   UNL     1     -12.025  11.327  69.072  1.00  0.00    -0.325 A  
HETATM   10  C   UNL     1     -11.737  12.665  68.753  1.00  0.00    -0.364 A  
HETATM   11  N   UNL     1     -11.574  10.310  68.202  1.00  0.00    -0.696 NA 
HETATM   12  H2  UNL     1     -12.318   9.616  68.121  1.00  0.00     0.000 HD 
HETATM   13  C   UNL     1     -11.955  13.710  69.664  1.00  0.00    -0.343 A  
HETATM   14  H1  UNL     1     -11.237  10.519  67.262  1.00  0.00     0.000 HD 
HETATM   15  C   UNL     1     -12.714  12.073  71.281  1.00  0.00    -0.382 A  
HETATM   16  C   UNL     1     -12.487  13.398  70.915  1.00  0.00    -0.439 A  
BRANCH  13  17
HETATM   17  N   UNL     1     -11.682  15.023  69.245  1.00  0.00    -0.306 NA 
HETATM   18  H   UNL     1     -12.054  15.830  69.746  1.00  0.00     0.000 HD 
BRANCH  17  19
HETATM   19  C   UNL     1     -10.845  15.181  68.060  1.00  0.00    -0.284 C  
BRANCH  19  20
HETATM   20  C   UNL     1     -10.539  16.635  67.775  1.00  0.00    -0.342 A  
HETATM   21  C   UNL     1     -10.524  17.082  66.442  1.00  0.00    -0.252 A  
HETATM   22  C   UNL     1     -10.313  18.429  66.146  1.00  0.00    -0.431 A  
HETATM   23  C   UNL     1     -10.123  19.335  67.182  1.00  0.00    -0.377 A  
HETATM   24  C   UNL     1     -10.155  18.922  68.507  1.00  0.00    -0.460 A  
HETATM   25  F   UNL     1      -9.922  20.629  66.895  1.00  0.00    -0.571 F  
HETATM   26  C   UNL     1     -10.372  17.577  68.806  1.00  0.00    -0.358 A  
ENDBRANCH  19  20
ENDBRANCH  17  19
ENDBRANCH  13  17
ENDBRANCH   6   8
ENDBRANCH   3   4
ENDBRANCH   2   3
TORSDOF 6
ENDMDL
MODEL       13
REMARK 921   NORMALIZED FREE ENERGY PREDICTED BY IDOCK:   -6.01 KCAL/MOL
REMARK 922        TOTAL FREE ENERGY PREDICTED BY IDOCK:   -8.82 KCAL/MOL
REMARK 923 INTER-LIGAND FREE ENERGY PREDICTED BY IDOCK:   -8.20 KCAL/MOL
REMARK 924 INTRA-LIGAND FREE ENERGY PREDICTED BY IDOCK:   -0.61 KCAL/MOL
REMARK 927      BINDING AFFINITY PREDICTED BY RF-SCORE:    0.00 PKD
ROOT
HETATM    1  C   UNL     1     -13.090  15.598  73.155  1.00  0.00    -0.666 C  
HETATM    2  C   UNL     1     -12.044  15.992  72.126  1.00  0.00    -0.526 C  
ENDROOT
BRANCH   2   3
HETATM    3  O   UNL     1     -12.472  15.491  70.853  1.00  0.00    -0.379 OA 
BRANCH   3   4
HETATM    4  C   UNL     1     -11.550  15.549  69.858  1.00  0.00    -0.335 C  
HETATM    5  O   UNL     1     -10.339  15.495  70.024  1.00  0.00    -0.299 OA 
HETATM    6  N   UNL     1     -12.227  15.522  68.672  1.00  0.00    -0.544 N  
HETATM    7  H   UNL     1     -13.181  15.885  68.640  1.00  0.00     0.000 HD 
BRANCH   6   8
HETATM    8  C   UNL     1     -11.653  15.011  67.489  1.00  0.00    -0.301 A  
HETATM    9  C   UNL     1     -10.632  15.661  66.773  1.00  0.00    -0.307 A  
HETATM   10  C   UNL     1     -10.162  15.059  65.594  1.00  0.00    -0.386 A  
HETATM   11  N   UNL     1     -10.281  17.003  67.037  1.00  0.00    -0.297 NA 
HETATM   12  H2  UNL     1     -10.064  17.080  68.031  1.00  0.00     0.000 HD 
HETATM   13  C   UNL     1     -10.639  13.815  65.153  1.00  0.00    -0.374 A  
HETATM   14  H1  UNL     1      -9.540  17.475  66.517  1.00  0.00     0.000 HD 
HETATM   15  C   UNL     1     -12.132  13.770  67.061  1.00  0.00    -0.436 A  
HETATM   16  C   UNL     1     -11.599  13.162  65.926  1.00  0.00    -0.391 A  
BRANCH  13  17
HETATM   17  N   UNL     1     -10.080  13.266  63.987  1.00  0.00    -0.776 NA 
HETATM   18  H   UNL     1      -9.276  13.696  63.528  1.00  0.00     0.000 HD 
BRANCH  17  19
HETATM   19  C   UNL     1     -10.698  12.053  63.462  1.00  0.00    -0.455 C  
BRANCH  19  20
HETATM   20  C   UNL     1      -9.796  10.848  63.613  1.00  0.00    -0.403 A  
HETATM   21  C   UNL     1      -9.558  10.330  64.899  1.00  0.00    -0.365 A  
HETATM   22  C   UNL     1      -8.786   9.180  65.069  1.00  0.00    -0.230 A  
HETATM   23  C   UNL     1      -8.258   8.539  63.956  1.00  0.00    -0.131 A  
HETATM   24  C   UNL     1      -8.496   9.018  62.676  1.00  0.00    -0.210 A  
HETATM   25  F   UNL     1      -7.519   7.433  64.123  1.00  0.00    -0.072 F  
HETATM   26  C   UNL     1      -9.273  10.164  62.500  1.00  0.00    -0.321 A  
ENDBRANCH  19  20
ENDBRANCH  17  19
ENDBRANCH  13  17
ENDBRANCH   6   8
ENDBRANCH   3   4
ENDBRANCH   2   3
TORSDOF 6
ENDMDL
MODEL       14
REMARK 921   NORMALIZED FREE ENERGY PREDICTED BY IDOCK:   -6.00 KCAL/MOL
REMARK 922        TOTAL FREE ENERGY PREDICTED BY IDOCK:   -8.81 KCAL/MOL
REMARK 923 INTER-LIGAND FREE ENERGY PREDICTED BY IDOCK:   -8.26 KCAL/MOL
REMARK 924 INTRA-LIGAND FREE ENERGY PREDICTED BY IDOCK:   -0.55 KCAL/MOL
REMARK 927      BINDING AFFINITY PREDICTED BY RF-SCORE:    0.00 PKD
ROOT
HETATM    1  C   UNL     1      -9.312   3.814  71.742  1.00  0.00    -0.196 C  
HETATM    2  C   UNL     1      -9.643   4.674  72.950  1.00  0.00    -0.131 C  
ENDROOT
BRANCH   2   3
HETATM    3  O   UNL     1     -10.975   5.176  72.778  1.00  0.00    -0.239 OA 
BRANCH   3   4
HETATM    4  C   UNL     1     -11.151   6.489  73.073  1.00  0.00    -0.198 C  
HETATM    5  O   UNL     1     -10.476   7.123  73.871  1.00  0.00    -0.370 OA 
HETATM    6  N   UNL     1     -12.097   6.976  72.215  1.00  0.00    -0.476 N  
HETATM    7  H   UNL     1     -12.798   6.337  71.839  1.00  0.00     0.000 HD 
BRANCH   6   8
HETATM    8  C   UNL     1     -12.137   8.334  71.832  1.00  0.00    -0.332 A  
HETATM    9  C   UNL     1     -13.044   9.267  72.362  1.00  0.00    -0.406 A  
HETATM   10  C   UNL     1     -12.998  10.585  71.877  1.00  0.00    -0.553 A  
HETATM   11  N   UNL     1     -14.159   8.865  73.129  1.00  0.00    -1.225 NA 
HETATM   12  H2  UNL     1     -13.817   8.289  73.899  1.00  0.00     0.000 HD 
HETATM   13  C   UNL     1     -12.045  10.999  70.934  1.00  0.00    -0.339 A  
HETATM   14  H1  UNL     1     -14.818   9.542  73.514  1.00  0.00     0.000 HD 
HETATM   15  C   UNL     1     -11.180   8.735  70.895  1.00  0.00    -0.320 A  
HETATM   16  C   UNL     1     -11.111  10.065  70.484  1.00  0.00    -0.400 A  
BRANCH  13  17
HETATM   17  N   UNL     1     -12.043  12.347  70.540  1.00  0.00    -0.484 NA 
HETATM   18  H   UNL     1     -12.188  13.099  71.214  1.00  0.00     0.000 HD 
BRANCH  17  19
HETATM   19  C   UNL     1     -11.824  12.624  69.124  1.00  0.00    -0.297 C  
BRANCH  19  20
HETATM   20  C   UNL     1     -11.406  14.058  68.887  1.00  0.00    -0.314 A  
HETATM   21  C   UNL     1     -11.219  14.507  67.567  1.00  0.00    -0.333 A  
HETATM   22  C   UNL     1     -10.899  15.840  67.309  1.00  0.00    -0.298 A  
HETATM   23  C   UNL     1     -10.773  16.731  68.368  1.00  0.00    -0.362 A  
HETATM   24  C   UNL     1     -10.974  16.318  69.677  1.00  0.00    -0.346 A  
HETATM   25  F   UNL     1     -10.468  18.012  68.116  1.00  0.00    -0.339 F  
HETATM   26  C   UNL     1     -11.300  14.987  69.939  1.00  0.00    -0.307 A  
ENDBRANCH  19  20
ENDBRANCH  17  19
ENDBRANCH  13  17
ENDBRANCH   6   8
ENDBRANCH   3   4
ENDBRANCH   2   3
TORSDOF 6
ENDMDL
MODEL       15
REMARK 921   NORMALIZED FREE ENERGY PREDICTED BY IDOCK:   -5.97 KCAL/MOL
REMARK 922        TOTAL FREE ENERGY PREDICTED BY IDOCK:   -8.78 KCAL/MOL
REMARK 923 INTER-LIGAND FREE ENERGY PREDICTED BY IDOCK:   -8.23 KCAL/MOL
REMARK 924 INTRA-LIGAND FREE ENERGY PREDICTED BY IDOCK:   -0.55 KCAL/MOL
REMARK 927      BINDING AFFINITY PREDICTED BY RF-SCORE:    0.00 PKD
ROOT
HETATM    1  C   UNL     1     -10.733   5.676  69.657  1.00  0.00    -0.398 C  
HETATM    2  C   UNL     1     -10.728   7.194  69.585  1.00  0.00    -0.239 C  
ENDROOT
BRANCH   2   3
HETATM    3  O   UNL     1     -11.615   7.683  70.600  1.00  0.00    -0.285 OA 
BRANCH   3   4
HETATM    4  C   UNL     1     -11.440   8.980  70.960  1.00  0.00    -0.295 C  
HETATM    5  O   UNL     1     -10.482   9.406  71.591  1.00  0.00    -0.325 OA 
HETATM    6  N   UNL     1     -12.431   9.707  70.364  1.00  0.00    -0.484 N  
HETATM    7  H   UNL     1     -13.318   9.249  70.150  1.00  0.00     0.000 HD 
BRANCH   6   8
HETATM    8  C   UNL     1     -12.270  11.070  70.035  1.00  0.00    -0.343 A  
HETATM    9  C   UNL     1     -12.578  12.125  70.911  1.00  0.00    -0.247 A  
HETATM   10  C   UNL     1     -12.397  13.441  70.453  1.00  0.00    -0.382 A  
HETATM   11  N   UNL     1     -13.316  11.914  72.096  1.00  0.00    -0.538 NA 
HETATM   12  H2  UNL     1     -12.842  11.188  72.634  1.00  0.00     0.000 HD 
HETATM   13  C   UNL     1     -11.870  13.721  69.183  1.00  0.00    -0.354 A  
HETATM   14  H1  UNL     1     -13.539  12.681  72.732  1.00  0.00     0.000 HD 
HETATM   15  C   UNL     1     -11.742  11.336  68.769  1.00  0.00    -0.405 A  
HETATM   16  C   UNL     1     -11.506  12.650  68.366  1.00  0.00    -0.350 A  
BRANCH  13  17
HETATM   17  N   UNL     1     -11.680  15.066  68.825  1.00  0.00    -0.368 NA 
HETATM   18  H   UNL     1     -12.374  15.779  69.050  1.00  0.00     0.000 HD 
BRANCH  17  19
HETATM   19  C   UNL     1     -10.448  15.397  68.117  1.00  0.00    -0.247 C  
BRANCH  19  20
HETATM   20  C   UNL     1     -10.367  16.870  67.783  1.00  0.00    -0.327 A  
HETATM   21  C   UNL     1     -10.235  17.802  68.829  1.00  0.00    -0.373 A  
HETATM   22  C   UNL     1     -10.090  19.162  68.554  1.00  0.00    -0.499 A  
HETATM   23  C   UNL     1     -10.067  19.595  67.234  1.00  0.00    -0.409 A  
HETATM   24  C   UNL     1     -10.173  18.693  66.185  1.00  0.00    -0.450 A  
HETATM   25  F   UNL     1      -9.925  20.902  66.974  1.00  0.00    -0.602 F  
HETATM   26  C   UNL     1     -10.312  17.332  66.455  1.00  0.00    -0.308 A  
ENDBRANCH  19  20
ENDBRANCH  17  19
ENDBRANCH  13  17
ENDBRANCH   6   8
ENDBRANCH   3   4
ENDBRANCH   2   3
TORSDOF 6
ENDMDL
MODEL       16
REMARK 921   NORMALIZED FREE ENERGY PREDICTED BY IDOCK:   -5.97 KCAL/MOL
REMARK 922        TOTAL FREE ENERGY PREDICTED BY IDOCK:   -8.77 KCAL/MOL
REMARK 923 INTER-LIGAND FREE ENERGY PREDICTED BY IDOCK:   -7.95 KCAL/MOL
REMARK 924 INTRA-LIGAND FREE ENERGY PREDICTED BY IDOCK:   -0.82 KCAL/MOL
REMARK 927      BINDING AFFINITY PREDICTED BY RF-SCORE:    0.00 PKD
ROOT
HETATM    1  C   UNL     1     -12.967  10.434  71.641  1.00  0.00    -0.581 C  
HETATM    2  C   UNL     1     -12.468  11.574  70.769  1.00  0.00    -0.349 C  
ENDROOT
BRANCH   2   3
HETATM    3  O   UNL     1     -11.459  11.048  69.896  1.00  0.00    -0.274 OA 
BRANCH   3   4
HETATM    4  C   UNL     1     -11.370  11.640  68.678  1.00  0.00    -0.267 C  
HETATM    5  O   UNL     1     -12.156  11.465  67.756  1.00  0.00    -0.637 OA 
HETATM    6  N   UNL     1     -10.354  12.551  68.740  1.00  0.00    -0.387 N  
HETATM    7  H   UNL     1      -9.590  12.394  69.398  1.00  0.00     0.000 HD 
BRANCH   6   8
HETATM    8  C   UNL     1     -10.326  13.703  67.924  1.00  0.00    -0.249 A  
HETATM    9  C   UNL     1      -9.769  13.731  66.634  1.00  0.00    -0.289 A  
HETATM   10  C   UNL     1      -9.781  14.949  65.933  1.00  0.00    -0.366 A  
HETATM   11  N   UNL     1      -8.962  12.678  66.151  1.00  0.00    -0.431 NA 
HETATM   12  H2  UNL     1      -9.491  11.810  66.245  1.00  0.00     0.000 HD 
HETATM   13  C   UNL     1     -10.377  16.105  66.460  1.00  0.00    -0.308 A  
HETATM   14  H1  UNL     1      -8.558  12.698  65.214  1.00  0.00     0.000 HD 
HETATM   15  C   UNL     1     -10.926  14.847  68.458  1.00  0.00    -0.260 A  
HETATM   16  C   UNL     1     -10.985  16.024  67.713  1.00  0.00    -0.307 A  
BRANCH  13  17
HETATM   17  N   UNL     1     -10.383  17.267  65.671  1.00  0.00    -0.619 NA 
HETATM   18  H   UNL     1     -10.297  17.221  64.656  1.00  0.00     0.000 HD 
BRANCH  17  19
HETATM   19  C   UNL     1     -10.516  18.542  66.368  1.00  0.00    -0.406 C  
BRANCH  19  20
HETATM   20  C   UNL     1      -9.199  19.013  66.942  1.00  0.00    -0.332 A  
HETATM   21  C   UNL     1      -8.248  19.595  66.084  1.00  0.00    -0.355 A  
HETATM   22  C   UNL     1      -7.051  20.102  66.589  1.00  0.00    -0.280 A  
HETATM   23  C   UNL     1      -6.802  20.037  67.955  1.00  0.00    -0.271 A  
HETATM   24  C   UNL     1      -7.733  19.487  68.824  1.00  0.00    -0.375 A  
HETATM   25  F   UNL     1      -5.652  20.527  68.437  1.00  0.00    -0.235 F  
HETATM   26  C   UNL     1      -8.935  18.985  68.324  1.00  0.00    -0.372 A  
ENDBRANCH  19  20
ENDBRANCH  17  19
ENDBRANCH  13  17
ENDBRANCH   6   8
ENDBRANCH   3   4
ENDBRANCH   2   3
TORSDOF 6
ENDMDL
MODEL       17
REMARK 921   NORMALIZED FREE ENERGY PREDICTED BY IDOCK:   -5.95 KCAL/MOL
REMARK 922        TOTAL FREE ENERGY PREDICTED BY IDOCK:   -8.74 KCAL/MOL
REMARK 923 INTER-LIGAND FREE ENERGY PREDICTED BY IDOCK:   -7.96 KCAL/MOL
REMARK 924 INTRA-LIGAND FREE ENERGY PREDICTED BY IDOCK:   -0.78 KCAL/MOL
REMARK 927      BINDING AFFINITY PREDICTED BY RF-SCORE:    0.00 PKD
ROOT
HETATM    1  C   UNL     1     -12.368  15.473  74.300  1.00  0.00    -0.815 C  
HETATM    2  C   UNL     1     -13.355  15.742  73.177  1.00  0.00    -0.587 C  
ENDROOT
BRANCH   2   3
HETATM    3  O   UNL     1     -12.608  16.171  72.031  1.00  0.00    -0.446 OA 
BRANCH   3   4
HETATM    4  C   UNL     1     -12.011  15.185  71.314  1.00  0.00    -0.344 C  
HETATM    5  O   UNL     1     -10.810  15.111  71.094  1.00  0.00    -0.233 OA 
HETATM    6  N   UNL     1     -12.966  14.248  71.035  1.00  0.00    -0.342 N  
HETATM    7  H   UNL     1     -13.941  14.542  70.971  1.00  0.00     0.000 HD 
BRANCH   6   8
HETATM    8  C   UNL     1     -12.648  12.889  70.830  1.00  0.00    -0.270 A  
HETATM    9  C   UNL     1     -11.943  12.412  69.711  1.00  0.00    -0.289 A  
HETATM   10  C   UNL     1     -11.712  11.030  69.612  1.00  0.00    -0.401 A  
HETATM   11  N   UNL     1     -11.723  13.220  68.574  1.00  0.00    -0.332 NA 
HETATM   12  H2  UNL     1     -11.272  14.081  68.885  1.00  0.00     0.000 HD 
HETATM   13  C   UNL     1     -12.111  10.135  70.617  1.00  0.00    -0.319 A  
HETATM   14  H1  UNL     1     -11.211  12.875  67.762  1.00  0.00     0.000 HD 
HETATM   15  C   UNL     1     -13.047  12.007  71.839  1.00  0.00    -0.475 A  
HETATM   16  C   UNL     1     -12.743  10.650  71.749  1.00  0.00    -0.489 A  
BRANCH  13  17
HETATM   17  N   UNL     1     -11.798   8.775  70.456  1.00  0.00    -0.469 NA 
HETATM   18  H   UNL     1     -11.170   8.457  69.718  1.00  0.00     0.000 HD 
BRANCH  17  19
HETATM   19  C   UNL     1     -12.411   7.838  71.392  1.00  0.00    -0.323 C  
BRANCH  19  20
HETATM   20  C   UNL     1     -11.377   7.118  72.228  1.00  0.00    -0.303 A  
HETATM   21  C   UNL     1     -11.127   5.755  71.983  1.00  0.00    -0.318 A  
HETATM   22  C   UNL     1     -10.133   5.077  72.689  1.00  0.00    -0.227 A  
HETATM   23  C   UNL     1      -9.379   5.759  73.636  1.00  0.00    -0.137 A  
HETATM   24  C   UNL     1      -9.592   7.108  73.881  1.00  0.00    -0.319 A  
HETATM   25  F   UNL     1      -8.425   5.104  74.311  1.00  0.00    -0.104 F  
HETATM   26  C   UNL     1     -10.581   7.791  73.173  1.00  0.00    -0.415 A  
ENDBRANCH  19  20
ENDBRANCH  17  19
ENDBRANCH  13  17
ENDBRANCH   6   8
ENDBRANCH   3   4
ENDBRANCH   2   3
TORSDOF 6
ENDMDL
MODEL       18
REMARK 921   NORMALIZED FREE ENERGY PREDICTED BY IDOCK:   -5.94 KCAL/MOL
REMARK 922        TOTAL FREE ENERGY PREDICTED BY IDOCK:   -8.73 KCAL/MOL
REMARK 923 INTER-LIGAND FREE ENERGY PREDICTED BY IDOCK:   -8.08 KCAL/MOL
REMARK 924 INTRA-LIGAND FREE ENERGY PREDICTED BY IDOCK:   -0.65 KCAL/MOL
REMARK 927      BINDING AFFINITY PREDICTED BY RF-SCORE:    0.00 PKD
ROOT
HETATM    1  C   UNL     1      -7.756  20.507  67.147  1.00  0.00    -0.368 C  
HETATM    2  C   UNL     1      -8.190  19.799  65.875  1.00  0.00    -0.223 C  
ENDROOT
BRANCH   2   3
HETATM    3  O   UNL     1      -9.618  19.677  65.907  1.00  0.00    -0.376 OA 
BRANCH   3   4
HETATM    4  C   UNL     1     -10.103  18.628  66.620  1.00  0.00    -0.385 C  
HETATM    5  O   UNL     1     -10.970  18.709  67.479  1.00  0.00    -0.392 OA 
HETATM    6  N   UNL     1      -9.558  17.491  66.096  1.00  0.00    -0.226 N  
HETATM    7  H   UNL     1      -8.649  17.546  65.636  1.00  0.00     0.000 HD 
BRANCH   6   8
HETATM    8  C   UNL     1     -10.211  16.242  66.168  1.00  0.00    -0.346 A  
HETATM    9  C   UNL     1     -10.984  15.705  65.124  1.00  0.00    -0.398 A  
HETATM   10  C   UNL     1     -11.605  14.461  65.331  1.00  0.00    -0.347 A  
HETATM   11  N   UNL     1     -11.384  16.487  64.018  1.00  0.00    -1.559 NA 
HETATM   12  H2  UNL     1     -10.545  16.898  63.607  1.00  0.00     0.000 HD 
HETATM   13  C   UNL     1     -11.426  13.728  66.513  1.00  0.00    -0.348 A  
HETATM   14  H1  UNL     1     -11.945  16.097  63.260  1.00  0.00     0.000 HD 
HETATM   15  C   UNL     1     -10.023  15.518  67.349  1.00  0.00    -0.234 A  
HETATM   16  C   UNL     1     -10.593  14.255  67.500  1.00  0.00    -0.261 A  
BRANCH  13  17
HETATM   17  N   UNL     1     -12.047  12.472  66.616  1.00  0.00    -0.568 NA 
HETATM   18  H   UNL     1     -12.804  12.200  65.988  1.00  0.00     0.000 HD 
BRANCH  17  19
HETATM   19  C   UNL     1     -11.563  11.575  67.660  1.00  0.00    -0.247 C  
BRANCH  19  20
HETATM   20  C   UNL     1     -10.771  10.420  67.089  1.00  0.00    -0.316 A  
HETATM   21  C   UNL     1     -10.155  10.568  65.834  1.00  0.00    -0.323 A  
HETATM   22  C   UNL     1      -9.360   9.549  65.308  1.00  0.00    -0.317 A  
HETATM   23  C   UNL     1      -9.172   8.381  66.038  1.00  0.00    -0.187 A  
HETATM   24  C   UNL     1      -9.752   8.220  67.288  1.00  0.00    -0.234 A  
HETATM   25  F   UNL     1      -8.408   7.405  65.530  1.00  0.00    -0.120 F  
HETATM   26  C   UNL     1     -10.542   9.240  67.820  1.00  0.00    -0.307 A  
ENDBRANCH  19  20
ENDBRANCH  17  19
ENDBRANCH  13  17
ENDBRANCH   6   8
ENDBRANCH   3   4
ENDBRANCH   2   3
TORSDOF 6
ENDMDL
MODEL       19
REMARK 921   NORMALIZED FREE ENERGY PREDICTED BY IDOCK:   -5.93 KCAL/MOL
REMARK 922        TOTAL FREE ENERGY PREDICTED BY IDOCK:   -8.71 KCAL/MOL
REMARK 923 INTER-LIGAND FREE ENERGY PREDICTED BY IDOCK:   -8.04 KCAL/MOL
REMARK 924 INTRA-LIGAND FREE ENERGY PREDICTED BY IDOCK:   -0.67 KCAL/MOL
REMARK 927      BINDING AFFINITY PREDICTED BY RF-SCORE:    0.00 PKD
ROOT
HETATM    1  C   UNL     1      -8.984   9.344  62.362  1.00  0.00    -0.258 C  
HETATM    2  C   UNL     1      -8.474  10.669  62.904  1.00  0.00    -0.180 C  
ENDROOT
BRANCH   2   3
HETATM    3  O   UNL     1      -9.467  11.665  62.627  1.00  0.00    -0.288 OA 
BRANCH   3   4
HETATM    4  C   UNL     1     -10.426  11.820  63.575  1.00  0.00    -0.449 C  
HETATM    5  O   UNL     1     -11.500  11.234  63.585  1.00  0.00    -0.280 OA 
HETATM    6  N   UNL     1      -9.904  12.613  64.557  1.00  0.00    -0.549 N  
HETATM    7  H   UNL     1      -9.174  13.284  64.314  1.00  0.00     0.000 HD 
BRANCH   6   8
HETATM    8  C   UNL     1     -10.341  12.537  65.897  1.00  0.00    -0.263 A  
HETATM    9  C   UNL     1     -11.594  12.997  66.337  1.00  0.00    -0.363 A  
HETATM   10  C   UNL     1     -11.899  12.886  67.704  1.00  0.00    -0.400 A  
HETATM   11  N   UNL     1     -12.413  13.809  65.522  1.00  0.00    -0.486 NA 
HETATM   12  H2  UNL     1     -12.551  13.323  64.635  1.00  0.00     0.000 HD 
HETATM   13  C   UNL     1     -11.019  12.283  68.616  1.00  0.00    -0.239 A  
HETATM   14  H1  UNL     1     -13.324  14.143  65.841  1.00  0.00     0.000 HD 
HETATM   15  C   UNL     1      -9.458  11.931  66.796  1.00  0.00    -0.207 A  
HETATM   16  C   UNL     1      -9.815  11.771  68.134  1.00  0.00    -0.190 A  
BRANCH  13  17
HETATM   17  N   UNL     1     -11.425  12.174  69.956  1.00  0.00    -0.526 NA 
HETATM   18  H   UNL     1     -10.839  11.717  70.654  1.00  0.00     0.000 HD 
BRANCH  17  19
HETATM   19  C   UNL     1     -12.723  12.743  70.305  1.00  0.00     0.144 C  
BRANCH  19  20
HETATM   20  C   UNL     1     -12.590  13.906  71.264  1.00  0.00    -0.450 A  
HETATM   21  C   UNL     1     -13.258  13.852  72.501  1.00  0.00    -0.601 A  
HETATM   22  C   UNL     1     -13.103  14.875  73.437  1.00  0.00    -0.506 A  
HETATM   23  C   UNL     1     -12.275  15.951  73.144  1.00  0.00    -0.516 A  
HETATM   24  C   UNL     1     -11.589  16.017  71.939  1.00  0.00    -0.524 A  
HETATM   25  F   UNL     1     -12.128  16.932  74.045  1.00  0.00    -0.530 F  
HETATM   26  C   UNL     1     -11.736  14.993  71.003  1.00  0.00    -0.379 A  
ENDBRANCH  19  20
ENDBRANCH  17  19
ENDBRANCH  13  17
ENDBRANCH   6   8
ENDBRANCH   3   4
ENDBRANCH   2   3
TORSDOF 6
ENDMDL
MODEL       20
REMARK 921   NORMALIZED FREE ENERGY PREDICTED BY IDOCK:   -5.92 KCAL/MOL
REMARK 922        TOTAL FREE ENERGY PREDICTED BY IDOCK:   -8.70 KCAL/MOL
REMARK 923 INTER-LIGAND FREE ENERGY PREDICTED BY IDOCK:   -7.98 KCAL/MOL
REMARK 924 INTRA-LIGAND FREE ENERGY PREDICTED BY IDOCK:   -0.72 KCAL/MOL
REMARK 927      BINDING AFFINITY PREDICTED BY RF-SCORE:    0.00 PKD
ROOT
HETATM    1  C   UNL     1      -9.130   8.487  65.897  1.00  0.00    -0.237 C  
HETATM    2  C   UNL     1      -9.749   9.842  65.598  1.00  0.00    -0.288 C  
ENDROOT
BRANCH   2   3
HETATM    3  O   UNL     1     -10.601  10.187  66.699  1.00  0.00    -0.212 OA 
BRANCH   3   4
HETATM    4  C   UNL     1     -11.234  11.383  66.600  1.00  0.00    -0.231 C  
HETATM    5  O   UNL     1     -12.071  11.798  67.390  1.00  0.00    -0.595 OA 
HETATM    6  N   UNL     1     -10.654  12.068  65.570  1.00  0.00    -0.263 N  
HETATM    7  H   UNL     1     -10.225  11.542  64.808  1.00  0.00     0.000 HD 
BRANCH   6   8
HETATM    8  C   UNL     1     -10.630  13.478  65.523  1.00  0.00    -0.296 A  
HETATM    9  C   UNL     1     -11.477  14.246  64.705  1.00  0.00    -0.393 A  
HETATM   10  C   UNL     1     -11.336  15.644  64.732  1.00  0.00    -0.348 A  
HETATM   11  N   UNL     1     -12.242  13.661  63.672  1.00  0.00    -0.857 NA 
HETATM   12  H2  UNL     1     -12.798  12.910  64.083  1.00  0.00     0.000 HD 
HETATM   13  C   UNL     1     -10.424  16.284  65.585  1.00  0.00    -0.368 A  
HETATM   14  H1  UNL     1     -12.857  14.218  63.079  1.00  0.00     0.000 HD 
HETATM   15  C   UNL     1      -9.721  14.105  66.380  1.00  0.00    -0.313 A  
HETATM   16  C   UNL     1      -9.650  15.496  66.438  1.00  0.00    -0.317 A  
BRANCH  13  17
HETATM   17  N   UNL     1     -10.382  17.688  65.579  1.00  0.00    -0.632 NA 
HETATM   18  H   UNL     1     -10.212  18.211  64.720  1.00  0.00     0.000 HD 
BRANCH  17  19
HETATM   19  C   UNL     1     -10.594  18.364  66.854  1.00  0.00    -0.347 C  
BRANCH  19  20
HETATM   20  C   UNL     1      -9.327  19.014  67.365  1.00  0.00    -0.345 A  
HETATM   21  C   UNL     1      -8.610  19.876  66.516  1.00  0.00    -0.390 A  
HETATM   22  C   UNL     1      -7.476  20.546  66.976  1.00  0.00    -0.362 A  
HETATM   23  C   UNL     1      -7.058  20.362  68.289  1.00  0.00    -0.183 A  
HETATM   24  C   UNL     1      -7.761  19.534  69.152  1.00  0.00    -0.271 A  
HETATM   25  F   UNL     1      -5.969  21.008  68.728  1.00  0.00    -0.361 F  
HETATM   26  C   UNL     1      -8.899  18.868  68.698  1.00  0.00    -0.374 A  
ENDBRANCH  19  20
ENDBRANCH  17  19
ENDBRANCH  13  17
ENDBRANCH   6   8
ENDBRANCH   3   4
ENDBRANCH   2   3
TORSDOF 6
ENDMDL
MODEL       21
REMARK 921   NORMALIZED FREE ENERGY PREDICTED BY IDOCK:   -5.91 KCAL/MOL
REMARK 922        TOTAL FREE ENERGY PREDICTED BY IDOCK:   -8.69 KCAL/MOL
REMARK 923 INTER-LIGAND FREE ENERGY PREDICTED BY IDOCK:   -7.89 KCAL/MOL
REMARK 924 INTRA-LIGAND FREE ENERGY PREDICTED BY IDOCK:   -0.80 KCAL/MOL
REMARK 927      BINDING AFFINITY PREDICTED BY RF-SCORE:    0.00 PKD
ROOT
HETATM    1  C   UNL     1     -12.413  15.495  74.121  1.00  0.00    -0.805 C  
HETATM    2  C   UNL     1     -13.282  15.365  72.881  1.00  0.00    -0.518 C  
ENDROOT
BRANCH   2   3
HETATM    3  O   UNL     1     -12.702  16.177  71.852  1.00  0.00    -0.412 OA 
BRANCH   3   4
HETATM    4  C   UNL     1     -11.980  15.512  70.915  1.00  0.00    -0.375 C  
HETATM    5  O   UNL     1     -10.763  15.567  70.801  1.00  0.00    -0.318 OA 
HETATM    6  N   UNL     1     -12.839  14.683  70.251  1.00  0.00    -0.550 N  
HETATM    7  H   UNL     1     -13.825  14.939  70.192  1.00  0.00     0.000 HD 
BRANCH   6   8
HETATM    8  C   UNL     1     -12.408  13.483  69.645  1.00  0.00    -0.165 A  
HETATM    9  C   UNL     1     -12.017  13.387  68.298  1.00  0.00    -0.317 A  
HETATM   10  C   UNL     1     -11.633  12.128  67.807  1.00  0.00    -0.410 A  
HETATM   11  N   UNL     1     -12.271  14.426  67.376  1.00  0.00    -0.617 NA 
HETATM   12  H2  UNL     1     -11.874  15.286  67.756  1.00  0.00     0.000 HD 
HETATM   13  C   UNL     1     -11.575  10.994  68.632  1.00  0.00    -0.316 A  
HETATM   14  H1  UNL     1     -11.987  14.357  66.398  1.00  0.00     0.000 HD 
HETATM   15  C   UNL     1     -12.351  12.361  70.476  1.00  0.00    -0.346 A  
HETATM   16  C   UNL     1     -11.899  11.139  69.981  1.00  0.00    -0.441 A  
BRANCH  13  17
HETATM   17  N   UNL     1     -11.136   9.785  68.068  1.00  0.00    -0.506 NA 
HETATM   18  H   UNL     1     -11.671   9.312  67.340  1.00  0.00     0.000 HD 
BRANCH  17  19
HETATM   19  C   UNL     1      -9.880   9.236  68.569  1.00  0.00    -0.158 C  
BRANCH  19  20
HETATM   20  C   UNL     1     -10.034   7.805  69.032  1.00  0.00    -0.182 A  
HETATM   21  C   UNL     1      -9.107   6.841  68.596  1.00  0.00    -0.127 A  
HETATM   22  C   UNL     1      -9.179   5.526  69.057  1.00  0.00    -0.143 A  
HETATM   23  C   UNL     1     -10.172   5.171  69.961  1.00  0.00    -0.284 A  
HETATM   24  C   UNL     1     -11.086   6.108  70.422  1.00  0.00    -0.420 A  
HETATM   25  F   UNL     1     -10.238   3.908  70.403  1.00  0.00    -0.219 F  
HETATM   26  C   UNL     1     -11.013   7.426  69.968  1.00  0.00    -0.264 A  
ENDBRANCH  19  20
ENDBRANCH  17  19
ENDBRANCH  13  17
ENDBRANCH   6   8
ENDBRANCH   3   4
ENDBRANCH   2   3
TORSDOF 6
ENDMDL
MODEL       22
REMARK 921   NORMALIZED FREE ENERGY PREDICTED BY IDOCK:   -5.91 KCAL/MOL
REMARK 922        TOTAL FREE ENERGY PREDICTED BY IDOCK:   -8.69 KCAL/MOL
REMARK 923 INTER-LIGAND FREE ENERGY PREDICTED BY IDOCK:   -7.94 KCAL/MOL
REMARK 924 INTRA-LIGAND FREE ENERGY PREDICTED BY IDOCK:   -0.75 KCAL/MOL
REMARK 927      BINDING AFFINITY PREDICTED BY RF-SCORE:    0.00 PKD
ROOT
HETATM    1  C   UNL     1     -10.996  11.729  63.333  1.00  0.00    -0.458 C  
HETATM    2  C   UNL     1     -12.450  12.153  63.453  1.00  0.00    -0.512 C  
ENDROOT
BRANCH   2   3
HETATM    3  O   UNL     1     -12.513  13.568  63.230  1.00  0.00    -0.763 OA 
BRANCH   3   4
HETATM    4  C   UNL     1     -12.429  14.343  64.341  1.00  0.00    -0.312 C  
HETATM    5  O   UNL     1     -13.190  14.278  65.298  1.00  0.00    -0.704 OA 
HETATM    6  N   UNL     1     -11.277  15.070  64.246  1.00  0.00    -0.647 N  
HETATM    7  H   UNL     1     -10.909  15.292  63.320  1.00  0.00     0.000 HD 
BRANCH   6   8
HETATM    8  C   UNL     1     -10.578  15.526  65.384  1.00  0.00    -0.408 A  
HETATM    9  C   UNL     1      -9.593  14.774  66.048  1.00  0.00    -0.301 A  
HETATM   10  C   UNL     1      -8.989  15.332  67.187  1.00  0.00    -0.227 A  
HETATM   11  N   UNL     1      -9.407  13.400  65.784  1.00  0.00    -0.473 NA 
HETATM   12  H2  UNL     1      -9.261  13.291  64.781  1.00  0.00     0.000 HD 
HETATM   13  C   UNL     1      -9.299  16.624  67.637  1.00  0.00    -0.224 A  
HETATM   14  H1  UNL     1      -8.691  12.854  66.266  1.00  0.00     0.000 HD 
HETATM   15  C   UNL     1     -10.893  16.816  65.821  1.00  0.00    -0.088 A  
HETATM   16  C   UNL     1     -10.228  17.372  66.913  1.00  0.00    -0.322 A  
BRANCH  13  17
HETATM   17  N   UNL     1      -8.613  17.119  68.758  1.00  0.00    -0.261 NA 
HETATM   18  H   UNL     1      -9.090  17.278  69.646  1.00  0.00     0.000 HD 
BRANCH  17  19
HETATM   19  C   UNL     1      -7.190  17.396  68.597  1.00  0.00    -0.237 C  
BRANCH  19  20
HETATM   20  C   UNL     1      -6.932  18.407  67.502  1.00  0.00    -0.206 A  
HETATM   21  C   UNL     1      -6.557  17.952  66.225  1.00  0.00    -0.288 A  
HETATM   22  C   UNL     1      -6.377  18.851  65.174  1.00  0.00    -0.303 A  
HETATM   23  C   UNL     1      -6.579  20.209  65.393  1.00  0.00    -0.283 A  
HETATM   24  C   UNL     1      -6.970  20.681  66.638  1.00  0.00    -0.322 A  
HETATM   25  F   UNL     1      -6.407  21.070  64.381  1.00  0.00    -0.317 F  
HETATM   26  C   UNL     1      -7.157  19.783  67.690  1.00  0.00    -0.287 A  
ENDBRANCH  19  20
ENDBRANCH  17  19
ENDBRANCH  13  17
ENDBRANCH   6   8
ENDBRANCH   3   4
ENDBRANCH   2   3
TORSDOF 6
ENDMDL
MODEL       23
REMARK 921   NORMALIZED FREE ENERGY PREDICTED BY IDOCK:   -5.91 KCAL/MOL
REMARK 922        TOTAL FREE ENERGY PREDICTED BY IDOCK:   -8.69 KCAL/MOL
REMARK 923 INTER-LIGAND FREE ENERGY PREDICTED BY IDOCK:   -8.09 KCAL/MOL
REMARK 924 INTRA-LIGAND FREE ENERGY PREDICTED BY IDOCK:   -0.60 KCAL/MOL
REMARK 927      BINDING AFFINITY PREDICTED BY RF-SCORE:    0.00 PKD
ROOT
HETATM    1  C   UNL     1     -10.297  19.788  66.000  1.00  0.00    -0.612 C  
HETATM    2  C   UNL     1      -9.555  19.820  67.326  1.00  0.00    -0.359 C  
ENDROOT
BRANCH   2   3
HETATM    3  O   UNL     1     -10.325  19.071  68.276  1.00  0.00    -0.373 OA 
BRANCH   3   4
HETATM    4  C   UNL     1     -10.058  17.741  68.333  1.00  0.00    -0.376 C  
HETATM    5  O   UNL     1      -8.963  17.259  68.590  1.00  0.00    -0.269 OA 
HETATM    6  N   UNL     1     -11.246  17.080  68.203  1.00  0.00    -0.172 N  
HETATM    7  H   UNL     1     -12.005  17.526  67.689  1.00  0.00     0.000 HD 
BRANCH   6   8
HETATM    8  C   UNL     1     -11.458  15.799  68.757  1.00  0.00    -0.388 A  
HETATM    9  C   UNL     1     -11.304  14.602  68.036  1.00  0.00    -0.311 A  
HETATM   10  C   UNL     1     -11.570  13.391  68.697  1.00  0.00    -0.362 A  
HETATM   11  N   UNL     1     -11.177  14.595  66.630  1.00  0.00    -0.342 NA 
HETATM   12  H2  UNL     1     -10.402  15.211  66.383  1.00  0.00     0.000 HD 
HETATM   13  C   UNL     1     -11.925  13.346  70.054  1.00  0.00    -0.337 A  
HETATM   14  H1  UNL     1     -11.065  13.726  66.106  1.00  0.00     0.000 HD 
HETATM   15  C   UNL     1     -11.807  15.766  70.110  1.00  0.00    -0.369 A  
HETATM   16  C   UNL     1     -11.997  14.547  70.760  1.00  0.00    -0.388 A  
BRANCH  13  17
HETATM   17  N   UNL     1     -12.128  12.089  70.645  1.00  0.00    -0.466 NA 
HETATM   18  H   UNL     1     -12.700  11.981  71.483  1.00  0.00     0.000 HD 
BRANCH  17  19
HETATM   19  C   UNL     1     -11.487  10.943  70.007  1.00  0.00    -0.329 C  
BRANCH  19  20
HETATM   20  C   UNL     1     -11.329   9.781  70.962  1.00  0.00    -0.460 A  
HETATM   21  C   UNL     1     -10.035   9.336  71.289  1.00  0.00    -0.341 A  
HETATM   22  C   UNL     1      -9.849   8.312  72.217  1.00  0.00    -0.364 A  
HETATM   23  C   UNL     1     -10.955   7.734  72.829  1.00  0.00    -0.388 A  
HETATM   24  C   UNL     1     -12.240   8.170  72.540  1.00  0.00    -0.335 A  
HETATM   25  F   UNL     1     -10.773   6.751  73.722  1.00  0.00    -0.316 F  
HETATM   26  C   UNL     1     -12.429   9.198  71.617  1.00  0.00    -0.434 A  
ENDBRANCH  19  20
ENDBRANCH  17  19
ENDBRANCH  13  17
ENDBRANCH   6   8
ENDBRANCH   3   4
ENDBRANCH   2   3
TORSDOF 6
ENDMDL
MODEL       24
REMARK 921   NORMALIZED FREE ENERGY PREDICTED BY IDOCK:   -5.87 KCAL/MOL
REMARK 922        TOTAL FREE ENERGY PREDICTED BY IDOCK:   -8.64 KCAL/MOL
REMARK 923 INTER-LIGAND FREE ENERGY PREDICTED BY IDOCK:   -8.15 KCAL/MOL
REMARK 924 INTRA-LIGAND FREE ENERGY PREDICTED BY IDOCK:   -0.49 KCAL/MOL
REMARK 927      BINDING AFFINITY PREDICTED BY RF-SCORE:    0.00 PKD
ROOT
HETATM    1  C   UNL     1     -11.075  11.686  63.346  1.00  0.00    -0.422 C  
HETATM    2  C   UNL     1     -12.197  12.703  63.466  1.00  0.00    -0.547 C  
ENDROOT
BRANCH   2   3
HETATM    3  O   UNL     1     -12.948  12.388  64.647  1.00  0.00    -0.793 OA 
BRANCH   3   4
HETATM    4  C   UNL     1     -12.319  12.631  65.825  1.00  0.00    -0.253 C  
HETATM    5  O   UNL     1     -11.934  11.768  66.603  1.00  0.00    -0.561 OA 
HETATM    6  N   UNL     1     -12.075  13.974  65.889  1.00  0.00    -0.405 N  
HETATM    7  H   UNL     1     -12.692  14.611  65.386  1.00  0.00     0.000 HD 
BRANCH   6   8
HETATM    8  C   UNL     1     -10.997  14.508  66.628  1.00  0.00    -0.321 A  
HETATM    9  C   UNL     1     -11.025  14.698  68.021  1.00  0.00    -0.267 A  
HETATM   10  C   UNL     1      -9.895  15.263  68.635  1.00  0.00    -0.211 A  
HETATM   11  N   UNL     1     -12.226  14.611  68.758  1.00  0.00    -0.578 NA 
HETATM   12  H2  UNL     1     -12.651  13.706  68.556  1.00  0.00     0.000 HD 
HETATM   13  C   UNL     1      -8.737  15.584  67.911  1.00  0.00    -0.163 A  
HETATM   14  H1  UNL     1     -12.246  14.748  69.769  1.00  0.00     0.000 HD 
HETATM   15  C   UNL     1      -9.848  14.821  65.897  1.00  0.00    -0.363 A  
HETATM   16  C   UNL     1      -8.716  15.315  66.542  1.00  0.00    -0.314 A  
BRANCH  13  17
HETATM   17  N   UNL     1      -7.637  16.104  68.614  1.00  0.00    -0.171 NA 
HETATM   18  H   UNL     1      -6.812  15.535  68.807  1.00  0.00     0.000 HD 
BRANCH  17  19
HETATM   19  C   UNL     1      -7.727  17.492  69.056  1.00  0.00    -0.139 C  
BRANCH  19  20
HETATM   20  C   UNL     1      -8.509  18.345  68.082  1.00  0.00    -0.301 A  
HETATM   21  C   UNL     1      -7.868  18.827  66.927  1.00  0.00    -0.252 A  
HETATM   22  C   UNL     1      -8.576  19.560  65.974  1.00  0.00    -0.231 A  
HETATM   23  C   UNL     1      -9.930  19.806  66.168  1.00  0.00    -0.473 A  
HETATM   24  C   UNL     1     -10.590  19.323  67.289  1.00  0.00    -0.590 A  
HETATM   25  F   UNL     1     -10.608  20.509  65.251  1.00  0.00    -0.402 F  
HETATM   26  C   UNL     1      -9.887  18.584  68.241  1.00  0.00    -0.394 A  
ENDBRANCH  19  20
ENDBRANCH  17  19
ENDBRANCH  13  17
ENDBRANCH   6   8
ENDBRANCH   3   4
ENDBRANCH   2   3
TORSDOF 6
ENDMDL
MODEL       25
REMARK 921   NORMALIZED FREE ENERGY PREDICTED BY IDOCK:   -5.86 KCAL/MOL
REMARK 922        TOTAL FREE ENERGY PREDICTED BY IDOCK:   -8.62 KCAL/MOL
REMARK 923 INTER-LIGAND FREE ENERGY PREDICTED BY IDOCK:   -7.96 KCAL/MOL
REMARK 924 INTRA-LIGAND FREE ENERGY PREDICTED BY IDOCK:   -0.65 KCAL/MOL
REMARK 927      BINDING AFFINITY PREDICTED BY RF-SCORE:    0.00 PKD
ROOT
HETATM    1  C   UNL     1     -12.606  11.862  63.246  1.00  0.00    -0.473 C  
HETATM    2  C   UNL     1     -11.731  13.104  63.214  1.00  0.00    -0.206 C  
ENDROOT
BRANCH   2   3
HETATM    3  O   UNL     1     -12.476  14.180  63.800  1.00  0.00    -0.791 OA 
BRANCH   3   4
HETATM    4  C   UNL     1     -12.775  14.039  65.116  1.00  0.00    -0.389 C  
HETATM    5  O   UNL     1     -13.909  13.982  65.573  1.00  0.00    -0.111 OA 
HETATM    6  N   UNL     1     -11.601  13.827  65.782  1.00  0.00    -0.322 N  
HETATM    7  H   UNL     1     -10.738  14.205  65.391  1.00  0.00     0.000 HD 
BRANCH   6   8
HETATM    8  C   UNL     1     -11.543  13.104  66.992  1.00  0.00    -0.359 A  
HETATM    9  C   UNL     1     -11.806  13.669  68.252  1.00  0.00    -0.369 A  
HETATM   10  C   UNL     1     -11.688  12.846  69.385  1.00  0.00    -0.382 A  
HETATM   11  N   UNL     1     -11.895  15.066  68.434  1.00  0.00    -0.481 NA 
HETATM   12  H2  UNL     1     -12.592  15.422  67.780  1.00  0.00     0.000 HD 
HETATM   13  C   UNL     1     -11.377  11.482  69.285  1.00  0.00    -0.288 A  
HETATM   14  H1  UNL     1     -12.086  15.477  69.349  1.00  0.00     0.000 HD 
HETATM   15  C   UNL     1     -11.235  11.745  66.880  1.00  0.00    -0.387 A  
HETATM   16  C   UNL     1     -11.194  10.936  68.014  1.00  0.00    -0.378 A  
BRANCH  13  17
HETATM   17  N   UNL     1     -11.325  10.725  70.467  1.00  0.00    -0.434 NA 
HETATM   18  H   UNL     1     -12.055  10.795  71.177  1.00  0.00     0.000 HD 
BRANCH  17  19
HETATM   19  C   UNL     1     -10.182   9.834  70.635  1.00  0.00    -0.220 C  
BRANCH  19  20
HETATM   20  C   UNL     1     -10.576   8.526  71.284  1.00  0.00    -0.296 A  
HETATM   21  C   UNL     1     -10.251   8.307  72.635  1.00  0.00    -0.368 A  
HETATM   22  C   UNL     1     -10.658   7.141  73.284  1.00  0.00    -0.405 A  
HETATM   23  C   UNL     1     -11.398   6.193  72.588  1.00  0.00    -0.259 A  
HETATM   24  C   UNL     1     -11.749   6.395  71.261  1.00  0.00    -0.359 A  
HETATM   25  F   UNL     1     -11.789   5.075  73.215  1.00  0.00    -0.385 F  
HETATM   26  C   UNL     1     -11.349   7.563  70.610  1.00  0.00    -0.301 A  
ENDBRANCH  19  20
ENDBRANCH  17  19
ENDBRANCH  13  17
ENDBRANCH   6   8
ENDBRANCH   3   4
ENDBRANCH   2   3
TORSDOF 6
ENDMDL
MODEL       26
REMARK 921   NORMALIZED FREE ENERGY PREDICTED BY IDOCK:   -5.84 KCAL/MOL
REMARK 922        TOTAL FREE ENERGY PREDICTED BY IDOCK:   -8.60 KCAL/MOL
REMARK 923 INTER-LIGAND FREE ENERGY PREDICTED BY IDOCK:   -7.92 KCAL/MOL
REMARK 924 INTRA-LIGAND FREE ENERGY PREDICTED BY IDOCK:   -0.67 KCAL/MOL
REMARK 927      BINDING AFFINITY PREDICTED BY RF-SCORE:    0.00 PKD
ROOT
HETATM    1  C   UNL     1     -10.651   3.906  74.271  1.00  0.00    -0.265 C  
HETATM    2  C   UNL     1     -11.258   4.764  73.174  1.00  0.00    -0.308 C  
ENDROOT
BRANCH   2   3
HETATM    3  O   UNL     1     -10.460   4.597  71.995  1.00  0.00    -0.192 OA 
BRANCH   3   4
HETATM    4  C   UNL     1     -10.518   5.613  71.097  1.00  0.00    -0.241 C  
HETATM    5  O   UNL     1     -10.977   5.521  69.967  1.00  0.00    -0.301 OA 
HETATM    6  N   UNL     1     -10.118   6.750  71.740  1.00  0.00    -0.183 N  
HETATM    7  H   UNL     1      -9.475   6.670  72.529  1.00  0.00     0.000 HD 
BRANCH   6   8
HETATM    8  C   UNL     1     -10.564   8.031  71.350  1.00  0.00    -0.216 A  
HETATM    9  C   UNL     1     -11.661   8.686  71.937  1.00  0.00    -0.350 A  
HETATM   10  C   UNL     1     -12.020   9.950  71.440  1.00  0.00    -0.489 A  
HETATM   11  N   UNL     1     -12.564   8.008  72.784  1.00  0.00    -0.583 NA 
HETATM   12  H2  UNL     1     -12.023   7.572  73.532  1.00  0.00     0.000 HD 
HETATM   13  C   UNL     1     -11.286  10.589  70.429  1.00  0.00    -0.328 A  
HETATM   14  H1  UNL     1     -13.360   8.484  73.210  1.00  0.00     0.000 HD 
HETATM   15  C   UNL     1      -9.823   8.659  70.345  1.00  0.00    -0.207 A  
HETATM   16  C   UNL     1     -10.160   9.943  69.920  1.00  0.00    -0.297 A  
BRANCH  13  17
HETATM   17  N   UNL     1     -11.690  11.872  70.025  1.00  0.00    -0.462 NA 
HETATM   18  H   UNL     1     -11.157  12.407  69.339  1.00  0.00     0.000 HD 
BRANCH  17  19
HETATM   19  C   UNL     1     -12.906  12.407  70.630  1.00  0.00     0.069 C  
BRANCH  19  20
HETATM   20  C   UNL     1     -12.661  13.735  71.311  1.00  0.00    -0.450 A  
HETATM   21  C   UNL     1     -13.234  13.972  72.573  1.00  0.00    -0.602 A  
HETATM   22  C   UNL     1     -12.974  15.158  73.260  1.00  0.00    -0.645 A  
HETATM   23  C   UNL     1     -12.134  16.108  72.691  1.00  0.00    -0.554 A  
HETATM   24  C   UNL     1     -11.540  15.888  71.457  1.00  0.00    -0.537 A  
HETATM   25  F   UNL     1     -11.885  17.246  73.354  1.00  0.00    -0.408 F  
HETATM   26  C   UNL     1     -11.792  14.701  70.770  1.00  0.00    -0.372 A  
ENDBRANCH  19  20
ENDBRANCH  17  19
ENDBRANCH  13  17
ENDBRANCH   6   8
ENDBRANCH   3   4
ENDBRANCH   2   3
TORSDOF 6
ENDMDL
MODEL       27
REMARK 921   NORMALIZED FREE ENERGY PREDICTED BY IDOCK:   -5.84 KCAL/MOL
REMARK 922        TOTAL FREE ENERGY PREDICTED BY IDOCK:   -8.59 KCAL/MOL
REMARK 923 INTER-LIGAND FREE ENERGY PREDICTED BY IDOCK:   -7.93 KCAL/MOL
REMARK 924 INTRA-LIGAND FREE ENERGY PREDICTED BY IDOCK:   -0.66 KCAL/MOL
REMARK 927      BINDING AFFINITY PREDICTED BY RF-SCORE:    0.00 PKD
ROOT
HETATM    1  C   UNL     1     -10.439  19.734  65.958  1.00  0.00    -0.609 C  
HETATM    2  C   UNL     1     -10.385  18.322  66.514  1.00  0.00    -0.392 C  
ENDROOT
BRANCH   2   3
HETATM    3  O   UNL     1     -10.352  17.415  65.404  1.00  0.00    -0.631 OA 
BRANCH   3   4
HETATM    4  C   UNL     1     -10.071  16.123  65.708  1.00  0.00    -0.363 C  
HETATM    5  O   UNL     1      -8.972  15.709  66.055  1.00  0.00    -0.334 OA 
HETATM    6  N   UNL     1     -11.251  15.435  65.700  1.00  0.00    -0.261 N  
HETATM    7  H   UNL     1     -12.012  15.769  65.109  1.00  0.00     0.000 HD 
BRANCH   6   8
HETATM    8  C   UNL     1     -11.452  14.277  66.482  1.00  0.00    -0.360 A  
HETATM    9  C   UNL     1     -11.869  14.306  67.825  1.00  0.00    -0.379 A  
HETATM   10  C   UNL     1     -12.008  13.083  68.502  1.00  0.00    -0.296 A  
HETATM   11  N   UNL     1     -11.870  15.502  68.576  1.00  0.00    -0.501 NA 
HETATM   12  H2  UNL     1     -12.418  16.193  68.063  1.00  0.00     0.000 HD 
HETATM   13  C   UNL     1     -11.801  11.851  67.863  1.00  0.00    -0.238 A  
HETATM   14  H1  UNL     1     -12.173  15.523  69.550  1.00  0.00     0.000 HD 
HETATM   15  C   UNL     1     -11.246  13.056  65.835  1.00  0.00    -0.315 A  
HETATM   16  C   UNL     1     -11.459  11.856  66.510  1.00  0.00    -0.381 A  
BRANCH  13  17
HETATM   17  N   UNL     1     -12.007  10.676  68.605  1.00  0.00    -0.772 NA 
HETATM   18  H   UNL     1     -12.936  10.269  68.710  1.00  0.00     0.000 HD 
BRANCH  17  19
HETATM   19  C   UNL     1     -10.833  10.063  69.217  1.00  0.00    -0.230 C  
BRANCH  19  20
HETATM   20  C   UNL     1     -10.652   8.627  68.778  1.00  0.00    -0.169 A  
HETATM   21  C   UNL     1     -10.832   7.596  69.718  1.00  0.00    -0.222 A  
HETATM   22  C   UNL     1     -10.740   6.259  69.332  1.00  0.00    -0.364 A  
HETATM   23  C   UNL     1     -10.474   5.946  68.004  1.00  0.00    -0.234 A  
HETATM   24  C   UNL     1     -10.313   6.945  67.054  1.00  0.00    -0.348 A  
HETATM   25  F   UNL     1     -10.388   4.660  67.637  1.00  0.00    -0.182 F  
HETATM   26  C   UNL     1     -10.412   8.283  67.435  1.00  0.00    -0.353 A  
ENDBRANCH  19  20
ENDBRANCH  17  19
ENDBRANCH  13  17
ENDBRANCH   6   8
ENDBRANCH   3   4
ENDBRANCH   2   3
TORSDOF 6
ENDMDL
MODEL       28
REMARK 921   NORMALIZED FREE ENERGY PREDICTED BY IDOCK:   -5.80 KCAL/MOL
REMARK 922        TOTAL FREE ENERGY PREDICTED BY IDOCK:   -8.54 KCAL/MOL
REMARK 923 INTER-LIGAND FREE ENERGY PREDICTED BY IDOCK:   -7.77 KCAL/MOL
REMARK 924 INTRA-LIGAND FREE ENERGY PREDICTED BY IDOCK:   -0.77 KCAL/MOL
REMARK 927      BINDING AFFINITY PREDICTED BY RF-SCORE:    0.00 PKD
ROOT
HETATM    1  C   UNL     1      -9.875  10.759  62.680  1.00  0.00    -0.166 C  
HETATM    2  C   UNL     1     -10.037  12.110  63.356  1.00  0.00    -0.351 C  
ENDROOT
BRANCH   2   3
HETATM    3  O   UNL     1     -11.421  12.475  63.278  1.00  0.00    -0.466 OA 
BRANCH   3   4
HETATM    4  C   UNL     1     -12.059  12.623  64.467  1.00  0.00    -0.417 C  
HETATM    5  O   UNL     1     -13.265  12.505  64.633  1.00  0.00    -0.848 OA 
HETATM    6  N   UNL     1     -11.100  12.769  65.429  1.00  0.00    -0.279 N  
HETATM    7  H   UNL     1     -10.197  13.168  65.169  1.00  0.00     0.000 HD 
BRANCH   6   8
HETATM    8  C   UNL     1     -11.316  12.389  66.771  1.00  0.00    -0.335 A  
HETATM    9  C   UNL     1     -11.842  13.249  67.751  1.00  0.00    -0.353 A  
HETATM   10  C   UNL     1     -11.985  12.756  69.058  1.00  0.00    -0.288 A  
HETATM   11  N   UNL     1     -11.954  14.640  67.533  1.00  0.00    -0.534 NA 
HETATM   12  H2  UNL     1     -12.487  14.780  66.675  1.00  0.00     0.000 HD 
HETATM   13  C   UNL     1     -11.674  11.429  69.391  1.00  0.00    -0.338 A  
HETATM   14  H1  UNL     1     -12.337  15.264  68.244  1.00  0.00     0.000 HD 
HETATM   15  C   UNL     1     -11.006  11.064  67.090  1.00  0.00    -0.344 A  
HETATM   16  C   UNL     1     -11.223  10.580  68.380  1.00  0.00    -0.339 A  
BRANCH  13  17
HETATM   17  N   UNL     1     -11.890  11.008  70.714  1.00  0.00    -0.340 NA 
HETATM   18  H   UNL     1     -11.785  11.649  71.500  1.00  0.00     0.000 HD 
BRANCH  17  19
HETATM   19  C   UNL     1     -12.273   9.614  70.913  1.00  0.00    -0.285 C  
BRANCH  19  20
HETATM   20  C   UNL     1     -11.260   8.865  71.749  1.00  0.00    -0.432 A  
HETATM   21  C   UNL     1      -9.890   9.111  71.547  1.00  0.00    -0.335 A  
HETATM   22  C   UNL     1      -8.930   8.489  72.347  1.00  0.00    -0.284 A  
HETATM   23  C   UNL     1      -9.337   7.624  73.356  1.00  0.00    -0.268 A  
HETATM   24  C   UNL     1     -10.683   7.381  73.589  1.00  0.00    -0.241 A  
HETATM   25  F   UNL     1      -8.413   7.029  74.123  1.00  0.00    -0.137 F  
HETATM   26  C   UNL     1     -11.645   8.006  72.796  1.00  0.00    -0.390 A  
ENDBRANCH  19  20
ENDBRANCH  17  19
ENDBRANCH  13  17
ENDBRANCH   6   8
ENDBRANCH   3   4
ENDBRANCH   2   3
TORSDOF 6
ENDMDL
MODEL       29
REMARK 921   NORMALIZED FREE ENERGY PREDICTED BY IDOCK:   -5.80 KCAL/MOL
REMARK 922        TOTAL FREE ENERGY PREDICTED BY IDOCK:   -8.54 KCAL/MOL
REMARK 923 INTER-LIGAND FREE ENERGY PREDICTED BY IDOCK:   -7.87 KCAL/MOL
REMARK 924 INTRA-LIGAND FREE ENERGY PREDICTED BY IDOCK:   -0.67 KCAL/MOL
REMARK 927      BINDING AFFINITY PREDICTED BY RF-SCORE:    0.00 PKD
ROOT
HETATM    1  C   UNL     1     -12.403  16.379  74.330  1.00  0.00    -0.561 C  
HETATM    2  C   UNL     1     -12.199  14.972  73.794  1.00  0.00    -0.503 C  
ENDROOT
BRANCH   2   3
HETATM    3  O   UNL     1     -13.430  14.550  73.193  1.00  0.00    -0.609 OA 
BRANCH   3   4
HETATM    4  C   UNL     1     -13.545  14.783  71.861  1.00  0.00    -0.398 C  
HETATM    5  O   UNL     1     -14.398  15.495  71.347  1.00  0.00    -0.531 OA 
HETATM    6  N   UNL     1     -12.464  14.212  71.251  1.00  0.00    -0.352 N  
HETATM    7  H   UNL     1     -12.018  13.407  71.692  1.00  0.00     0.000 HD 
BRANCH   6   8
HETATM    8  C   UNL     1     -11.944  14.698  70.033  1.00  0.00    -0.320 A  
HETATM    9  C   UNL     1     -11.311  15.946  69.897  1.00  0.00    -0.348 A  
HETATM   10  C   UNL     1     -10.859  16.325  68.622  1.00  0.00    -0.322 A  
HETATM   11  N   UNL     1     -11.376  16.925  70.913  1.00  0.00    -0.264 NA 
HETATM   12  H2  UNL     1     -11.045  16.498  71.779  1.00  0.00     0.000 HD 
HETATM   13  C   UNL     1     -10.970  15.477  67.510  1.00  0.00    -0.316 A  
HETATM   14  H1  UNL     1     -10.916  17.831  70.815  1.00  0.00     0.000 HD 
HETATM   15  C   UNL     1     -12.057  13.843  68.933  1.00  0.00    -0.355 A  
HETATM   16  C   UNL     1     -11.537  14.215  67.694  1.00  0.00    -0.394 A  
BRANCH  13  17
HETATM   17  N   UNL     1     -10.450  15.919  66.283  1.00  0.00    -0.309 NA 
HETATM   18  H   UNL     1     -11.058  16.261  65.539  1.00  0.00     0.000 HD 
BRANCH  17  19
HETATM   19  C   UNL     1      -9.000  15.868  66.120  1.00  0.00    -0.341 C  
BRANCH  19  20
HETATM   20  C   UNL     1      -8.388  17.250  66.082  1.00  0.00    -0.238 A  
HETATM   21  C   UNL     1      -9.225  18.373  66.209  1.00  0.00    -0.217 A  
HETATM   22  C   UNL     1      -8.687  19.660  66.247  1.00  0.00    -0.401 A  
HETATM   23  C   UNL     1      -7.310  19.829  66.167  1.00  0.00    -0.295 A  
HETATM   24  C   UNL     1      -6.462  18.736  66.063  1.00  0.00    -0.257 A  
HETATM   25  F   UNL     1      -6.797  21.066  66.206  1.00  0.00    -0.288 F  
HETATM   26  C   UNL     1      -6.995  17.447  66.032  1.00  0.00    -0.246 A  
ENDBRANCH  19  20
ENDBRANCH  17  19
ENDBRANCH  13  17
ENDBRANCH   6   8
ENDBRANCH   3   4
ENDBRANCH   2   3
TORSDOF 6
ENDMDL
MODEL       30
REMARK 921   NORMALIZED FREE ENERGY PREDICTED BY IDOCK:   -5.77 KCAL/MOL
REMARK 922        TOTAL FREE ENERGY PREDICTED BY IDOCK:   -8.50 KCAL/MOL
REMARK 923 INTER-LIGAND FREE ENERGY PREDICTED BY IDOCK:   -7.89 KCAL/MOL
REMARK 924 INTRA-LIGAND FREE ENERGY PREDICTED BY IDOCK:   -0.61 KCAL/MOL
REMARK 927      BINDING AFFINITY PREDICTED BY RF-SCORE:    0.00 PKD
ROOT
HETATM    1  C   UNL     1     -10.060   2.941  72.549  1.00  0.00    -0.234 C  
HETATM    2  C   UNL     1     -10.132   4.436  72.287  1.00  0.00    -0.189 C  
ENDROOT
BRANCH   2   3
HETATM    3  O   UNL     1     -11.236   4.960  73.037  1.00  0.00    -0.279 OA 
BRANCH   3   4
HETATM    4  C   UNL     1     -11.248   6.307  73.204  1.00  0.00    -0.095 C  
HETATM    5  O   UNL     1     -10.450   6.933  73.889  1.00  0.00    -0.366 OA 
HETATM    6  N   UNL     1     -12.196   6.814  72.362  1.00  0.00    -0.513 N  
HETATM    7  H   UNL     1     -12.988   6.226  72.100  1.00  0.00     0.000 HD 
BRANCH   6   8
HETATM    8  C   UNL     1     -12.118   8.125  71.844  1.00  0.00    -0.323 A  
HETATM    9  C   UNL     1     -12.913   9.191  72.297  1.00  0.00    -0.420 A  
HETATM   10  C   UNL     1     -12.757  10.444  71.679  1.00  0.00    -0.560 A  
HETATM   11  N   UNL     1     -14.036   8.980  73.127  1.00  0.00    -1.215 NA 
HETATM   12  H2  UNL     1     -13.725   8.452  73.943  1.00  0.00     0.000 HD 
HETATM   13  C   UNL     1     -11.800  10.665  70.677  1.00  0.00    -0.363 A  
HETATM   14  H1  UNL     1     -14.613   9.754  73.456  1.00  0.00     0.000 HD 
HETATM   15  C   UNL     1     -11.159   8.334  70.849  1.00  0.00    -0.289 A  
HETATM   16  C   UNL     1     -10.976   9.603  70.302  1.00  0.00    -0.337 A  
BRANCH  13  17
HETATM   17  N   UNL     1     -11.681  11.960  70.148  1.00  0.00    -0.497 NA 
HETATM   18  H   UNL     1     -11.332  12.736  70.711  1.00  0.00     0.000 HD 
BRANCH  17  19
HETATM   19  C   UNL     1     -12.078  12.148  68.756  1.00  0.00    -0.113 C  
BRANCH  19  20
HETATM   20  C   UNL     1     -11.173  13.122  68.036  1.00  0.00    -0.308 A  
HETATM   21  C   UNL     1      -9.779  12.983  68.164  1.00  0.00    -0.228 A  
HETATM   22  C   UNL     1      -8.913  13.821  67.461  1.00  0.00    -0.201 A  
HETATM   23  C   UNL     1      -9.437  14.797  66.621  1.00  0.00    -0.273 A  
HETATM   24  C   UNL     1     -10.808  14.940  66.462  1.00  0.00    -0.322 A  
HETATM   25  F   UNL     1      -8.603  15.599  65.946  1.00  0.00    -0.335 F  
HETATM   26  C   UNL     1     -11.677  14.099  67.158  1.00  0.00    -0.430 A  
ENDBRANCH  19  20
ENDBRANCH  17  19
ENDBRANCH  13  17
ENDBRANCH   6   8
ENDBRANCH   3   4
ENDBRANCH   2   3
TORSDOF 6
ENDMDL
MODEL       31
REMARK 921   NORMALIZED FREE ENERGY PREDICTED BY IDOCK:   -5.73 KCAL/MOL
REMARK 922        TOTAL FREE ENERGY PREDICTED BY IDOCK:   -8.45 KCAL/MOL
REMARK 923 INTER-LIGAND FREE ENERGY PREDICTED BY IDOCK:   -7.64 KCAL/MOL
REMARK 924 INTRA-LIGAND FREE ENERGY PREDICTED BY IDOCK:   -0.80 KCAL/MOL
REMARK 927      BINDING AFFINITY PREDICTED BY RF-SCORE:    0.00 PKD
ROOT
HETATM    1  C   UNL     1      -7.969  20.433  67.357  1.00  0.00    -0.361 C  
HETATM    2  C   UNL     1      -8.380  19.672  66.108  1.00  0.00    -0.335 C  
ENDROOT
BRANCH   2   3
HETATM    3  O   UNL     1      -9.793  19.441  66.182  1.00  0.00    -0.378 OA 
BRANCH   3   4
HETATM    4  C   UNL     1     -10.168  18.256  66.727  1.00  0.00    -0.378 C  
HETATM    5  O   UNL     1     -10.954  18.132  67.657  1.00  0.00    -0.324 OA 
HETATM    6  N   UNL     1      -9.632  17.264  65.956  1.00  0.00    -0.192 N  
HETATM    7  H   UNL     1      -8.773  17.452  65.440  1.00  0.00     0.000 HD 
BRANCH   6   8
HETATM    8  C   UNL     1     -10.227  15.989  65.851  1.00  0.00    -0.365 A  
HETATM    9  C   UNL     1     -11.063  15.604  64.789  1.00  0.00    -0.412 A  
HETATM   10  C   UNL     1     -11.615  14.312  64.814  1.00  0.00    -0.404 A  
HETATM   11  N   UNL     1     -11.584  16.546  63.875  1.00  0.00    -1.578 NA 
HETATM   12  H2  UNL     1     -10.799  17.068  63.483  1.00  0.00     0.000 HD 
HETATM   13  C   UNL     1     -11.309  13.392  65.828  1.00  0.00    -0.305 A  
HETATM   14  H1  UNL     1     -12.191  16.267  63.104  1.00  0.00     0.000 HD 
HETATM   15  C   UNL     1      -9.913  15.079  66.865  1.00  0.00    -0.247 A  
HETATM   16  C   UNL     1     -10.418  13.781  66.828  1.00  0.00    -0.270 A  
BRANCH  13  17
HETATM   17  N   UNL     1     -11.870  12.106  65.749  1.00  0.00    -0.513 NA 
HETATM   18  H   UNL     1     -12.374  11.696  66.536  1.00  0.00     0.000 HD 
BRANCH  17  19
HETATM   19  C   UNL     1     -11.700  11.384  64.493  1.00  0.00     0.110 C  
BRANCH  19  20
HETATM   20  C   UNL     1     -10.391  10.628  64.448  1.00  0.00    -0.347 A  
HETATM   21  C   UNL     1     -10.018   9.842  65.553  1.00  0.00    -0.329 A  
HETATM   22  C   UNL     1      -8.851   9.078  65.520  1.00  0.00    -0.233 A  
HETATM   23  C   UNL     1      -8.057   9.090  64.379  1.00  0.00    -0.146 A  
HETATM   24  C   UNL     1      -8.415   9.841  63.268  1.00  0.00    -0.181 A  
HETATM   25  F   UNL     1      -6.938   8.354  64.349  1.00  0.00    -0.070 F  
HETATM   26  C   UNL     1      -9.585  10.601  63.295  1.00  0.00    -0.382 A  
ENDBRANCH  19  20
ENDBRANCH  17  19
ENDBRANCH  13  17
ENDBRANCH   6   8
ENDBRANCH   3   4
ENDBRANCH   2   3
TORSDOF 6
ENDMDL
MODEL       32
REMARK 921   NORMALIZED FREE ENERGY PREDICTED BY IDOCK:   -5.69 KCAL/MOL
REMARK 922        TOTAL FREE ENERGY PREDICTED BY IDOCK:   -8.39 KCAL/MOL
REMARK 923 INTER-LIGAND FREE ENERGY PREDICTED BY IDOCK:   -7.61 KCAL/MOL
REMARK 924 INTRA-LIGAND FREE ENERGY PREDICTED BY IDOCK:   -0.78 KCAL/MOL
REMARK 927      BINDING AFFINITY PREDICTED BY RF-SCORE:    0.00 PKD
ROOT
HETATM    1  C   UNL     1     -11.052  11.835  63.423  1.00  0.00    -0.448 C  
HETATM    2  C   UNL     1     -12.270  12.743  63.435  1.00  0.00    -0.504 C  
ENDROOT
BRANCH   2   3
HETATM    3  O   UNL     1     -13.010  12.465  64.631  1.00  0.00    -0.793 OA 
BRANCH   3   4
HETATM    4  C   UNL     1     -12.389  12.783  65.795  1.00  0.00    -0.323 C  
HETATM    5  O   UNL     1     -11.985  11.970  66.616  1.00  0.00    -0.614 OA 
HETATM    6  N   UNL     1     -12.174  14.132  65.789  1.00  0.00    -0.431 N  
HETATM    7  H   UNL     1     -12.805  14.729  65.253  1.00  0.00     0.000 HD 
BRANCH   6   8
HETATM    8  C   UNL     1     -11.110  14.728  66.499  1.00  0.00    -0.334 A  
HETATM    9  C   UNL     1     -11.172  15.060  67.864  1.00  0.00    -0.323 A  
HETATM   10  C   UNL     1     -10.051  15.674  68.448  1.00  0.00    -0.214 A  
HETATM   11  N   UNL     1     -12.394  15.063  68.571  1.00  0.00    -0.579 NA 
HETATM   12  H2  UNL     1     -12.826  14.146  68.452  1.00  0.00     0.000 HD 
HETATM   13  C   UNL     1      -8.870  15.906  67.728  1.00  0.00    -0.175 A  
HETATM   14  H1  UNL     1     -12.439  15.304  69.562  1.00  0.00     0.000 HD 
HETATM   15  C   UNL     1      -9.937  14.951  65.772  1.00  0.00    -0.376 A  
HETATM   16  C   UNL     1      -8.816  15.497  66.395  1.00  0.00    -0.359 A  
BRANCH  13  17
HETATM   17  N   UNL     1      -7.783  16.483  68.404  1.00  0.00    -0.180 NA 
HETATM   18  H   UNL     1      -6.941  15.946  68.616  1.00  0.00     0.000 HD 
BRANCH  17  19
HETATM   19  C   UNL     1      -7.909  17.884  68.791  1.00  0.00    -0.253 C  
BRANCH  19  20
HETATM   20  C   UNL     1      -7.373  18.815  67.726  1.00  0.00    -0.250 A  
HETATM   21  C   UNL     1      -6.510  18.302  66.741  1.00  0.00    -0.209 A  
HETATM   22  C   UNL     1      -6.051  19.115  65.705  1.00  0.00    -0.246 A  
HETATM   23  C   UNL     1      -6.460  20.442  65.644  1.00  0.00    -0.246 A  
HETATM   24  C   UNL     1      -7.328  20.966  66.591  1.00  0.00    -0.142 A  
HETATM   25  F   UNL     1      -6.019  21.220  64.646  1.00  0.00    -0.281 F  
HETATM   26  C   UNL     1      -7.794  20.154  67.625  1.00  0.00    -0.335 A  
ENDBRANCH  19  20
ENDBRANCH  17  19
ENDBRANCH  13  17
ENDBRANCH   6   8
ENDBRANCH   3   4
ENDBRANCH   2   3
TORSDOF 6
ENDMDL
MODEL       33
REMARK 921   NORMALIZED FREE ENERGY PREDICTED BY IDOCK:   -5.68 KCAL/MOL
REMARK 922        TOTAL FREE ENERGY PREDICTED BY IDOCK:   -8.38 KCAL/MOL
REMARK 923 INTER-LIGAND FREE ENERGY PREDICTED BY IDOCK:   -8.06 KCAL/MOL
REMARK 924 INTRA-LIGAND FREE ENERGY PREDICTED BY IDOCK:   -0.32 KCAL/MOL
REMARK 927      BINDING AFFINITY PREDICTED BY RF-SCORE:    0.00 PKD
ROOT
HETATM    1  C   UNL     1     -11.667   6.476  70.185  1.00  0.00    -0.419 C  
HETATM    2  C   UNL     1     -11.757   6.430  71.701  1.00  0.00    -0.313 C  
ENDROOT
BRANCH   2   3
HETATM    3  O   UNL     1     -12.570   7.532  72.125  1.00  0.00    -0.258 OA 
BRANCH   3   4
HETATM    4  C   UNL     1     -11.965   8.746  72.120  1.00  0.00    -0.366 C  
HETATM    5  O   UNL     1     -10.761   8.928  72.244  1.00  0.00    -0.320 OA 
HETATM    6  N   UNL     1     -12.915   9.676  71.803  1.00  0.00    -0.387 N  
HETATM    7  H   UNL     1     -13.890   9.482  72.035  1.00  0.00     0.000 HD 
BRANCH   6   8
HETATM    8  C   UNL     1     -12.594  10.893  71.167  1.00  0.00    -0.428 A  
HETATM    9  C   UNL     1     -12.958  12.155  71.668  1.00  0.00    -0.321 A  
HETATM   10  C   UNL     1     -12.599  13.292  70.925  1.00  0.00    -0.386 A  
HETATM   11  N   UNL     1     -13.898  12.295  72.712  1.00  0.00    -0.418 NA 
HETATM   12  H2  UNL     1     -13.580  11.726  73.497  1.00  0.00     0.000 HD 
HETATM   13  C   UNL     1     -11.848  13.203  69.743  1.00  0.00    -0.316 A  
HETATM   14  H1  UNL     1     -14.162  13.211  73.076  1.00  0.00     0.000 HD 
HETATM   15  C   UNL     1     -11.842  10.792  69.993  1.00  0.00    -0.424 A  
HETATM   16  C   UNL     1     -11.439  11.940  69.312  1.00  0.00    -0.366 A  
BRANCH  13  17
HETATM   17  N   UNL     1     -11.495  14.395  69.089  1.00  0.00    -0.276 NA 
HETATM   18  H   UNL     1     -12.002  15.264  69.257  1.00  0.00     0.000 HD 
BRANCH  17  19
HETATM   19  C   UNL     1     -10.372  14.335  68.159  1.00  0.00    -0.233 C  
BRANCH  19  20
HETATM   20  C   UNL     1     -10.819  13.992  66.755  1.00  0.00    -0.294 A  
HETATM   21  C   UNL     1     -12.186  14.078  66.433  1.00  0.00    -0.492 A  
HETATM   22  C   UNL     1     -12.625  13.836  65.131  1.00  0.00    -0.471 A  
HETATM   23  C   UNL     1     -11.700  13.515  64.145  1.00  0.00    -0.411 A  
HETATM   24  C   UNL     1     -10.344  13.445  64.433  1.00  0.00    -0.347 A  
HETATM   25  F   UNL     1     -12.125  13.284  62.895  1.00  0.00    -0.585 F  
HETATM   26  C   UNL     1      -9.900  13.693  65.733  1.00  0.00    -0.230 A  
ENDBRANCH  19  20
ENDBRANCH  17  19
ENDBRANCH  13  17
ENDBRANCH   6   8
ENDBRANCH   3   4
ENDBRANCH   2   3
TORSDOF 6
ENDMDL
MODEL       34
REMARK 921   NORMALIZED FREE ENERGY PREDICTED BY IDOCK:   -5.68 KCAL/MOL
REMARK 922        TOTAL FREE ENERGY PREDICTED BY IDOCK:   -8.37 KCAL/MOL
REMARK 923 INTER-LIGAND FREE ENERGY PREDICTED BY IDOCK:   -7.76 KCAL/MOL
REMARK 924 INTRA-LIGAND FREE ENERGY PREDICTED BY IDOCK:   -0.61 KCAL/MOL
REMARK 927      BINDING AFFINITY PREDICTED BY RF-SCORE:    0.00 PKD
ROOT
HETATM    1  C   UNL     1      -7.858  20.226  67.016  1.00  0.00    -0.368 C  
HETATM    2  C   UNL     1      -8.373  18.875  66.550  1.00  0.00    -0.302 C  
ENDROOT
BRANCH   2   3
HETATM    3  O   UNL     1      -9.740  19.041  66.150  1.00  0.00    -0.381 OA 
BRANCH   3   4
HETATM    4  C   UNL     1     -10.471  17.901  66.063  1.00  0.00    -0.293 C  
HETATM    5  O   UNL     1     -10.978  17.472  65.036  1.00  0.00    -0.754 OA 
HETATM    6  N   UNL     1     -10.395  17.274  67.275  1.00  0.00    -0.327 N  
HETATM    7  H   UNL     1     -10.242  17.836  68.112  1.00  0.00     0.000 HD 
BRANCH   6   8
HETATM    8  C   UNL     1     -10.521  15.874  67.407  1.00  0.00    -0.306 A  
HETATM    9  C   UNL     1      -9.529  14.961  67.011  1.00  0.00    -0.229 A  
HETATM   10  C   UNL     1      -9.788  13.589  67.172  1.00  0.00    -0.245 A  
HETATM   11  N   UNL     1      -8.434  15.356  66.211  1.00  0.00    -0.404 NA 
HETATM   12  H2  UNL     1      -7.973  16.137  66.677  1.00  0.00     0.000 HD 
HETATM   13  C   UNL     1     -10.971  13.120  67.763  1.00  0.00    -0.251 A  
HETATM   14  H1  UNL     1      -7.714  14.692  65.924  1.00  0.00     0.000 HD 
HETATM   15  C   UNL     1     -11.702  15.418  68.000  1.00  0.00    -0.235 A  
HETATM   16  C   UNL     1     -11.903  14.056  68.212  1.00  0.00    -0.406 A  
BRANCH  13  17
HETATM   17  N   UNL     1     -11.126  11.734  67.926  1.00  0.00    -0.228 NA 
HETATM   18  H   UNL     1     -11.781  11.200  67.354  1.00  0.00     0.000 HD 
BRANCH  17  19
HETATM   19  C   UNL     1     -10.310  11.090  68.950  1.00  0.00    -0.205 C  
BRANCH  19  20
HETATM   20  C   UNL     1     -11.156  10.472  70.041  1.00  0.00    -0.376 A  
HETATM   21  C   UNL     1     -10.594   9.476  70.860  1.00  0.00    -0.395 A  
HETATM   22  C   UNL     1     -11.323   8.932  71.919  1.00  0.00    -0.446 A  
HETATM   23  C   UNL     1     -12.612   9.388  72.168  1.00  0.00    -0.348 A  
HETATM   24  C   UNL     1     -13.180  10.384  71.386  1.00  0.00    -0.459 A  
HETATM   25  F   UNL     1     -13.309   8.865  73.186  1.00  0.00    -0.392 F  
HETATM   26  C   UNL     1     -12.453  10.935  70.331  1.00  0.00    -0.411 A  
ENDBRANCH  19  20
ENDBRANCH  17  19
ENDBRANCH  13  17
ENDBRANCH   6   8
ENDBRANCH   3   4
ENDBRANCH   2   3
TORSDOF 6
ENDMDL
MODEL       35
REMARK 921   NORMALIZED FREE ENERGY PREDICTED BY IDOCK:   -5.67 KCAL/MOL
REMARK 922        TOTAL FREE ENERGY PREDICTED BY IDOCK:   -8.36 KCAL/MOL
REMARK 923 INTER-LIGAND FREE ENERGY PREDICTED BY IDOCK:   -7.65 KCAL/MOL
REMARK 924 INTRA-LIGAND FREE ENERGY PREDICTED BY IDOCK:   -0.71 KCAL/MOL
REMARK 927      BINDING AFFINITY PREDICTED BY RF-SCORE:    0.00 PKD
ROOT
HETATM    1  C   UNL     1     -10.423   7.294  73.500  1.00  0.00    -0.421 C  
HETATM    2  C   UNL     1     -10.666   8.229  72.327  1.00  0.00    -0.329 C  
ENDROOT
BRANCH   2   3
HETATM    3  O   UNL     1     -11.989   8.765  72.462  1.00  0.00    -0.343 OA 
BRANCH   3   4
HETATM    4  C   UNL     1     -12.494   9.368  71.356  1.00  0.00    -0.352 C  
HETATM    5  O   UNL     1     -13.686   9.464  71.094  1.00  0.00    -0.304 OA 
HETATM    6  N   UNL     1     -11.452   9.959  70.700  1.00  0.00    -0.308 N  
HETATM    7  H   UNL     1     -10.516   9.565  70.805  1.00  0.00     0.000 HD 
BRANCH   6   8
HETATM    8  C   UNL     1     -11.624  11.097  69.883  1.00  0.00    -0.337 A  
HETATM    9  C   UNL     1     -11.554  11.067  68.480  1.00  0.00    -0.310 A  
HETATM   10  C   UNL     1     -11.719  12.275  67.782  1.00  0.00    -0.403 A  
HETATM   11  N   UNL     1     -11.048   9.946  67.786  1.00  0.00    -0.473 NA 
HETATM   12  H2  UNL     1     -11.574   9.127  68.091  1.00  0.00     0.000 HD 
HETATM   13  C   UNL     1     -12.005  13.481  68.439  1.00  0.00    -0.343 A  
HETATM   14  H1  UNL     1     -10.998   9.924  66.767  1.00  0.00     0.000 HD 
HETATM   15  C   UNL     1     -11.912  12.292  70.549  1.00  0.00    -0.296 A  
HETATM   16  C   UNL     1     -12.141  13.463  69.827  1.00  0.00    -0.374 A  
BRANCH  13  17
HETATM   17  N   UNL     1     -12.199  14.633  67.659  1.00  0.00    -0.587 NA 
HETATM   18  H   UNL     1     -12.963  15.282  67.848  1.00  0.00     0.000 HD 
BRANCH  17  19
HETATM   19  C   UNL     1     -11.261  14.860  66.564  1.00  0.00    -0.335 C  
BRANCH  19  20
HETATM   20  C   UNL     1     -10.300  15.987  66.869  1.00  0.00    -0.289 A  
HETATM   21  C   UNL     1     -10.537  16.803  67.990  1.00  0.00    -0.347 A  
HETATM   22  C   UNL     1      -9.635  17.809  68.340  1.00  0.00    -0.323 A  
HETATM   23  C   UNL     1      -8.489  17.997  67.577  1.00  0.00    -0.237 A  
HETATM   24  C   UNL     1      -8.222  17.191  66.479  1.00  0.00    -0.308 A  
HETATM   25  F   UNL     1      -7.624  18.962  67.917  1.00  0.00    -0.252 F  
HETATM   26  C   UNL     1      -9.118  16.180  66.130  1.00  0.00    -0.382 A  
ENDBRANCH  19  20
ENDBRANCH  17  19
ENDBRANCH  13  17
ENDBRANCH   6   8
ENDBRANCH   3   4
ENDBRANCH   2   3
TORSDOF 6
ENDMDL
MODEL       36
REMARK 921   NORMALIZED FREE ENERGY PREDICTED BY IDOCK:   -5.66 KCAL/MOL
REMARK 922        TOTAL FREE ENERGY PREDICTED BY IDOCK:   -8.36 KCAL/MOL
REMARK 923 INTER-LIGAND FREE ENERGY PREDICTED BY IDOCK:   -7.63 KCAL/MOL
REMARK 924 INTRA-LIGAND FREE ENERGY PREDICTED BY IDOCK:   -0.72 KCAL/MOL
REMARK 927      BINDING AFFINITY PREDICTED BY RF-SCORE:    0.00 PKD
ROOT
HETATM    1  C   UNL     1      -5.986  21.243  67.128  1.00  0.00    -0.415 C  
HETATM    2  C   UNL     1      -7.319  20.519  67.045  1.00  0.00    -0.322 C  
ENDROOT
BRANCH   2   3
HETATM    3  O   UNL     1      -7.588  19.947  68.332  1.00  0.00    -0.312 OA 
BRANCH   3   4
HETATM    4  C   UNL     1      -8.789  19.329  68.462  1.00  0.00    -0.369 C  
HETATM    5  O   UNL     1      -9.875  19.886  68.374  1.00  0.00    -0.384 OA 
HETATM    6  N   UNL     1      -8.550  17.987  68.553  1.00  0.00    -0.303 N  
HETATM    7  H   UNL     1      -7.658  17.670  68.933  1.00  0.00     0.000 HD 
BRANCH   6   8
HETATM    8  C   UNL     1      -9.496  17.025  68.138  1.00  0.00    -0.262 A  
HETATM    9  C   UNL     1      -9.631  16.586  66.809  1.00  0.00    -0.254 A  
HETATM   10  C   UNL     1     -10.630  15.641  66.522  1.00  0.00    -0.307 A  
HETATM   11  N   UNL     1      -9.006  17.261  65.738  1.00  0.00    -0.502 NA 
HETATM   12  H2  UNL     1      -8.010  17.325  65.947  1.00  0.00     0.000 HD 
HETATM   13  C   UNL     1     -11.445  15.091  67.523  1.00  0.00    -0.328 A  
HETATM   14  H1  UNL     1      -9.104  16.942  64.774  1.00  0.00     0.000 HD 
HETATM   15  C   UNL     1     -10.300  16.481  69.144  1.00  0.00    -0.316 A  
HETATM   16  C   UNL     1     -11.236  15.494  68.842  1.00  0.00    -0.306 A  
BRANCH  13  17
HETATM   17  N   UNL     1     -12.387  14.119  67.152  1.00  0.00    -0.572 NA 
HETATM   18  H   UNL     1     -13.209  13.927  67.726  1.00  0.00     0.000 HD 
BRANCH  17  19
HETATM   19  C   UNL     1     -12.141  13.395  65.909  1.00  0.00    -0.439 C  
BRANCH  19  20
HETATM   20  C   UNL     1     -11.355  12.124  66.142  1.00  0.00    -0.414 A  
HETATM   21  C   UNL     1     -11.491  11.451  67.370  1.00  0.00    -0.328 A  
HETATM   22  C   UNL     1     -10.834  10.241  67.594  1.00  0.00    -0.363 A  
HETATM   23  C   UNL     1     -10.046   9.694  66.589  1.00  0.00    -0.239 A  
HETATM   24  C   UNL     1      -9.913  10.327  65.361  1.00  0.00    -0.371 A  
HETATM   25  F   UNL     1      -9.418   8.530  66.806  1.00  0.00    -0.177 F  
HETATM   26  C   UNL     1     -10.573  11.534  65.131  1.00  0.00    -0.350 A  
ENDBRANCH  19  20
ENDBRANCH  17  19
ENDBRANCH  13  17
ENDBRANCH   6   8
ENDBRANCH   3   4
ENDBRANCH   2   3
TORSDOF 6
ENDMDL
MODEL       37
REMARK 921   NORMALIZED FREE ENERGY PREDICTED BY IDOCK:   -5.63 KCAL/MOL
REMARK 922        TOTAL FREE ENERGY PREDICTED BY IDOCK:   -8.31 KCAL/MOL
REMARK 923 INTER-LIGAND FREE ENERGY PREDICTED BY IDOCK:   -7.79 KCAL/MOL
REMARK 924 INTRA-LIGAND FREE ENERGY PREDICTED BY IDOCK:   -0.52 KCAL/MOL
REMARK 927      BINDING AFFINITY PREDICTED BY RF-SCORE:    0.00 PKD
ROOT
HETATM    1  C   UNL     1     -10.507  19.208  67.022  1.00  0.00    -0.530 C  
HETATM    2  C   UNL     1     -10.087  18.268  68.139  1.00  0.00    -0.379 C  
ENDROOT
BRANCH   2   3
HETATM    3  O   UNL     1     -11.151  17.330  68.345  1.00  0.00    -0.254 OA 
BRANCH   3   4
HETATM    4  C   UNL     1     -10.818  16.022  68.202  1.00  0.00    -0.322 C  
HETATM    5  O   UNL     1      -9.674  15.597  68.116  1.00  0.00    -0.203 OA 
HETATM    6  N   UNL     1     -11.966  15.292  68.326  1.00  0.00    -0.529 N  
HETATM    7  H   UNL     1     -12.855  15.725  68.074  1.00  0.00     0.000 HD 
BRANCH   6   8
HETATM    8  C   UNL     1     -11.964  13.959  68.791  1.00  0.00    -0.358 A  
HETATM    9  C   UNL     1     -12.219  13.599  70.125  1.00  0.00    -0.342 A  
HETATM   10  C   UNL     1     -12.161  12.237  70.467  1.00  0.00    -0.387 A  
HETATM   11  N   UNL     1     -12.241  14.558  71.161  1.00  0.00    -0.327 NA 
HETATM   12  H2  UNL     1     -12.908  15.284  70.901  1.00  0.00     0.000 HD 
HETATM   13  C   UNL     1     -11.917  11.240  69.510  1.00  0.00    -0.351 A  
HETATM   14  H1  UNL     1     -12.426  14.296  72.130  1.00  0.00     0.000 HD 
HETATM   15  C   UNL     1     -11.723  12.974  67.829  1.00  0.00    -0.405 A  
HETATM   16  C   UNL     1     -11.742  11.626  68.181  1.00  0.00    -0.365 A  
BRANCH  13  17
HETATM   17  N   UNL     1     -11.923   9.900  69.932  1.00  0.00    -0.464 NA 
HETATM   18  H   UNL     1     -12.081   9.136  69.275  1.00  0.00     0.000 HD 
BRANCH  17  19
HETATM   19  C   UNL     1     -11.693   9.650  71.351  1.00  0.00    -0.404 C  
BRANCH  19  20
HETATM   20  C   UNL     1     -11.426   8.188  71.631  1.00  0.00    -0.323 A  
HETATM   21  C   UNL     1     -11.426   7.276  70.560  1.00  0.00    -0.310 A  
HETATM   22  C   UNL     1     -11.118   5.932  70.771  1.00  0.00    -0.324 A  
HETATM   23  C   UNL     1     -10.799   5.496  72.052  1.00  0.00    -0.226 A  
HETATM   24  C   UNL     1     -10.772   6.380  73.121  1.00  0.00    -0.294 A  
HETATM   25  F   UNL     1     -10.502   4.204  72.251  1.00  0.00    -0.240 F  
HETATM   26  C   UNL     1     -11.074   7.726  72.912  1.00  0.00    -0.457 A  
ENDBRANCH  19  20
ENDBRANCH  17  19
ENDBRANCH  13  17
ENDBRANCH   6   8
ENDBRANCH   3   4
ENDBRANCH   2   3
TORSDOF 6
ENDMDL
MODEL       38
REMARK 921   NORMALIZED FREE ENERGY PREDICTED BY IDOCK:   -5.62 KCAL/MOL
REMARK 922        TOTAL FREE ENERGY PREDICTED BY IDOCK:   -8.30 KCAL/MOL
REMARK 923 INTER-LIGAND FREE ENERGY PREDICTED BY IDOCK:   -7.53 KCAL/MOL
REMARK 924 INTRA-LIGAND FREE ENERGY PREDICTED BY IDOCK:   -0.77 KCAL/MOL
REMARK 927      BINDING AFFINITY PREDICTED BY RF-SCORE:    0.00 PKD
ROOT
HETATM    1  C   UNL     1     -10.232   5.177  74.456  1.00  0.00    -0.303 C  
HETATM    2  C   UNL     1     -10.655   6.417  73.686  1.00  0.00    -0.269 C  
ENDROOT
BRANCH   2   3
HETATM    3  O   UNL     1     -11.463   5.992  72.581  1.00  0.00    -0.283 OA 
BRANCH   3   4
HETATM    4  C   UNL     1     -11.388   6.762  71.466  1.00  0.00    -0.275 C  
HETATM    5  O   UNL     1     -11.868   6.468  70.380  1.00  0.00    -0.400 OA 
HETATM    6  N   UNL     1     -10.827   7.954  71.830  1.00  0.00    -0.232 N  
HETATM    7  H   UNL     1     -10.194   7.976  72.630  1.00  0.00     0.000 HD 
BRANCH   6   8
HETATM    8  C   UNL     1     -11.095   9.154  71.138  1.00  0.00    -0.323 A  
HETATM    9  C   UNL     1     -10.271   9.667  70.121  1.00  0.00    -0.264 A  
HETATM   10  C   UNL     1     -10.634  10.887  69.525  1.00  0.00    -0.217 A  
HETATM   11  N   UNL     1      -8.974   9.158  69.889  1.00  0.00    -0.160 NA 
HETATM   12  H2  UNL     1      -9.054   8.151  69.749  1.00  0.00     0.000 HD 
HETATM   13  C   UNL     1     -11.812  11.564  69.876  1.00  0.00    -0.355 A  
HETATM   14  H1  UNL     1      -8.376   9.531  69.150  1.00  0.00     0.000 HD 
HETATM   15  C   UNL     1     -12.272   9.818  71.493  1.00  0.00    -0.493 A  
HETATM   16  C   UNL     1     -12.645  10.990  70.837  1.00  0.00    -0.488 A  
BRANCH  13  17
HETATM   17  N   UNL     1     -12.120  12.754  69.197  1.00  0.00    -0.223 NA 
HETATM   18  H   UNL     1     -13.030  13.204  69.298  1.00  0.00     0.000 HD 
BRANCH  17  19
HETATM   19  C   UNL     1     -11.082  13.319  68.341  1.00  0.00    -0.270 C  
BRANCH  19  20
HETATM   20  C   UNL     1     -11.484  13.308  66.883  1.00  0.00    -0.376 A  
HETATM   21  C   UNL     1     -11.647  14.532  66.210  1.00  0.00    -0.364 A  
HETATM   22  C   UNL     1     -11.951  14.559  64.849  1.00  0.00    -0.425 A  
HETATM   23  C   UNL     1     -12.085  13.364  64.153  1.00  0.00    -0.433 A  
HETATM   24  C   UNL     1     -11.908  12.144  64.790  1.00  0.00    -0.385 A  
HETATM   25  F   UNL     1     -12.376  13.393  62.845  1.00  0.00    -0.575 F  
HETATM   26  C   UNL     1     -11.598  12.113  66.150  1.00  0.00    -0.418 A  
ENDBRANCH  19  20
ENDBRANCH  17  19
ENDBRANCH  13  17
ENDBRANCH   6   8
ENDBRANCH   3   4
ENDBRANCH   2   3
TORSDOF 6
ENDMDL
MODEL       39
REMARK 921   NORMALIZED FREE ENERGY PREDICTED BY IDOCK:   -5.62 KCAL/MOL
REMARK 922        TOTAL FREE ENERGY PREDICTED BY IDOCK:   -8.29 KCAL/MOL
REMARK 923 INTER-LIGAND FREE ENERGY PREDICTED BY IDOCK:   -7.31 KCAL/MOL
REMARK 924 INTRA-LIGAND FREE ENERGY PREDICTED BY IDOCK:   -0.98 KCAL/MOL
REMARK 927      BINDING AFFINITY PREDICTED BY RF-SCORE:    0.00 PKD
ROOT
HETATM    1  C   UNL     1     -13.530   9.534  72.104  1.00  0.00    -0.535 C  
HETATM    2  C   UNL     1     -12.536  10.252  71.206  1.00  0.00    -0.418 C  
ENDROOT
BRANCH   2   3
HETATM    3  O   UNL     1     -11.648   9.267  70.661  1.00  0.00    -0.267 OA 
BRANCH   3   4
HETATM    4  C   UNL     1     -10.831   9.698  69.667  1.00  0.00    -0.244 C  
HETATM    5  O   UNL     1     -10.410   8.999  68.755  1.00  0.00    -0.207 OA 
HETATM    6  N   UNL     1     -10.705  11.052  69.800  1.00  0.00    -0.452 N  
HETATM    7  H   UNL     1     -10.810  11.468  70.725  1.00  0.00     0.000 HD 
BRANCH   6   8
HETATM    8  C   UNL     1     -10.435  11.894  68.700  1.00  0.00    -0.212 A  
HETATM    9  C   UNL     1      -9.140  12.168  68.227  1.00  0.00    -0.191 A  
HETATM   10  C   UNL     1      -9.004  13.045  67.137  1.00  0.00    -0.223 A  
HETATM   11  N   UNL     1      -7.991  11.831  68.974  1.00  0.00    -0.347 NA 
HETATM   12  H2  UNL     1      -8.041  10.835  69.191  1.00  0.00     0.000 HD 
HETATM   13  C   UNL     1     -10.116  13.598  66.484  1.00  0.00    -0.286 A  
HETATM   14  H1  UNL     1      -7.050  12.030  68.631  1.00  0.00     0.000 HD 
HETATM   15  C   UNL     1     -11.550  12.437  68.055  1.00  0.00    -0.403 A  
HETATM   16  C   UNL     1     -11.390  13.248  66.932  1.00  0.00    -0.351 A  
BRANCH  13  17
HETATM   17  N   UNL     1      -9.888  14.429  65.375  1.00  0.00    -0.541 NA 
HETATM   18  H   UNL     1      -9.293  14.133  64.601  1.00  0.00     0.000 HD 
BRANCH  17  19
HETATM   19  C   UNL     1     -10.540  15.735  65.377  1.00  0.00    -0.421 C  
BRANCH  19  20
HETATM   20  C   UNL     1      -9.852  16.708  66.308  1.00  0.00    -0.329 A  
HETATM   21  C   UNL     1     -10.592  17.299  67.348  1.00  0.00    -0.303 A  
HETATM   22  C   UNL     1      -9.974  18.148  68.266  1.00  0.00    -0.380 A  
HETATM   23  C   UNL     1      -8.613  18.404  68.153  1.00  0.00    -0.284 A  
HETATM   24  C   UNL     1      -7.857  17.817  67.148  1.00  0.00    -0.229 A  
HETATM   25  F   UNL     1      -8.022  19.219  69.037  1.00  0.00    -0.369 F  
HETATM   26  C   UNL     1      -8.470  16.961  66.233  1.00  0.00    -0.322 A  
ENDBRANCH  19  20
ENDBRANCH  17  19
ENDBRANCH  13  17
ENDBRANCH   6   8
ENDBRANCH   3   4
ENDBRANCH   2   3
TORSDOF 6
ENDMDL
MODEL       40
REMARK 921   NORMALIZED FREE ENERGY PREDICTED BY IDOCK:   -5.59 KCAL/MOL
REMARK 922        TOTAL FREE ENERGY PREDICTED BY IDOCK:   -8.26 KCAL/MOL
REMARK 923 INTER-LIGAND FREE ENERGY PREDICTED BY IDOCK:   -7.73 KCAL/MOL
REMARK 924 INTRA-LIGAND FREE ENERGY PREDICTED BY IDOCK:   -0.53 KCAL/MOL
REMARK 927      BINDING AFFINITY PREDICTED BY RF-SCORE:    0.00 PKD
ROOT
HETATM    1  C   UNL     1      -7.767  10.167  62.840  1.00  0.00    -0.148 C  
HETATM    2  C   UNL     1      -9.264  10.102  63.088  1.00  0.00    -0.289 C  
ENDROOT
BRANCH   2   3
HETATM    3  O   UNL     1      -9.834  11.343  62.653  1.00  0.00    -0.240 OA 
BRANCH   3   4
HETATM    4  C   UNL     1     -10.681  11.941  63.529  1.00  0.00    -0.442 C  
HETATM    5  O   UNL     1     -11.753  11.478  63.893  1.00  0.00    -0.327 OA 
HETATM    6  N   UNL     1     -10.045  13.045  64.022  1.00  0.00    -0.612 N  
HETATM    7  H   UNL     1      -9.339  13.506  63.447  1.00  0.00     0.000 HD 
BRANCH   6   8
HETATM    8  C   UNL     1     -10.331  13.571  65.300  1.00  0.00    -0.331 A  
HETATM    9  C   UNL     1     -11.554  14.176  65.638  1.00  0.00    -0.339 A  
HETATM   10  C   UNL     1     -11.706  14.683  66.940  1.00  0.00    -0.366 A  
HETATM   11  N   UNL     1     -12.499  14.540  64.654  1.00  0.00    -0.601 NA 
HETATM   12  H2  UNL     1     -12.704  13.711  64.096  1.00  0.00     0.000 HD 
HETATM   13  C   UNL     1     -10.702  14.550  67.912  1.00  0.00    -0.245 A  
HETATM   14  H1  UNL     1     -13.387  14.979  64.899  1.00  0.00     0.000 HD 
HETATM   15  C   UNL     1      -9.326  13.429  66.261  1.00  0.00    -0.137 A  
HETATM   16  C   UNL     1      -9.529  13.879  67.565  1.00  0.00    -0.216 A  
BRANCH  13  17
HETATM   17  N   UNL     1     -10.957  15.046  69.201  1.00  0.00    -0.249 NA 
HETATM   18  H   UNL     1     -10.229  15.508  69.747  1.00  0.00     0.000 HD 
BRANCH  17  19
HETATM   19  C   UNL     1     -12.308  14.873  69.725  1.00  0.00    -0.244 C  
BRANCH  19  20
HETATM   20  C   UNL     1     -12.481  13.534  70.407  1.00  0.00    -0.345 A  
HETATM   21  C   UNL     1     -13.274  13.455  71.566  1.00  0.00    -0.395 A  
HETATM   22  C   UNL     1     -13.511  12.226  72.182  1.00  0.00    -0.431 A  
HETATM   23  C   UNL     1     -12.964  11.071  71.638  1.00  0.00    -0.456 A  
HETATM   24  C   UNL     1     -12.196  11.120  70.483  1.00  0.00    -0.475 A  
HETATM   25  F   UNL     1     -13.195   9.892  72.232  1.00  0.00    -0.473 F  
HETATM   26  C   UNL     1     -11.962  12.346  69.860  1.00  0.00    -0.369 A  
ENDBRANCH  19  20
ENDBRANCH  17  19
ENDBRANCH  13  17
ENDBRANCH   6   8
ENDBRANCH   3   4
ENDBRANCH   2   3
TORSDOF 6
ENDMDL
MODEL       41
REMARK 921   NORMALIZED FREE ENERGY PREDICTED BY IDOCK:   -5.58 KCAL/MOL
REMARK 922        TOTAL FREE ENERGY PREDICTED BY IDOCK:   -8.25 KCAL/MOL
REMARK 923 INTER-LIGAND FREE ENERGY PREDICTED BY IDOCK:   -7.49 KCAL/MOL
REMARK 924 INTRA-LIGAND FREE ENERGY PREDICTED BY IDOCK:   -0.75 KCAL/MOL
REMARK 927      BINDING AFFINITY PREDICTED BY RF-SCORE:    0.00 PKD
ROOT
HETATM    1  C   UNL     1     -11.055   6.464  67.593  1.00  0.00    -0.388 C  
HETATM    2  C   UNL     1     -10.289   7.773  67.501  1.00  0.00    -0.264 C  
ENDROOT
BRANCH   2   3
HETATM    3  O   UNL     1     -10.286   8.370  68.804  1.00  0.00    -0.208 OA 
BRANCH   3   4
HETATM    4  C   UNL     1     -10.316   9.727  68.829  1.00  0.00    -0.208 C  
HETATM    5  O   UNL     1      -9.479  10.435  69.373  1.00  0.00    -0.216 OA 
HETATM    6  N   UNL     1     -11.344  10.128  68.023  1.00  0.00    -0.523 N  
HETATM    7  H   UNL     1     -12.141   9.504  67.893  1.00  0.00     0.000 HD 
BRANCH   6   8
HETATM    8  C   UNL     1     -11.341  11.376  67.365  1.00  0.00    -0.288 A  
HETATM    9  C   UNL     1     -10.889  11.561  66.046  1.00  0.00    -0.276 A  
HETATM   10  C   UNL     1     -10.914  12.861  65.514  1.00  0.00    -0.301 A  
HETATM   11  N   UNL     1     -10.162  10.562  65.364  1.00  0.00    -0.286 NA 
HETATM   12  H2  UNL     1     -10.712   9.703  65.389  1.00  0.00     0.000 HD 
HETATM   13  C   UNL     1     -11.424  13.951  66.235  1.00  0.00    -0.339 A  
HETATM   14  H1  UNL     1      -9.834  10.696  64.407  1.00  0.00     0.000 HD 
HETATM   15  C   UNL     1     -11.855  12.454  68.091  1.00  0.00    -0.372 A  
HETATM   16  C   UNL     1     -11.932  13.720  67.513  1.00  0.00    -0.411 A  
BRANCH  13  17
HETATM   17  N   UNL     1     -11.452  15.207  65.607  1.00  0.00    -0.255 NA 
HETATM   18  H   UNL     1     -12.309  15.578  65.195  1.00  0.00     0.000 HD 
BRANCH  17  19
HETATM   19  C   UNL     1     -10.202  15.960  65.570  1.00  0.00    -0.365 C  
BRANCH  19  20
HETATM   20  C   UNL     1     -10.213  17.121  66.538  1.00  0.00    -0.322 A  
HETATM   21  C   UNL     1     -10.637  18.384  66.087  1.00  0.00    -0.346 A  
HETATM   22  C   UNL     1     -10.724  19.462  66.969  1.00  0.00    -0.582 A  
HETATM   23  C   UNL     1     -10.396  19.279  68.307  1.00  0.00    -0.380 A  
HETATM   24  C   UNL     1      -9.996  18.038  68.781  1.00  0.00    -0.380 A  
HETATM   25  F   UNL     1     -10.482  20.316  69.152  1.00  0.00    -0.509 F  
HETATM   26  C   UNL     1      -9.914  16.956  67.903  1.00  0.00    -0.274 A  
ENDBRANCH  19  20
ENDBRANCH  17  19
ENDBRANCH  13  17
ENDBRANCH   6   8
ENDBRANCH   3   4
ENDBRANCH   2   3
TORSDOF 6
ENDMDL
MODEL       42
REMARK 921   NORMALIZED FREE ENERGY PREDICTED BY IDOCK:   -5.58 KCAL/MOL
REMARK 922        TOTAL FREE ENERGY PREDICTED BY IDOCK:   -8.24 KCAL/MOL
REMARK 923 INTER-LIGAND FREE ENERGY PREDICTED BY IDOCK:   -7.67 KCAL/MOL
REMARK 924 INTRA-LIGAND FREE ENERGY PREDICTED BY IDOCK:   -0.58 KCAL/MOL
REMARK 927      BINDING AFFINITY PREDICTED BY RF-SCORE:    0.00 PKD
ROOT
HETATM    1  C   UNL     1      -9.943   4.069  72.008  1.00  0.00    -0.246 C  
HETATM    2  C   UNL     1     -10.679   4.878  73.062  1.00  0.00    -0.244 C  
ENDROOT
BRANCH   2   3
HETATM    3  O   UNL     1     -11.682   5.657  72.396  1.00  0.00    -0.277 OA 
BRANCH   3   4
HETATM    4  C   UNL     1     -11.554   7.003  72.510  1.00  0.00    -0.206 C  
HETATM    5  O   UNL     1     -10.780   7.569  73.271  1.00  0.00    -0.375 OA 
HETATM    6  N   UNL     1     -12.320   7.571  71.532  1.00  0.00    -0.325 N  
HETATM    7  H   UNL     1     -13.136   7.064  71.189  1.00  0.00     0.000 HD 
BRANCH   6   8
HETATM    8  C   UNL     1     -12.020   8.835  70.980  1.00  0.00    -0.251 A  
HETATM    9  C   UNL     1     -11.078   9.035  69.956  1.00  0.00    -0.182 A  
HETATM   10  C   UNL     1     -10.852  10.348  69.510  1.00  0.00    -0.295 A  
HETATM   11  N   UNL     1     -10.169   8.023  69.576  1.00  0.00    -0.205 NA 
HETATM   12  H2  UNL     1     -10.708   7.188  69.347  1.00  0.00     0.000 HD 
HETATM   13  C   UNL     1     -11.575  11.440  70.015  1.00  0.00    -0.299 A  
HETATM   14  H1  UNL     1      -9.485   8.169  68.833  1.00  0.00     0.000 HD 
HETATM   15  C   UNL     1     -12.748   9.914  71.488  1.00  0.00    -0.515 A  
HETATM   16  C   UNL     1     -12.554  11.197  70.978  1.00  0.00    -0.503 A  
BRANCH  13  17
HETATM   17  N   UNL     1     -11.316  12.712  69.479  1.00  0.00    -0.448 NA 
HETATM   18  H   UNL     1     -10.388  12.968  69.140  1.00  0.00     0.000 HD 
BRANCH  17  19
HETATM   19  C   UNL     1     -12.431  13.652  69.429  1.00  0.00     0.008 C  
BRANCH  19  20
HETATM   20  C   UNL     1     -12.554  14.451  70.707  1.00  0.00    -0.426 A  
HETATM   21  C   UNL     1     -13.830  14.677  71.253  1.00  0.00    -0.420 A  
HETATM   22  C   UNL     1     -13.976  15.352  72.465  1.00  0.00    -0.640 A  
HETATM   23  C   UNL     1     -12.846  15.796  73.141  1.00  0.00    -0.522 A  
HETATM   24  C   UNL     1     -11.575  15.566  72.635  1.00  0.00    -0.503 A  
HETATM   25  F   UNL     1     -12.989  16.442  74.307  1.00  0.00    -0.477 F  
HETATM   26  C   UNL     1     -11.425  14.886  71.426  1.00  0.00    -0.317 A  
ENDBRANCH  19  20
ENDBRANCH  17  19
ENDBRANCH  13  17
ENDBRANCH   6   8
ENDBRANCH   3   4
ENDBRANCH   2   3
TORSDOF 6
ENDMDL
MODEL       43
REMARK 921   NORMALIZED FREE ENERGY PREDICTED BY IDOCK:   -5.56 KCAL/MOL
REMARK 922        TOTAL FREE ENERGY PREDICTED BY IDOCK:   -8.21 KCAL/MOL
REMARK 923 INTER-LIGAND FREE ENERGY PREDICTED BY IDOCK:   -7.54 KCAL/MOL
REMARK 924 INTRA-LIGAND FREE ENERGY PREDICTED BY IDOCK:   -0.68 KCAL/MOL
REMARK 927      BINDING AFFINITY PREDICTED BY RF-SCORE:    0.00 PKD
ROOT
HETATM    1  C   UNL     1      -9.899  19.801  65.985  1.00  0.00    -0.497 C  
HETATM    2  C   UNL     1     -10.455  18.483  66.498  1.00  0.00    -0.398 C  
ENDROOT
BRANCH   2   3
HETATM    3  O   UNL     1     -10.471  17.559  65.401  1.00  0.00    -0.647 OA 
BRANCH   3   4
HETATM    4  C   UNL     1      -9.978  16.323  65.667  1.00  0.00    -0.274 C  
HETATM    5  O   UNL     1      -8.894  16.100  66.189  1.00  0.00    -0.315 OA 
HETATM    6  N   UNL     1     -10.964  15.421  65.387  1.00  0.00    -0.362 N  
HETATM    7  H   UNL     1     -11.665  15.659  64.684  1.00  0.00     0.000 HD 
BRANCH   6   8
HETATM    8  C   UNL     1     -11.047  14.170  66.037  1.00  0.00    -0.314 A  
HETATM    9  C   UNL     1     -10.443  12.998  65.551  1.00  0.00    -0.285 A  
HETATM   10  C   UNL     1     -10.622  11.809  66.279  1.00  0.00    -0.292 A  
HETATM   11  N   UNL     1      -9.924  12.919  64.240  1.00  0.00    -0.621 NA 
HETATM   12  H2  UNL     1      -9.261  13.685  64.120  1.00  0.00     0.000 HD 
HETATM   13  C   UNL     1     -11.328  11.778  67.491  1.00  0.00    -0.310 A  
HETATM   14  H1  UNL     1      -9.485  12.068  63.887  1.00  0.00     0.000 HD 
HETATM   15  C   UNL     1     -11.750  14.152  67.245  1.00  0.00    -0.421 A  
HETATM   16  C   UNL     1     -11.853  12.974  67.982  1.00  0.00    -0.391 A  
BRANCH  13  17
HETATM   17  N   UNL     1     -11.419  10.555  68.175  1.00  0.00    -0.597 NA 
HETATM   18  H   UNL     1     -12.321  10.130  68.389  1.00  0.00     0.000 HD 
BRANCH  17  19
HETATM   19  C   UNL     1     -10.165   9.919  68.567  1.00  0.00    -0.177 C  
BRANCH  19  20
HETATM   20  C   UNL     1     -10.144   8.448  68.217  1.00  0.00    -0.232 A  
HETATM   21  C   UNL     1     -10.671   7.520  69.134  1.00  0.00    -0.163 A  
HETATM   22  C   UNL     1     -10.731   6.163  68.816  1.00  0.00    -0.370 A  
HETATM   23  C   UNL     1     -10.271   5.729  67.578  1.00  0.00    -0.196 A  
HETATM   24  C   UNL     1      -9.767   6.628  66.649  1.00  0.00    -0.210 A  
HETATM   25  F   UNL     1     -10.331   4.425  67.275  1.00  0.00    -0.188 F  
HETATM   26  C   UNL     1      -9.712   7.986  66.961  1.00  0.00    -0.275 A  
ENDBRANCH  19  20
ENDBRANCH  17  19
ENDBRANCH  13  17
ENDBRANCH   6   8
ENDBRANCH   3   4
ENDBRANCH   2   3
TORSDOF 6
ENDMDL
MODEL       44
REMARK 921   NORMALIZED FREE ENERGY PREDICTED BY IDOCK:   -5.56 KCAL/MOL
REMARK 922        TOTAL FREE ENERGY PREDICTED BY IDOCK:   -8.21 KCAL/MOL
REMARK 923 INTER-LIGAND FREE ENERGY PREDICTED BY IDOCK:   -7.63 KCAL/MOL
REMARK 924 INTRA-LIGAND FREE ENERGY PREDICTED BY IDOCK:   -0.59 KCAL/MOL
REMARK 927      BINDING AFFINITY PREDICTED BY RF-SCORE:    0.00 PKD
ROOT
HETATM    1  C   UNL     1      -8.794  19.749  66.100  1.00  0.00    -0.378 C  
HETATM    2  C   UNL     1     -10.311  19.662  66.106  1.00  0.00    -0.530 C  
ENDROOT
BRANCH   2   3
HETATM    3  O   UNL     1     -10.678  18.380  65.580  1.00  0.00    -0.588 OA 
BRANCH   3   4
HETATM    4  C   UNL     1     -10.463  17.323  66.403  1.00  0.00    -0.263 C  
HETATM    5  O   UNL     1     -10.678  17.320  67.608  1.00  0.00    -0.359 OA 
HETATM    6  N   UNL     1     -10.122  16.257  65.619  1.00  0.00    -0.337 N  
HETATM    7  H   UNL     1      -9.670  16.431  64.721  1.00  0.00     0.000 HD 
BRANCH   6   8
HETATM    8  C   UNL     1     -10.373  14.925  66.010  1.00  0.00    -0.299 A  
HETATM    9  C   UNL     1      -9.436  14.119  66.679  1.00  0.00    -0.289 A  
HETATM   10  C   UNL     1      -9.800  12.798  66.991  1.00  0.00    -0.231 A  
HETATM   11  N   UNL     1      -8.077  14.491  66.783  1.00  0.00    -0.361 NA 
HETATM   12  H2  UNL     1      -8.040  15.423  67.196  1.00  0.00     0.000 HD 
HETATM   13  C   UNL     1     -11.077  12.291  66.707  1.00  0.00    -0.296 A  
HETATM   14  H1  UNL     1      -7.397  13.906  67.269  1.00  0.00     0.000 HD 
HETATM   15  C   UNL     1     -11.650  14.432  65.725  1.00  0.00    -0.353 A  
HETATM   16  C   UNL     1     -12.008  13.141  66.109  1.00  0.00    -0.478 A  
BRANCH  13  17
HETATM   17  N   UNL     1     -11.370  10.974  67.095  1.00  0.00    -0.427 NA 
HETATM   18  H   UNL     1     -12.284  10.720  67.471  1.00  0.00     0.000 HD 
BRANCH  17  19
HETATM   19  C   UNL     1     -10.309   9.984  66.938  1.00  0.00    -0.234 C  
BRANCH  19  20
HETATM   20  C   UNL     1     -10.557   8.752  67.780  1.00  0.00    -0.256 A  
HETATM   21  C   UNL     1     -10.755   7.515  67.141  1.00  0.00    -0.379 A  
HETATM   22  C   UNL     1     -10.919   6.348  67.888  1.00  0.00    -0.416 A  
HETATM   23  C   UNL     1     -10.876   6.411  69.275  1.00  0.00    -0.327 A  
HETATM   24  C   UNL     1     -10.660   7.616  69.928  1.00  0.00    -0.237 A  
HETATM   25  F   UNL     1     -11.032   5.288  69.989  1.00  0.00    -0.360 F  
HETATM   26  C   UNL     1     -10.490   8.785  69.185  1.00  0.00    -0.230 A  
ENDBRANCH  19  20
ENDBRANCH  17  19
ENDBRANCH  13  17
ENDBRANCH   6   8
ENDBRANCH   3   4
ENDBRANCH   2   3
TORSDOF 6
ENDMDL
MODEL       45
REMARK 921   NORMALIZED FREE ENERGY PREDICTED BY IDOCK:   -5.55 KCAL/MOL
REMARK 922        TOTAL FREE ENERGY PREDICTED BY IDOCK:   -8.21 KCAL/MOL
REMARK 923 INTER-LIGAND FREE ENERGY PREDICTED BY IDOCK:   -7.55 KCAL/MOL
REMARK 924 INTRA-LIGAND FREE ENERGY PREDICTED BY IDOCK:   -0.66 KCAL/MOL
REMARK 927      BINDING AFFINITY PREDICTED BY RF-SCORE:    0.00 PKD
ROOT
HETATM    1  C   UNL     1     -13.353   9.379  72.339  1.00  0.00    -0.503 C  
HETATM    2  C   UNL     1     -13.006  10.647  71.578  1.00  0.00    -0.461 C  
ENDROOT
BRANCH   2   3
HETATM    3  O   UNL     1     -12.784  10.288  70.207  1.00  0.00    -0.236 OA 
BRANCH   3   4
HETATM    4  C   UNL     1     -12.140  11.215  69.453  1.00  0.00    -0.326 C  
HETATM    5  O   UNL     1     -12.145  11.246  68.230  1.00  0.00    -0.619 OA 
HETATM    6  N   UNL     1     -11.637  12.157  70.305  1.00  0.00    -0.529 N  
HETATM    7  H   UNL     1     -11.407  11.884  71.262  1.00  0.00     0.000 HD 
BRANCH   6   8
HETATM    8  C   UNL     1     -11.423  13.494  69.907  1.00  0.00    -0.124 A  
HETATM    9  C   UNL     1     -10.463  13.880  68.955  1.00  0.00    -0.187 A  
HETATM   10  C   UNL     1     -10.331  15.248  68.664  1.00  0.00    -0.232 A  
HETATM   11  N   UNL     1      -9.459  12.991  68.511  1.00  0.00    -0.379 NA 
HETATM   12  H2  UNL     1      -9.918  12.147  68.169  1.00  0.00     0.000 HD 
HETATM   13  C   UNL     1     -11.160  16.217  69.249  1.00  0.00    -0.327 A  
HETATM   14  H1  UNL     1      -8.763  13.271  67.820  1.00  0.00     0.000 HD 
HETATM   15  C   UNL     1     -12.257  14.449  70.494  1.00  0.00    -0.411 A  
HETATM   16  C   UNL     1     -12.151  15.792  70.135  1.00  0.00    -0.355 A  
BRANCH  13  17
HETATM   17  N   UNL     1     -10.988  17.557  68.866  1.00  0.00    -0.201 NA 
HETATM   18  H   UNL     1     -11.188  18.324  69.508  1.00  0.00     0.000 HD 
BRANCH  17  19
HETATM   19  C   UNL     1     -10.511  17.804  67.509  1.00  0.00    -0.372 C  
BRANCH  19  20
HETATM   20  C   UNL     1      -9.366  18.790  67.484  1.00  0.00    -0.315 A  
HETATM   21  C   UNL     1      -8.577  18.952  68.637  1.00  0.00    -0.376 A  
HETATM   22  C   UNL     1      -7.471  19.803  68.628  1.00  0.00    -0.329 A  
HETATM   23  C   UNL     1      -7.145  20.489  67.464  1.00  0.00    -0.326 A  
HETATM   24  C   UNL     1      -7.895  20.330  66.308  1.00  0.00    -0.224 A  
HETATM   25  F   UNL     1      -6.081  21.304  67.458  1.00  0.00    -0.316 F  
HETATM   26  C   UNL     1      -8.997  19.475  66.311  1.00  0.00    -0.400 A  
ENDBRANCH  19  20
ENDBRANCH  17  19
ENDBRANCH  13  17
ENDBRANCH   6   8
ENDBRANCH   3   4
ENDBRANCH   2   3
TORSDOF 6
ENDMDL
MODEL       46
REMARK 921   NORMALIZED FREE ENERGY PREDICTED BY IDOCK:   -5.55 KCAL/MOL
REMARK 922        TOTAL FREE ENERGY PREDICTED BY IDOCK:   -8.20 KCAL/MOL
REMARK 923 INTER-LIGAND FREE ENERGY PREDICTED BY IDOCK:   -7.69 KCAL/MOL
REMARK 924 INTRA-LIGAND FREE ENERGY PREDICTED BY IDOCK:   -0.51 KCAL/MOL
REMARK 927      BINDING AFFINITY PREDICTED BY RF-SCORE:    0.00 PKD
ROOT
HETATM    1  C   UNL     1      -7.810  10.246  63.278  1.00  0.00    -0.139 C  
HETATM    2  C   UNL     1      -9.240  10.326  62.771  1.00  0.00    -0.297 C  
ENDROOT
BRANCH   2   3
HETATM    3  O   UNL     1      -9.610  11.710  62.722  1.00  0.00    -0.339 OA 
BRANCH   3   4
HETATM    4  C   UNL     1     -10.486  12.119  63.676  1.00  0.00    -0.460 C  
HETATM    5  O   UNL     1     -11.673  11.824  63.706  1.00  0.00    -0.424 OA 
HETATM    6  N   UNL     1      -9.768  12.768  64.639  1.00  0.00    -0.528 N  
HETATM    7  H   UNL     1      -8.895  13.228  64.377  1.00  0.00     0.000 HD 
BRANCH   6   8
HETATM    8  C   UNL     1     -10.192  12.826  65.984  1.00  0.00    -0.278 A  
HETATM    9  C   UNL     1     -11.367  13.475  66.403  1.00  0.00    -0.316 A  
HETATM   10  C   UNL     1     -11.665  13.483  67.776  1.00  0.00    -0.394 A  
HETATM   11  N   UNL     1     -12.080  14.344  65.549  1.00  0.00    -0.372 NA 
HETATM   12  H2  UNL     1     -12.294  13.833  64.692  1.00  0.00     0.000 HD 
HETATM   13  C   UNL     1     -10.863  12.818  68.716  1.00  0.00    -0.234 A  
HETATM   14  H1  UNL     1     -12.932  14.815  65.853  1.00  0.00     0.000 HD 
HETATM   15  C   UNL     1      -9.387  12.158  66.910  1.00  0.00    -0.203 A  
HETATM   16  C   UNL     1      -9.744  12.121  68.257  1.00  0.00    -0.216 A  
BRANCH  13  17
HETATM   17  N   UNL     1     -11.262  12.840  70.063  1.00  0.00    -0.440 NA 
HETATM   18  H   UNL     1     -10.703  13.308  70.776  1.00  0.00     0.000 HD 
BRANCH  17  19
HETATM   19  C   UNL     1     -12.510  12.162  70.396  1.00  0.00    -0.144 C  
BRANCH  19  20
HETATM   20  C   UNL     1     -12.267  10.807  71.022  1.00  0.00    -0.485 A  
HETATM   21  C   UNL     1     -13.245  10.262  71.874  1.00  0.00    -0.550 A  
HETATM   22  C   UNL     1     -13.085   8.985  72.414  1.00  0.00    -0.487 A  
HETATM   23  C   UNL     1     -11.952   8.245  72.099  1.00  0.00    -0.369 A  
HETATM   24  C   UNL     1     -10.984   8.753  71.244  1.00  0.00    -0.345 A  
HETATM   25  F   UNL     1     -11.802   7.019  72.618  1.00  0.00    -0.266 F  
HETATM   26  C   UNL     1     -11.143  10.026  70.696  1.00  0.00    -0.408 A  
ENDBRANCH  19  20
ENDBRANCH  17  19
ENDBRANCH  13  17
ENDBRANCH   6   8
ENDBRANCH   3   4
ENDBRANCH   2   3
TORSDOF 6
ENDMDL
MODEL       47
REMARK 921   NORMALIZED FREE ENERGY PREDICTED BY IDOCK:   -5.53 KCAL/MOL
REMARK 922        TOTAL FREE ENERGY PREDICTED BY IDOCK:   -8.18 KCAL/MOL
REMARK 923 INTER-LIGAND FREE ENERGY PREDICTED BY IDOCK:   -8.36 KCAL/MOL
REMARK 924 INTRA-LIGAND FREE ENERGY PREDICTED BY IDOCK:    0.18 KCAL/MOL
REMARK 927      BINDING AFFINITY PREDICTED BY RF-SCORE:    0.00 PKD
ROOT
HETATM    1  C   UNL     1     -11.975  16.770  74.184  1.00  0.00    -0.188 C  
HETATM    2  C   UNL     1     -12.205  15.308  73.841  1.00  0.00    -0.610 C  
ENDROOT
BRANCH   2   3
HETATM    3  O   UNL     1     -13.576  15.162  73.446  1.00  0.00    -0.430 OA 
BRANCH   3   4
HETATM    4  C   UNL     1     -13.781  14.561  72.247  1.00  0.00    -0.458 C  
HETATM    5  O   UNL     1     -14.290  15.099  71.273  1.00  0.00    -0.459 OA 
HETATM    6  N   UNL     1     -13.185  13.332  72.299  1.00  0.00    -0.473 N  
HETATM    7  H   UNL     1     -13.088  12.870  73.203  1.00  0.00     0.000 HD 
BRANCH   6   8
HETATM    8  C   UNL     1     -12.701  12.681  71.144  1.00  0.00    -0.254 A  
HETATM    9  C   UNL     1     -12.693  11.285  70.981  1.00  0.00    -0.359 A  
HETATM   10  C   UNL     1     -12.160  10.759  69.792  1.00  0.00    -0.389 A  
HETATM   11  N   UNL     1     -12.930  10.411  72.064  1.00  0.00    -0.440 NA 
HETATM   12  H2  UNL     1     -13.820  10.672  72.488  1.00  0.00     0.000 HD 
HETATM   13  C   UNL     1     -11.695  11.584  68.757  1.00  0.00    -0.334 A  
HETATM   14  H1  UNL     1     -12.924   9.397  71.946  1.00  0.00     0.000 HD 
HETATM   15  C   UNL     1     -12.244  13.513  70.117  1.00  0.00    -0.400 A  
HETATM   16  C   UNL     1     -11.785  12.966  68.920  1.00  0.00    -0.370 A  
BRANCH  13  17
HETATM   17  N   UNL     1     -11.220  10.973  67.585  1.00  0.00    -0.332 NA 
HETATM   18  H   UNL     1     -11.674  10.147  67.193  1.00  0.00     0.000 HD 
BRANCH  17  19
HETATM   19  C   UNL     1     -10.049  11.571  66.952  1.00  0.00    -0.212 C  
BRANCH  19  20
HETATM   20  C   UNL     1     -10.397  12.836  66.199  1.00  0.00    -0.283 A  
HETATM   21  C   UNL     1     -11.360  12.779  65.176  1.00  0.00    -0.346 A  
HETATM   22  C   UNL     1     -11.755  13.938  64.507  1.00  0.00    -0.430 A  
HETATM   23  C   UNL     1     -11.195  15.159  64.865  1.00  0.00    -0.417 A  
HETATM   24  C   UNL     1     -10.259  15.244  65.885  1.00  0.00    -0.353 A  
HETATM   25  F   UNL     1     -11.578  16.271  64.222  1.00  0.00    -0.525 F  
HETATM   26  C   UNL     1      -9.866  14.088  66.561  1.00  0.00    -0.298 A  
ENDBRANCH  19  20
ENDBRANCH  17  19
ENDBRANCH  13  17
ENDBRANCH   6   8
ENDBRANCH   3   4
ENDBRANCH   2   3
TORSDOF 6
ENDMDL
MODEL       48
REMARK 921   NORMALIZED FREE ENERGY PREDICTED BY IDOCK:   -5.53 KCAL/MOL
REMARK 922        TOTAL FREE ENERGY PREDICTED BY IDOCK:   -8.17 KCAL/MOL
REMARK 923 INTER-LIGAND FREE ENERGY PREDICTED BY IDOCK:   -7.49 KCAL/MOL
REMARK 924 INTRA-LIGAND FREE ENERGY PREDICTED BY IDOCK:   -0.68 KCAL/MOL
REMARK 927      BINDING AFFINITY PREDICTED BY RF-SCORE:    0.00 PKD
ROOT
HETATM    1  C   UNL     1     -10.908   6.685  67.206  1.00  0.00    -0.456 C  
HETATM    2  C   UNL     1     -10.505   8.115  67.525  1.00  0.00    -0.256 C  
ENDROOT
BRANCH   2   3
HETATM    3  O   UNL     1     -10.728   8.330  68.925  1.00  0.00    -0.175 OA 
BRANCH   3   4
HETATM    4  C   UNL     1     -10.554   9.605  69.359  1.00  0.00    -0.225 C  
HETATM    5  O   UNL     1      -9.483  10.086  69.703  1.00  0.00    -0.214 OA 
HETATM    6  N   UNL     1     -11.742  10.259  69.191  1.00  0.00    -0.491 N  
HETATM    7  H   UNL     1     -12.609   9.720  69.214  1.00  0.00     0.000 HD 
BRANCH   6   8
HETATM    8  C   UNL     1     -11.810  11.654  68.988  1.00  0.00    -0.328 A  
HETATM    9  C   UNL     1     -11.784  12.258  67.719  1.00  0.00    -0.337 A  
HETATM   10  C   UNL     1     -11.833  13.661  67.652  1.00  0.00    -0.404 A  
HETATM   11  N   UNL     1     -11.425  11.536  66.560  1.00  0.00    -0.417 NA 
HETATM   12  H2  UNL     1     -12.030  10.716  66.503  1.00  0.00     0.000 HD 
HETATM   13  C   UNL     1     -11.964  14.457  68.800  1.00  0.00    -0.295 A  
HETATM   14  H1  UNL     1     -11.406  11.975  65.639  1.00  0.00     0.000 HD 
HETATM   15  C   UNL     1     -11.945  12.436  70.138  1.00  0.00    -0.376 A  
HETATM   16  C   UNL     1     -12.062  13.821  70.038  1.00  0.00    -0.416 A  
BRANCH  13  17
HETATM   17  N   UNL     1     -12.051  15.849  68.637  1.00  0.00    -0.445 NA 
HETATM   18  H   UNL     1     -12.804  16.275  68.095  1.00  0.00     0.000 HD 
BRANCH  17  19
HETATM   19  C   UNL     1     -11.019  16.659  69.275  1.00  0.00    -0.261 C  
BRANCH  19  20
HETATM   20  C   UNL     1     -10.222  17.455  68.266  1.00  0.00    -0.362 A  
HETATM   21  C   UNL     1     -10.524  18.816  68.077  1.00  0.00    -0.410 A  
HETATM   22  C   UNL     1      -9.765  19.597  67.204  1.00  0.00    -0.471 A  
HETATM   23  C   UNL     1      -8.697  19.024  66.524  1.00  0.00    -0.322 A  
HETATM   24  C   UNL     1      -8.366  17.689  66.710  1.00  0.00    -0.276 A  
HETATM   25  F   UNL     1      -7.970  19.778  65.689  1.00  0.00    -0.332 F  
HETATM   26  C   UNL     1      -9.118  16.906  67.587  1.00  0.00    -0.223 A  
ENDBRANCH  19  20
ENDBRANCH  17  19
ENDBRANCH  13  17
ENDBRANCH   6   8
ENDBRANCH   3   4
ENDBRANCH   2   3
TORSDOF 6
ENDMDL
MODEL       49
REMARK 921   NORMALIZED FREE ENERGY PREDICTED BY IDOCK:   -5.52 KCAL/MOL
REMARK 922        TOTAL FREE ENERGY PREDICTED BY IDOCK:   -8.16 KCAL/MOL
REMARK 923 INTER-LIGAND FREE ENERGY PREDICTED BY IDOCK:   -7.52 KCAL/MOL
REMARK 924 INTRA-LIGAND FREE ENERGY PREDICTED BY IDOCK:   -0.64 KCAL/MOL
REMARK 927      BINDING AFFINITY PREDICTED BY RF-SCORE:    0.00 PKD
ROOT
HETATM    1  C   UNL     1      -5.562  19.311  63.789  1.00  0.00    -0.348 C  
HETATM    2  C   UNL     1      -5.859  18.534  65.061  1.00  0.00    -0.217 C  
ENDROOT
BRANCH   2   3
HETATM    3  O   UNL     1      -7.169  18.910  65.508  1.00  0.00    -0.485 OA 
BRANCH   3   4
HETATM    4  C   UNL     1      -7.670  18.183  66.538  1.00  0.00    -0.249 C  
HETATM    5  O   UNL     1      -8.103  18.654  67.581  1.00  0.00    -0.244 OA 
HETATM    6  N   UNL     1      -7.733  16.881  66.127  1.00  0.00    -0.298 N  
HETATM    7  H   UNL     1      -7.079  16.557  65.415  1.00  0.00     0.000 HD 
BRANCH   6   8
HETATM    8  C   UNL     1      -8.674  15.971  66.655  1.00  0.00    -0.274 A  
HETATM    9  C   UNL     1      -8.353  14.975  67.594  1.00  0.00    -0.164 A  
HETATM   10  C   UNL     1      -9.377  14.113  68.022  1.00  0.00    -0.203 A  
HETATM   11  N   UNL     1      -7.014  14.639  67.890  1.00  0.00    -0.142 NA 
HETATM   12  H2  UNL     1      -6.530  15.494  68.163  1.00  0.00     0.000 HD 
HETATM   13  C   UNL     1     -10.703  14.258  67.585  1.00  0.00    -0.258 A  
HETATM   14  H1  UNL     1      -6.782  13.916  68.573  1.00  0.00     0.000 HD 
HETATM   15  C   UNL     1      -9.991  16.126  66.215  1.00  0.00    -0.336 A  
HETATM   16  C   UNL     1     -11.001  15.302  66.709  1.00  0.00    -0.306 A  
BRANCH  13  17
HETATM   17  N   UNL     1     -11.670  13.380  68.100  1.00  0.00    -0.341 NA 
HETATM   18  H   UNL     1     -12.500  13.127  67.562  1.00  0.00     0.000 HD 
BRANCH  17  19
HETATM   19  C   UNL     1     -11.438  12.846  69.438  1.00  0.00    -0.260 C  
BRANCH  19  20
HETATM   20  C   UNL     1     -12.043  13.726  70.510  1.00  0.00    -0.416 A  
HETATM   21  C   UNL     1     -13.029  13.190  71.358  1.00  0.00    -0.386 A  
HETATM   22  C   UNL     1     -13.560  13.951  72.400  1.00  0.00    -0.676 A  
HETATM   23  C   UNL     1     -13.101  15.247  72.604  1.00  0.00    -0.427 A  
HETATM   24  C   UNL     1     -12.113  15.790  71.794  1.00  0.00    -0.541 A  
HETATM   25  F   UNL     1     -13.611  15.974  73.607  1.00  0.00    -0.583 F  
HETATM   26  C   UNL     1     -11.576  15.030  70.755  1.00  0.00    -0.364 A  
ENDBRANCH  19  20
ENDBRANCH  17  19
ENDBRANCH  13  17
ENDBRANCH   6   8
ENDBRANCH   3   4
ENDBRANCH   2   3
TORSDOF 6
ENDMDL
MODEL       50
REMARK 921   NORMALIZED FREE ENERGY PREDICTED BY IDOCK:   -5.50 KCAL/MOL
REMARK 922        TOTAL FREE ENERGY PREDICTED BY IDOCK:   -8.14 KCAL/MOL
REMARK 923 INTER-LIGAND FREE ENERGY PREDICTED BY IDOCK:   -7.52 KCAL/MOL
REMARK 924 INTRA-LIGAND FREE ENERGY PREDICTED BY IDOCK:   -0.62 KCAL/MOL
REMARK 927      BINDING AFFINITY PREDICTED BY RF-SCORE:    0.00 PKD
ROOT
HETATM    1  C   UNL     1      -6.258   9.571  63.867  1.00  0.00    -0.098 C  
HETATM    2  C   UNL     1      -7.771   9.579  63.731  1.00  0.00    -0.126 C  
ENDROOT
BRANCH   2   3
HETATM    3  O   UNL     1      -8.313   8.838  64.832  1.00  0.00    -0.153 OA 
BRANCH   3   4
HETATM    4  C   UNL     1      -9.474   9.316  65.349  1.00  0.00    -0.210 C  
HETATM    5  O   UNL     1     -10.139   8.755  66.209  1.00  0.00    -0.291 OA 
HETATM    6  N   UNL     1      -9.658  10.572  64.846  1.00  0.00    -0.250 N  
HETATM    7  H   UNL     1      -9.255  10.803  63.937  1.00  0.00     0.000 HD 
BRANCH   6   8
HETATM    8  C   UNL     1     -10.386  11.562  65.540  1.00  0.00    -0.273 A  
HETATM    9  C   UNL     1     -11.573  12.140  65.057  1.00  0.00    -0.310 A  
HETATM   10  C   UNL     1     -12.190  13.135  65.834  1.00  0.00    -0.497 A  
HETATM   11  N   UNL     1     -11.992  11.965  63.720  1.00  0.00    -0.450 NA 
HETATM   12  H2  UNL     1     -12.034  10.963  63.534  1.00  0.00     0.000 HD 
HETATM   13  C   UNL     1     -11.689  13.517  67.088  1.00  0.00    -0.379 A  
HETATM   14  H1  UNL     1     -12.854  12.384  63.369  1.00  0.00     0.000 HD 
HETATM   15  C   UNL     1      -9.880  11.932  66.789  1.00  0.00    -0.214 A  
HETATM   16  C   UNL     1     -10.551  12.872  67.571  1.00  0.00    -0.234 A  
BRANCH  13  17
HETATM   17  N   UNL     1     -12.396  14.488  67.816  1.00  0.00    -0.595 NA 
HETATM   18  H   UNL     1     -13.411  14.562  67.758  1.00  0.00     0.000 HD 
BRANCH  17  19
HETATM   19  C   UNL     1     -11.613  15.385  68.661  1.00  0.00    -0.359 C  
BRANCH  19  20
HETATM   20  C   UNL     1     -12.043  15.316  70.109  1.00  0.00    -0.394 A  
HETATM   21  C   UNL     1     -13.024  14.381  70.487  1.00  0.00    -0.283 A  
HETATM   22  C   UNL     1     -13.395  14.244  71.825  1.00  0.00    -0.450 A  
HETATM   23  C   UNL     1     -12.783  15.034  72.790  1.00  0.00    -0.400 A  
HETATM   24  C   UNL     1     -11.798  15.949  72.445  1.00  0.00    -0.618 A  
HETATM   25  F   UNL     1     -13.142  14.898  74.074  1.00  0.00    -0.466 F  
HETATM   26  C   UNL     1     -11.419  16.084  71.109  1.00  0.00    -0.470 A  
ENDBRANCH  19  20
ENDBRANCH  17  19
ENDBRANCH  13  17
ENDBRANCH   6   8
ENDBRANCH   3   4
ENDBRANCH   2   3
TORSDOF 6
ENDMDL
MODEL       51
REMARK 921   NORMALIZED FREE ENERGY PREDICTED BY IDOCK:   -5.50 KCAL/MOL
REMARK 922        TOTAL FREE ENERGY PREDICTED BY IDOCK:   -8.13 KCAL/MOL
REMARK 923 INTER-LIGAND FREE ENERGY PREDICTED BY IDOCK:   -8.40 KCAL/MOL
REMARK 924 INTRA-LIGAND FREE ENERGY PREDICTED BY IDOCK:    0.27 KCAL/MOL
REMARK 927      BINDING AFFINITY PREDICTED BY RF-SCORE:    0.00 PKD
ROOT
HETATM    1  C   UNL     1     -12.532  16.171  73.051  1.00  0.00    -0.590 C  
HETATM    2  C   UNL     1     -12.521  14.738  73.553  1.00  0.00    -0.391 C  
ENDROOT
BRANCH   2   3
HETATM    3  O   UNL     1     -13.622  14.051  72.943  1.00  0.00    -0.676 OA 
BRANCH   3   4
HETATM    4  C   UNL     1     -13.307  13.250  71.894  1.00  0.00    -0.451 C  
HETATM    5  O   UNL     1     -12.734  13.620  70.878  1.00  0.00    -0.335 OA 
HETATM    6  N   UNL     1     -13.608  11.967  72.256  1.00  0.00    -0.504 N  
HETATM    7  H   UNL     1     -14.345  11.809  72.943  1.00  0.00     0.000 HD 
BRANCH   6   8
HETATM    8  C   UNL     1     -12.934  10.854  71.710  1.00  0.00    -0.451 A  
HETATM    9  C   UNL     1     -13.209   9.523  72.068  1.00  0.00    -0.452 A  
HETATM   10  C   UNL     1     -12.448   8.504  71.470  1.00  0.00    -0.353 A  
HETATM   11  N   UNL     1     -14.003   9.206  73.192  1.00  0.00    -1.161 NA 
HETATM   12  H2  UNL     1     -14.893   9.695  73.094  1.00  0.00     0.000 HD 
HETATM   13  C   UNL     1     -11.475   8.776  70.497  1.00  0.00    -0.196 A  
HETATM   14  H1  UNL     1     -14.203   8.240  73.452  1.00  0.00     0.000 HD 
HETATM   15  C   UNL     1     -11.969  11.137  70.739  1.00  0.00    -0.415 A  
HETATM   16  C   UNL     1     -11.277  10.102  70.110  1.00  0.00    -0.377 A  
BRANCH  13  17
HETATM   17  N   UNL     1     -10.793   7.693  69.919  1.00  0.00    -0.274 NA 
HETATM   18  H   UNL     1      -9.856   7.800  69.530  1.00  0.00     0.000 HD 
BRANCH  17  19
HETATM   19  C   UNL     1     -11.485   6.408  69.899  1.00  0.00    -0.415 C  
BRANCH  19  20
HETATM   20  C   UNL     1     -10.770   5.369  70.735  1.00  0.00    -0.252 A  
HETATM   21  C   UNL     1      -9.802   4.550  70.127  1.00  0.00    -0.296 A  
HETATM   22  C   UNL     1      -9.076   3.629  70.882  1.00  0.00    -0.180 A  
HETATM   23  C   UNL     1      -9.308   3.528  72.249  1.00  0.00    -0.115 A  
HETATM   24  C   UNL     1     -10.243   4.340  72.875  1.00  0.00    -0.227 A  
HETATM   25  F   UNL     1      -8.608   2.643  72.971  1.00  0.00    -0.068 F  
HETATM   26  C   UNL     1     -10.967   5.267  72.125  1.00  0.00    -0.226 A  
ENDBRANCH  19  20
ENDBRANCH  17  19
ENDBRANCH  13  17
ENDBRANCH   6   8
ENDBRANCH   3   4
ENDBRANCH   2   3
TORSDOF 6
ENDMDL
MODEL       52
REMARK 921   NORMALIZED FREE ENERGY PREDICTED BY IDOCK:   -5.46 KCAL/MOL
REMARK 922        TOTAL FREE ENERGY PREDICTED BY IDOCK:   -8.09 KCAL/MOL
REMARK 923 INTER-LIGAND FREE ENERGY PREDICTED BY IDOCK:   -7.45 KCAL/MOL
REMARK 924 INTRA-LIGAND FREE ENERGY PREDICTED BY IDOCK:   -0.64 KCAL/MOL
REMARK 927      BINDING AFFINITY PREDICTED BY RF-SCORE:    0.00 PKD
ROOT
HETATM    1  C   UNL     1      -9.322   7.402  67.717  1.00  0.00    -0.144 C  
HETATM    2  C   UNL     1     -10.776   7.652  68.081  1.00  0.00    -0.066 C  
ENDROOT
BRANCH   2   3
HETATM    3  O   UNL     1     -10.838   7.892  69.493  1.00  0.00    -0.221 OA 
BRANCH   3   4
HETATM    4  C   UNL     1     -10.719   9.189  69.875  1.00  0.00    -0.231 C  
HETATM    5  O   UNL     1      -9.757   9.656  70.470  1.00  0.00    -0.259 OA 
HETATM    6  N   UNL     1     -11.777   9.871  69.344  1.00  0.00    -0.462 N  
HETATM    7  H   UNL     1     -12.645   9.367  69.161  1.00  0.00     0.000 HD 
BRANCH   6   8
HETATM    8  C   UNL     1     -11.709  11.247  69.040  1.00  0.00    -0.342 A  
HETATM    9  C   UNL     1     -11.387  11.750  67.768  1.00  0.00    -0.289 A  
HETATM   10  C   UNL     1     -11.327  13.143  67.601  1.00  0.00    -0.335 A  
HETATM   11  N   UNL     1     -10.852  10.922  66.757  1.00  0.00    -0.251 NA 
HETATM   12  H2  UNL     1     -11.487  10.133  66.631  1.00  0.00     0.000 HD 
HETATM   13  C   UNL     1     -11.633  14.031  68.644  1.00  0.00    -0.325 A  
HETATM   14  H1  UNL     1     -10.618  11.286  65.833  1.00  0.00     0.000 HD 
HETATM   15  C   UNL     1     -12.019  12.122  70.085  1.00  0.00    -0.394 A  
HETATM   16  C   UNL     1     -12.020  13.500  69.874  1.00  0.00    -0.416 A  
BRANCH  13  17
HETATM   17  N   UNL     1     -11.592  15.409  68.375  1.00  0.00    -0.354 NA 
HETATM   18  H   UNL     1     -12.061  16.084  68.980  1.00  0.00     0.000 HD 
BRANCH  17  19
HETATM   19  C   UNL     1     -10.848  15.834  67.194  1.00  0.00    -0.289 C  
BRANCH  19  20
HETATM   20  C   UNL     1     -10.457  17.293  67.266  1.00  0.00    -0.319 A  
HETATM   21  C   UNL     1     -10.348  18.032  66.074  1.00  0.00    -0.333 A  
HETATM   22  C   UNL     1     -10.057  19.396  66.108  1.00  0.00    -0.533 A  
HETATM   23  C   UNL     1      -9.881  20.028  67.333  1.00  0.00    -0.422 A  
HETATM   24  C   UNL     1     -10.004  19.326  68.523  1.00  0.00    -0.513 A  
HETATM   25  F   UNL     1      -9.602  21.339  67.362  1.00  0.00    -0.583 F  
HETATM   26  C   UNL     1     -10.302  17.963  68.494  1.00  0.00    -0.365 A  
ENDBRANCH  19  20
ENDBRANCH  17  19
ENDBRANCH  13  17
ENDBRANCH   6   8
ENDBRANCH   3   4
ENDBRANCH   2   3
TORSDOF 6
ENDMDL
MODEL       53
REMARK 921   NORMALIZED FREE ENERGY PREDICTED BY IDOCK:   -5.46 KCAL/MOL
REMARK 922        TOTAL FREE ENERGY PREDICTED BY IDOCK:   -8.08 KCAL/MOL
REMARK 923 INTER-LIGAND FREE ENERGY PREDICTED BY IDOCK:   -7.41 KCAL/MOL
REMARK 924 INTRA-LIGAND FREE ENERGY PREDICTED BY IDOCK:   -0.68 KCAL/MOL
REMARK 927      BINDING AFFINITY PREDICTED BY RF-SCORE:    0.00 PKD
ROOT
HETATM    1  C   UNL     1     -10.031   5.784  70.545  1.00  0.00    -0.252 C  
HETATM    2  C   UNL     1      -9.689   7.141  69.954  1.00  0.00    -0.170 C  
ENDROOT
BRANCH   2   3
HETATM    3  O   UNL     1     -10.789   8.022  70.216  1.00  0.00    -0.238 OA 
BRANCH   3   4
HETATM    4  C   UNL     1     -10.526   9.347  70.082  1.00  0.00    -0.240 C  
HETATM    5  O   UNL     1      -9.412   9.848  70.143  1.00  0.00    -0.237 OA 
HETATM    6  N   UNL     1     -11.693   9.961  69.724  1.00  0.00    -0.450 N  
HETATM    7  H   UNL     1     -12.578   9.542  70.010  1.00  0.00     0.000 HD 
BRANCH   6   8
HETATM    8  C   UNL     1     -11.715  11.155  68.972  1.00  0.00    -0.339 A  
HETATM    9  C   UNL     1     -11.836  12.434  69.543  1.00  0.00    -0.303 A  
HETATM   10  C   UNL     1     -11.871  13.543  68.682  1.00  0.00    -0.404 A  
HETATM   11  N   UNL     1     -12.207  12.611  70.894  1.00  0.00    -0.441 NA 
HETATM   12  H2  UNL     1     -11.559  12.071  71.469  1.00  0.00     0.000 HD 
HETATM   13  C   UNL     1     -11.732  13.412  67.292  1.00  0.00    -0.380 A  
HETATM   14  H1  UNL     1     -12.294  13.539  71.309  1.00  0.00     0.000 HD 
HETATM   15  C   UNL     1     -11.572  11.012  67.589  1.00  0.00    -0.228 A  
HETATM   16  C   UNL     1     -11.540  12.135  66.764  1.00  0.00    -0.412 A  
BRANCH  13  17
HETATM   17  N   UNL     1     -11.733  14.579  66.512  1.00  0.00    -0.380 NA 
HETATM   18  H   UNL     1     -12.598  14.966  66.133  1.00  0.00     0.000 HD 
BRANCH  17  19
HETATM   19  C   UNL     1     -10.443  15.215  66.265  1.00  0.00    -0.307 C  
BRANCH  19  20
HETATM   20  C   UNL     1     -10.439  16.667  66.685  1.00  0.00    -0.258 A  
HETATM   21  C   UNL     1     -10.191  16.990  68.032  1.00  0.00    -0.319 A  
HETATM   22  C   UNL     1     -10.113  18.321  68.441  1.00  0.00    -0.412 A  
HETATM   23  C   UNL     1     -10.275  19.336  67.506  1.00  0.00    -0.414 A  
HETATM   24  C   UNL     1     -10.500  19.043  66.168  1.00  0.00    -0.541 A  
HETATM   25  F   UNL     1     -10.198  20.613  67.902  1.00  0.00    -0.504 F  
HETATM   26  C   UNL     1     -10.572  17.713  65.753  1.00  0.00    -0.177 A  
ENDBRANCH  19  20
ENDBRANCH  17  19
ENDBRANCH  13  17
ENDBRANCH   6   8
ENDBRANCH   3   4
ENDBRANCH   2   3
TORSDOF 6
ENDMDL
MODEL       54
REMARK 921   NORMALIZED FREE ENERGY PREDICTED BY IDOCK:   -5.46 KCAL/MOL
REMARK 922        TOTAL FREE ENERGY PREDICTED BY IDOCK:   -8.08 KCAL/MOL
REMARK 923 INTER-LIGAND FREE ENERGY PREDICTED BY IDOCK:   -7.83 KCAL/MOL
REMARK 924 INTRA-LIGAND FREE ENERGY PREDICTED BY IDOCK:   -0.25 KCAL/MOL
REMARK 927      BINDING AFFINITY PREDICTED BY RF-SCORE:    0.00 PKD
ROOT
HETATM    1  C   UNL     1     -11.018  16.051  64.737  1.00  0.00    -0.373 C  
HETATM    2  C   UNL     1     -10.280  15.080  65.643  1.00  0.00    -0.360 C  
ENDROOT
BRANCH   2   3
HETATM    3  O   UNL     1     -10.598  15.417  66.999  1.00  0.00    -0.296 OA 
BRANCH   3   4
HETATM    4  C   UNL     1     -11.621  14.719  67.555  1.00  0.00    -0.361 C  
HETATM    5  O   UNL     1     -12.422  14.036  66.930  1.00  0.00    -0.364 OA 
HETATM    6  N   UNL     1     -11.484  14.803  68.911  1.00  0.00    -0.282 N  
HETATM    7  H   UNL     1     -11.016  15.618  69.310  1.00  0.00     0.000 HD 
BRANCH   6   8
HETATM    8  C   UNL     1     -11.968  13.802  69.780  1.00  0.00    -0.344 A  
HETATM    9  C   UNL     1     -12.743  14.069  70.922  1.00  0.00    -0.350 A  
HETATM   10  C   UNL     1     -13.142  12.984  71.721  1.00  0.00    -0.469 A  
HETATM   11  N   UNL     1     -12.883  15.377  71.435  1.00  0.00    -0.404 NA 
HETATM   12  H2  UNL     1     -13.221  15.974  70.681  1.00  0.00     0.000 HD 
HETATM   13  C   UNL     1     -12.838  11.657  71.379  1.00  0.00    -0.356 A  
HETATM   14  H1  UNL     1     -13.446  15.570  72.264  1.00  0.00     0.000 HD 
HETATM   15  C   UNL     1     -11.662  12.484  69.428  1.00  0.00    -0.383 A  
HETATM   16  C   UNL     1     -12.130  11.422  70.200  1.00  0.00    -0.439 A  
BRANCH  13  17
HETATM   17  N   UNL     1     -13.316  10.632  72.211  1.00  0.00    -0.581 NA 
HETATM   18  H   UNL     1     -13.446  10.776  73.213  1.00  0.00     0.000 HD 
BRANCH  17  19
HETATM   19  C   UNL     1     -13.618   9.351  71.581  1.00  0.00    -0.365 C  
BRANCH  19  20
HETATM   20  C   UNL     1     -12.593   8.295  71.927  1.00  0.00    -0.379 A  
HETATM   21  C   UNL     1     -11.388   8.686  72.540  1.00  0.00    -0.265 A  
HETATM   22  C   UNL     1     -10.450   7.732  72.935  1.00  0.00    -0.412 A  
HETATM   23  C   UNL     1     -10.714   6.384  72.728  1.00  0.00    -0.239 A  
HETATM   24  C   UNL     1     -11.904   5.972  72.144  1.00  0.00    -0.304 A  
HETATM   25  F   UNL     1      -9.811   5.471  73.110  1.00  0.00    -0.157 F  
HETATM   26  C   UNL     1     -12.848   6.922  71.754  1.00  0.00    -0.349 A  
ENDBRANCH  19  20
ENDBRANCH  17  19
ENDBRANCH  13  17
ENDBRANCH   6   8
ENDBRANCH   3   4
ENDBRANCH   2   3
TORSDOF 6
ENDMDL
MODEL       55
REMARK 921   NORMALIZED FREE ENERGY PREDICTED BY IDOCK:   -5.44 KCAL/MOL
REMARK 922        TOTAL FREE ENERGY PREDICTED BY IDOCK:   -8.06 KCAL/MOL
REMARK 923 INTER-LIGAND FREE ENERGY PREDICTED BY IDOCK:   -7.35 KCAL/MOL
REMARK 924 INTRA-LIGAND FREE ENERGY PREDICTED BY IDOCK:   -0.71 KCAL/MOL
REMARK 927      BINDING AFFINITY PREDICTED BY RF-SCORE:    0.00 PKD
ROOT
HETATM    1  C   UNL     1      -6.603  20.334  65.060  1.00  0.00    -0.331 C  
HETATM    2  C   UNL     1      -6.225  19.176  65.968  1.00  0.00    -0.184 C  
ENDROOT
BRANCH   2   3
HETATM    3  O   UNL     1      -6.103  19.688  67.302  1.00  0.00    -0.185 OA 
BRANCH   3   4
HETATM    4  C   UNL     1      -6.856  19.063  68.243  1.00  0.00    -0.246 C  
HETATM    5  O   UNL     1      -7.190  19.557  69.311  1.00  0.00    -0.356 OA 
HETATM    6  N   UNL     1      -7.277  17.878  67.709  1.00  0.00    -0.206 N  
HETATM    7  H   UNL     1      -6.707  17.431  66.990  1.00  0.00     0.000 HD 
BRANCH   6   8
HETATM    8  C   UNL     1      -8.474  17.252  68.118  1.00  0.00    -0.238 A  
HETATM    9  C   UNL     1      -8.527  16.220  69.072  1.00  0.00    -0.244 A  
HETATM   10  C   UNL     1      -9.780  15.661  69.374  1.00  0.00    -0.292 A  
HETATM   11  N   UNL     1      -7.362  15.550  69.506  1.00  0.00    -0.211 NA 
HETATM   12  H2  UNL     1      -6.704  16.254  69.842  1.00  0.00     0.000 HD 
HETATM   13  C   UNL     1     -10.967  16.140  68.799  1.00  0.00    -0.330 A  
HETATM   14  H1  UNL     1      -7.401  14.802  70.198  1.00  0.00     0.000 HD 
HETATM   15  C   UNL     1      -9.650  17.739  67.541  1.00  0.00    -0.268 A  
HETATM   16  C   UNL     1     -10.886  17.214  67.912  1.00  0.00    -0.294 A  
BRANCH  13  17
HETATM   17  N   UNL     1     -12.180  15.552  69.193  1.00  0.00    -0.598 NA 
HETATM   18  H   UNL     1     -12.928  15.375  68.523  1.00  0.00     0.000 HD 
BRANCH  17  19
HETATM   19  C   UNL     1     -12.323  15.206  70.604  1.00  0.00    -0.368 C  
BRANCH  19  20
HETATM   20  C   UNL     1     -12.530  13.722  70.803  1.00  0.00    -0.441 A  
HETATM   21  C   UNL     1     -11.885  12.819  69.938  1.00  0.00    -0.371 A  
HETATM   22  C   UNL     1     -11.999  11.442  70.134  1.00  0.00    -0.460 A  
HETATM   23  C   UNL     1     -12.752  10.963  71.200  1.00  0.00    -0.429 A  
HETATM   24  C   UNL     1     -13.381  11.833  72.079  1.00  0.00    -0.417 A  
HETATM   25  F   UNL     1     -12.859   9.640  71.386  1.00  0.00    -0.353 F  
HETATM   26  C   UNL     1     -13.263  13.210  71.890  1.00  0.00    -0.526 A  
ENDBRANCH  19  20
ENDBRANCH  17  19
ENDBRANCH  13  17
ENDBRANCH   6   8
ENDBRANCH   3   4
ENDBRANCH   2   3
TORSDOF 6
ENDMDL
MODEL       56
REMARK 921   NORMALIZED FREE ENERGY PREDICTED BY IDOCK:   -5.44 KCAL/MOL
REMARK 922        TOTAL FREE ENERGY PREDICTED BY IDOCK:   -8.06 KCAL/MOL
REMARK 923 INTER-LIGAND FREE ENERGY PREDICTED BY IDOCK:   -7.23 KCAL/MOL
REMARK 924 INTRA-LIGAND FREE ENERGY PREDICTED BY IDOCK:   -0.83 KCAL/MOL
REMARK 927      BINDING AFFINITY PREDICTED BY RF-SCORE:    0.00 PKD
ROOT
HETATM    1  C   UNL     1      -8.984  11.107  62.639  1.00  0.00    -0.347 C  
HETATM    2  C   UNL     1      -8.388  10.265  63.755  1.00  0.00    -0.165 C  
ENDROOT
BRANCH   2   3
HETATM    3  O   UNL     1      -9.461   9.848  64.609  1.00  0.00    -0.276 OA 
BRANCH   3   4
HETATM    4  C   UNL     1      -9.558  10.503  65.794  1.00  0.00    -0.210 C  
HETATM    5  O   UNL     1      -8.630  10.683  66.570  1.00  0.00    -0.135 OA 
HETATM    6  N   UNL     1     -10.815  11.033  65.866  1.00  0.00    -0.171 N  
HETATM    7  H   UNL     1     -11.573  10.574  65.361  1.00  0.00     0.000 HD 
BRANCH   6   8
HETATM    8  C   UNL     1     -11.100  12.193  66.617  1.00  0.00    -0.306 A  
HETATM    9  C   UNL     1     -11.647  12.170  67.912  1.00  0.00    -0.347 A  
HETATM   10  C   UNL     1     -11.909  13.397  68.543  1.00  0.00    -0.401 A  
HETATM   11  N   UNL     1     -12.198  10.992  68.463  1.00  0.00    -0.781 NA 
HETATM   12  H2  UNL     1     -11.488  10.261  68.410  1.00  0.00     0.000 HD 
HETATM   13  C   UNL     1     -11.587  14.625  67.945  1.00  0.00    -0.348 A  
HETATM   14  H1  UNL     1     -12.595  10.975  69.403  1.00  0.00     0.000 HD 
HETATM   15  C   UNL     1     -10.772  13.411  66.013  1.00  0.00    -0.283 A  
HETATM   16  C   UNL     1     -10.977  14.611  66.691  1.00  0.00    -0.323 A  
BRANCH  13  17
HETATM   17  N   UNL     1     -11.841  15.802  68.668  1.00  0.00    -0.497 NA 
HETATM   18  H   UNL     1     -12.765  16.234  68.675  1.00  0.00     0.000 HD 
BRANCH  17  19
HETATM   19  C   UNL     1     -10.725  16.381  69.409  1.00  0.00    -0.324 C  
BRANCH  19  20
HETATM   20  C   UNL     1     -10.051  17.494  68.638  1.00  0.00    -0.361 A  
HETATM   21  C   UNL     1     -10.847  18.418  67.936  1.00  0.00    -0.234 A  
HETATM   22  C   UNL     1     -10.264  19.496  67.270  1.00  0.00    -0.547 A  
HETATM   23  C   UNL     1      -8.884  19.660  67.310  1.00  0.00    -0.318 A  
HETATM   24  C   UNL     1      -8.080  18.775  68.013  1.00  0.00    -0.308 A  
HETATM   25  F   UNL     1      -8.327  20.698  66.670  1.00  0.00    -0.282 F  
HETATM   26  C   UNL     1      -8.660  17.699  68.686  1.00  0.00    -0.264 A  
ENDBRANCH  19  20
ENDBRANCH  17  19
ENDBRANCH  13  17
ENDBRANCH   6   8
ENDBRANCH   3   4
ENDBRANCH   2   3
TORSDOF 6
ENDMDL
MODEL       57
REMARK 921   NORMALIZED FREE ENERGY PREDICTED BY IDOCK:   -5.42 KCAL/MOL
REMARK 922        TOTAL FREE ENERGY PREDICTED BY IDOCK:   -8.03 KCAL/MOL
REMARK 923 INTER-LIGAND FREE ENERGY PREDICTED BY IDOCK:   -7.44 KCAL/MOL
REMARK 924 INTRA-LIGAND FREE ENERGY PREDICTED BY IDOCK:   -0.58 KCAL/MOL
REMARK 927      BINDING AFFINITY PREDICTED BY RF-SCORE:    0.00 PKD
ROOT
HETATM    1  C   UNL     1     -11.163   6.318  69.539  1.00  0.00    -0.500 C  
HETATM    2  C   UNL     1     -11.338   6.533  71.033  1.00  0.00    -0.323 C  
ENDROOT
BRANCH   2   3
HETATM    3  O   UNL     1     -12.380   7.499  71.217  1.00  0.00    -0.319 OA 
BRANCH   3   4
HETATM    4  C   UNL     1     -11.970   8.752  71.543  1.00  0.00    -0.324 C  
HETATM    5  O   UNL     1     -10.850   9.038  71.943  1.00  0.00    -0.350 OA 
HETATM    6  N   UNL     1     -12.974   9.613  71.200  1.00  0.00    -0.458 N  
HETATM    7  H   UNL     1     -13.935   9.270  71.189  1.00  0.00     0.000 HD 
BRANCH   6   8
HETATM    8  C   UNL     1     -12.726  10.959  70.859  1.00  0.00    -0.370 A  
HETATM    9  C   UNL     1     -12.101  11.359  69.665  1.00  0.00    -0.305 A  
HETATM   10  C   UNL     1     -11.889  12.732  69.456  1.00  0.00    -0.379 A  
HETATM   11  N   UNL     1     -11.439  10.435  68.828  1.00  0.00    -0.458 NA 
HETATM   12  H2  UNL     1     -12.098   9.690  68.603  1.00  0.00     0.000 HD 
HETATM   13  C   UNL     1     -12.330  13.702  70.370  1.00  0.00    -0.345 A  
HETATM   14  H1  UNL     1     -10.986  10.725  67.961  1.00  0.00     0.000 HD 
HETATM   15  C   UNL     1     -13.172  11.916  71.775  1.00  0.00    -0.426 A  
HETATM   16  C   UNL     1     -13.011  13.275  71.510  1.00  0.00    -0.426 A  
BRANCH  13  17
HETATM   17  N   UNL     1     -12.115  15.054  70.058  1.00  0.00    -0.319 NA 
HETATM   18  H   UNL     1     -12.830  15.613  69.593  1.00  0.00     0.000 HD 
BRANCH  17  19
HETATM   19  C   UNL     1     -10.824  15.624  70.428  1.00  0.00    -0.340 C  
BRANCH  19  20
HETATM   20  C   UNL     1     -10.109  16.225  69.238  1.00  0.00    -0.267 A  
HETATM   21  C   UNL     1      -9.087  15.490  68.611  1.00  0.00    -0.202 A  
HETATM   22  C   UNL     1      -8.454  15.984  67.471  1.00  0.00    -0.178 A  
HETATM   23  C   UNL     1      -8.845  17.211  66.948  1.00  0.00    -0.235 A  
HETATM   24  C   UNL     1      -9.865  17.945  67.535  1.00  0.00    -0.309 A  
HETATM   25  F   UNL     1      -8.235  17.682  65.851  1.00  0.00    -0.257 F  
HETATM   26  C   UNL     1     -10.505  17.451  68.672  1.00  0.00    -0.355 A  
ENDBRANCH  19  20
ENDBRANCH  17  19
ENDBRANCH  13  17
ENDBRANCH   6   8
ENDBRANCH   3   4
ENDBRANCH   2   3
TORSDOF 6
ENDMDL
MODEL       58
REMARK 921   NORMALIZED FREE ENERGY PREDICTED BY IDOCK:   -5.41 KCAL/MOL
REMARK 922        TOTAL FREE ENERGY PREDICTED BY IDOCK:   -8.01 KCAL/MOL
REMARK 923 INTER-LIGAND FREE ENERGY PREDICTED BY IDOCK:   -7.38 KCAL/MOL
REMARK 924 INTRA-LIGAND FREE ENERGY PREDICTED BY IDOCK:   -0.64 KCAL/MOL
REMARK 927      BINDING AFFINITY PREDICTED BY RF-SCORE:    0.00 PKD
ROOT
HETATM    1  C   UNL     1     -10.848   5.752  69.950  1.00  0.00    -0.417 C  
HETATM    2  C   UNL     1     -10.880   6.131  71.421  1.00  0.00    -0.265 C  
ENDROOT
BRANCH   2   3
HETATM    3  O   UNL     1     -11.885   7.139  71.592  1.00  0.00    -0.276 OA 
BRANCH   3   4
HETATM    4  C   UNL     1     -11.437   8.420  71.610  1.00  0.00    -0.287 C  
HETATM    5  O   UNL     1     -10.494   8.821  72.279  1.00  0.00    -0.329 OA 
HETATM    6  N   UNL     1     -12.124   9.107  70.650  1.00  0.00    -0.476 N  
HETATM    7  H   UNL     1     -13.062   8.793  70.396  1.00  0.00     0.000 HD 
BRANCH   6   8
HETATM    8  C   UNL     1     -11.582  10.235  69.999  1.00  0.00    -0.276 A  
HETATM    9  C   UNL     1     -10.462  10.183  69.151  1.00  0.00    -0.222 A  
HETATM   10  C   UNL     1     -10.005  11.384  68.583  1.00  0.00    -0.209 A  
HETATM   11  N   UNL     1      -9.632   9.042  69.088  1.00  0.00    -0.159 NA 
HETATM   12  H2  UNL     1     -10.223   8.238  68.876  1.00  0.00     0.000 HD 
HETATM   13  C   UNL     1     -10.664  12.605  68.792  1.00  0.00    -0.207 A  
HETATM   14  H1  UNL     1      -8.819   9.004  68.472  1.00  0.00     0.000 HD 
HETATM   15  C   UNL     1     -12.249  11.445  70.212  1.00  0.00    -0.433 A  
HETATM   16  C   UNL     1     -11.815  12.609  69.580  1.00  0.00    -0.376 A  
BRANCH  13  17
HETATM   17  N   UNL     1     -10.163  13.748  68.148  1.00  0.00    -0.246 NA 
HETATM   18  H   UNL     1     -10.286  14.680  68.545  1.00  0.00     0.000 HD 
BRANCH  17  19
HETATM   19  C   UNL     1      -9.459  13.545  66.886  1.00  0.00    -0.258 C  
BRANCH  19  20
HETATM   20  C   UNL     1     -10.396  13.111  65.780  1.00  0.00    -0.294 A  
HETATM   21  C   UNL     1     -10.028  12.031  64.957  1.00  0.00    -0.259 A  
HETATM   22  C   UNL     1     -10.897  11.561  63.972  1.00  0.00    -0.453 A  
HETATM   23  C   UNL     1     -12.139  12.162  63.811  1.00  0.00    -0.525 A  
HETATM   24  C   UNL     1     -12.534  13.214  64.625  1.00  0.00    -0.433 A  
HETATM   25  F   UNL     1     -12.972  11.707  62.865  1.00  0.00    -0.619 F  
HETATM   26  C   UNL     1     -11.670  13.683  65.616  1.00  0.00    -0.360 A  
ENDBRANCH  19  20
ENDBRANCH  17  19
ENDBRANCH  13  17
ENDBRANCH   6   8
ENDBRANCH   3   4
ENDBRANCH   2   3
TORSDOF 6
ENDMDL
MODEL       59
REMARK 921   NORMALIZED FREE ENERGY PREDICTED BY IDOCK:   -5.41 KCAL/MOL
REMARK 922        TOTAL FREE ENERGY PREDICTED BY IDOCK:   -8.01 KCAL/MOL
REMARK 923 INTER-LIGAND FREE ENERGY PREDICTED BY IDOCK:   -7.40 KCAL/MOL
REMARK 924 INTRA-LIGAND FREE ENERGY PREDICTED BY IDOCK:   -0.61 KCAL/MOL
REMARK 927      BINDING AFFINITY PREDICTED BY RF-SCORE:    0.00 PKD
ROOT
HETATM    1  C   UNL     1     -10.055   6.332  74.483  1.00  0.00    -0.353 C  
HETATM    2  C   UNL     1     -10.748   7.137  73.398  1.00  0.00    -0.368 C  
ENDROOT
BRANCH   2   3
HETATM    3  O   UNL     1     -11.639   6.256  72.700  1.00  0.00    -0.252 OA 
BRANCH   3   4
HETATM    4  C   UNL     1     -12.017   6.663  71.461  1.00  0.00    -0.352 C  
HETATM    5  O   UNL     1     -13.022   7.317  71.217  1.00  0.00    -0.369 OA 
HETATM    6  N   UNL     1     -11.008   6.339  70.599  1.00  0.00    -0.288 N  
HETATM    7  H   UNL     1     -10.404   5.547  70.823  1.00  0.00     0.000 HD 
BRANCH   6   8
HETATM    8  C   UNL     1     -10.773   7.062  69.411  1.00  0.00    -0.238 A  
HETATM    9  C   UNL     1     -10.381   8.412  69.384  1.00  0.00    -0.215 A  
HETATM   10  C   UNL     1     -10.204   9.027  68.133  1.00  0.00    -0.247 A  
HETATM   11  N   UNL     1     -10.444   9.226  70.537  1.00  0.00    -0.233 NA 
HETATM   12  H2  UNL     1      -9.916   8.761  71.276  1.00  0.00     0.000 HD 
HETATM   13  C   UNL     1     -10.349   8.320  66.930  1.00  0.00    -0.320 A  
HETATM   14  H1  UNL     1     -10.159  10.206  70.518  1.00  0.00     0.000 HD 
HETATM   15  C   UNL     1     -10.917   6.347  68.219  1.00  0.00    -0.396 A  
HETATM   16  C   UNL     1     -10.666   6.963  66.993  1.00  0.00    -0.432 A  
BRANCH  13  17
HETATM   17  N   UNL     1     -10.108   9.002  65.726  1.00  0.00    -0.362 NA 
HETATM   18  H   UNL     1     -10.451   8.645  64.834  1.00  0.00     0.000 HD 
BRANCH  17  19
HETATM   19  C   UNL     1      -9.345  10.243  65.808  1.00  0.00    -0.186 C  
BRANCH  19  20
HETATM   20  C   UNL     1     -10.111  11.416  65.237  1.00  0.00    -0.315 A  
HETATM   21  C   UNL     1     -10.907  11.221  64.094  1.00  0.00    -0.407 A  
HETATM   22  C   UNL     1     -11.680  12.262  63.580  1.00  0.00    -0.591 A  
HETATM   23  C   UNL     1     -11.666  13.500  64.211  1.00  0.00    -0.416 A  
HETATM   24  C   UNL     1     -10.906  13.712  65.353  1.00  0.00    -0.302 A  
HETATM   25  F   UNL     1     -12.411  14.498  63.716  1.00  0.00    -0.480 F  
HETATM   26  C   UNL     1     -10.137  12.670  65.873  1.00  0.00    -0.276 A  
ENDBRANCH  19  20
ENDBRANCH  17  19
ENDBRANCH  13  17
ENDBRANCH   6   8
ENDBRANCH   3   4
ENDBRANCH   2   3
TORSDOF 6
ENDMDL
MODEL       60
REMARK 921   NORMALIZED FREE ENERGY PREDICTED BY IDOCK:   -5.40 KCAL/MOL
REMARK 922        TOTAL FREE ENERGY PREDICTED BY IDOCK:   -8.00 KCAL/MOL
REMARK 923 INTER-LIGAND FREE ENERGY PREDICTED BY IDOCK:   -7.57 KCAL/MOL
REMARK 924 INTRA-LIGAND FREE ENERGY PREDICTED BY IDOCK:   -0.43 KCAL/MOL
REMARK 927      BINDING AFFINITY PREDICTED BY RF-SCORE:    0.00 PKD
ROOT
HETATM    1  C   UNL     1      -8.617   5.886  67.348  1.00  0.00    -0.106 C  
HETATM    2  C   UNL     1      -9.625   6.645  66.502  1.00  0.00    -0.140 C  
ENDROOT
BRANCH   2   3
HETATM    3  O   UNL     1      -9.059   7.926  66.191  1.00  0.00    -0.173 OA 
BRANCH   3   4
HETATM    4  C   UNL     1      -9.917   8.976  66.245  1.00  0.00    -0.281 C  
HETATM    5  O   UNL     1     -10.723   9.175  67.144  1.00  0.00    -0.255 OA 
HETATM    6  N   UNL     1      -9.600   9.816  65.215  1.00  0.00    -0.288 N  
HETATM    7  H   UNL     1      -9.167   9.426  64.377  1.00  0.00     0.000 HD 
BRANCH   6   8
HETATM    8  C   UNL     1      -9.852  11.203  65.271  1.00  0.00    -0.249 A  
HETATM    9  C   UNL     1     -10.722  11.874  64.393  1.00  0.00    -0.323 A  
HETATM   10  C   UNL     1     -10.867  13.264  64.537  1.00  0.00    -0.409 A  
HETATM   11  N   UNL     1     -11.215  11.257  63.222  1.00  0.00    -0.832 NA 
HETATM   12  H2  UNL     1     -11.659  10.380  63.494  1.00  0.00     0.000 HD 
HETATM   13  C   UNL     1     -10.219  13.978  65.556  1.00  0.00    -0.343 A  
HETATM   14  H1  UNL     1     -11.847  11.743  62.586  1.00  0.00     0.000 HD 
HETATM   15  C   UNL     1      -9.204  11.904  66.292  1.00  0.00    -0.218 A  
HETATM   16  C   UNL     1      -9.420  13.271  66.455  1.00  0.00    -0.251 A  
BRANCH  13  17
HETATM   17  N   UNL     1     -10.458  15.359  65.654  1.00  0.00    -0.344 NA 
HETATM   18  H   UNL     1     -10.410  15.966  64.835  1.00  0.00     0.000 HD 
BRANCH  17  19
HETATM   19  C   UNL     1     -10.776  15.886  66.976  1.00  0.00    -0.292 C  
BRANCH  19  20
HETATM   20  C   UNL     1     -10.385  17.340  67.114  1.00  0.00    -0.321 A  
HETATM   21  C   UNL     1     -10.532  18.196  66.007  1.00  0.00    -0.346 A  
HETATM   22  C   UNL     1     -10.245  19.557  66.118  1.00  0.00    -0.588 A  
HETATM   23  C   UNL     1      -9.818  20.069  67.337  1.00  0.00    -0.422 A  
HETATM   24  C   UNL     1      -9.685  19.250  68.449  1.00  0.00    -0.474 A  
HETATM   25  F   UNL     1      -9.545  21.377  67.440  1.00  0.00    -0.550 F  
HETATM   26  C   UNL     1      -9.978  17.890  68.344  1.00  0.00    -0.367 A  
ENDBRANCH  19  20
ENDBRANCH  17  19
ENDBRANCH  13  17
ENDBRANCH   6   8
ENDBRANCH   3   4
ENDBRANCH   2   3
TORSDOF 6
ENDMDL
MODEL       61
REMARK 921   NORMALIZED FREE ENERGY PREDICTED BY IDOCK:   -5.39 KCAL/MOL
REMARK 922        TOTAL FREE ENERGY PREDICTED BY IDOCK:   -7.99 KCAL/MOL
REMARK 923 INTER-LIGAND FREE ENERGY PREDICTED BY IDOCK:   -7.26 KCAL/MOL
REMARK 924 INTRA-LIGAND FREE ENERGY PREDICTED BY IDOCK:   -0.72 KCAL/MOL
REMARK 927      BINDING AFFINITY PREDICTED BY RF-SCORE:    0.00 PKD
ROOT
HETATM    1  C   UNL     1      -9.241  10.298  62.882  1.00  0.00    -0.316 C  
HETATM    2  C   UNL     1     -10.410  10.878  63.659  1.00  0.00    -0.298 C  
ENDROOT
BRANCH   2   3
HETATM    3  O   UNL     1     -10.389  10.307  64.973  1.00  0.00    -0.288 OA 
BRANCH   3   4
HETATM    4  C   UNL     1     -10.163  11.178  65.989  1.00  0.00    -0.250 C  
HETATM    5  O   UNL     1      -9.149  11.208  66.673  1.00  0.00    -0.162 OA 
HETATM    6  N   UNL     1     -11.191  12.079  65.991  1.00  0.00    -0.325 N  
HETATM    7  H   UNL     1     -12.099  11.791  65.625  1.00  0.00     0.000 HD 
BRANCH   6   8
HETATM    8  C   UNL     1     -11.038  13.394  66.480  1.00  0.00    -0.297 A  
HETATM    9  C   UNL     1     -10.502  14.450  65.722  1.00  0.00    -0.318 A  
HETATM   10  C   UNL     1     -10.379  15.709  66.334  1.00  0.00    -0.303 A  
HETATM   11  N   UNL     1      -9.833  14.221  64.500  1.00  0.00    -0.559 NA 
HETATM   12  H2  UNL     1     -10.460  13.690  63.896  1.00  0.00     0.000 HD 
HETATM   13  C   UNL     1     -10.825  15.947  67.643  1.00  0.00    -0.312 A  
HETATM   14  H1  UNL     1      -9.444  14.988  63.950  1.00  0.00     0.000 HD 
HETATM   15  C   UNL     1     -11.490  13.620  67.783  1.00  0.00    -0.351 A  
HETATM   16  C   UNL     1     -11.420  14.895  68.341  1.00  0.00    -0.338 A  
BRANCH  13  17
HETATM   17  N   UNL     1     -10.705  17.247  68.159  1.00  0.00    -0.383 NA 
HETATM   18  H   UNL     1     -10.863  17.445  69.148  1.00  0.00     0.000 HD 
BRANCH  17  19
HETATM   19  C   UNL     1     -10.343  18.304  67.220  1.00  0.00    -0.390 C  
BRANCH  19  20
HETATM   20  C   UNL     1      -9.018  18.942  67.571  1.00  0.00    -0.308 A  
HETATM   21  C   UNL     1      -8.573  20.049  66.825  1.00  0.00    -0.396 A  
HETATM   22  C   UNL     1      -7.389  20.705  67.164  1.00  0.00    -0.389 A  
HETATM   23  C   UNL     1      -6.649  20.262  68.255  1.00  0.00    -0.299 A  
HETATM   24  C   UNL     1      -7.078  19.186  69.019  1.00  0.00    -0.377 A  
HETATM   25  F   UNL     1      -5.514  20.895  68.579  1.00  0.00    -0.271 F  
HETATM   26  C   UNL     1      -8.265  18.532  68.687  1.00  0.00    -0.335 A  
ENDBRANCH  19  20
ENDBRANCH  17  19
ENDBRANCH  13  17
ENDBRANCH   6   8
ENDBRANCH   3   4
ENDBRANCH   2   3
TORSDOF 6
ENDMDL
MODEL       62
REMARK 921   NORMALIZED FREE ENERGY PREDICTED BY IDOCK:   -5.37 KCAL/MOL
REMARK 922        TOTAL FREE ENERGY PREDICTED BY IDOCK:   -7.96 KCAL/MOL
REMARK 923 INTER-LIGAND FREE ENERGY PREDICTED BY IDOCK:   -7.46 KCAL/MOL
REMARK 924 INTRA-LIGAND FREE ENERGY PREDICTED BY IDOCK:   -0.50 KCAL/MOL
REMARK 927      BINDING AFFINITY PREDICTED BY RF-SCORE:    0.00 PKD
ROOT
HETATM    1  C   UNL     1      -8.939   5.149  74.025  1.00  0.00    -0.116 C  
HETATM    2  C   UNL     1     -10.313   5.638  74.450  1.00  0.00    -0.258 C  
ENDROOT
BRANCH   2   3
HETATM    3  O   UNL     1     -10.436   7.007  74.042  1.00  0.00    -0.366 OA 
BRANCH   3   4
HETATM    4  C   UNL     1     -10.573   7.213  72.707  1.00  0.00    -0.268 C  
HETATM    5  O   UNL     1     -11.193   6.481  71.947  1.00  0.00    -0.247 OA 
HETATM    6  N   UNL     1     -10.034   8.436  72.425  1.00  0.00    -0.304 N  
HETATM    7  H   UNL     1      -9.291   8.797  73.023  1.00  0.00     0.000 HD 
BRANCH   6   8
HETATM    8  C   UNL     1     -10.472   9.217  71.334  1.00  0.00    -0.338 A  
HETATM    9  C   UNL     1      -9.709   9.431  70.173  1.00  0.00    -0.235 A  
HETATM   10  C   UNL     1     -10.248  10.252  69.168  1.00  0.00    -0.234 A  
HETATM   11  N   UNL     1      -8.339   9.096  70.113  1.00  0.00    -0.146 NA 
HETATM   12  H2  UNL     1      -8.246   8.113  70.372  1.00  0.00     0.000 HD 
HETATM   13  C   UNL     1     -11.533  10.806  69.269  1.00  0.00    -0.298 A  
HETATM   14  H1  UNL     1      -7.785   9.251  69.270  1.00  0.00     0.000 HD 
HETATM   15  C   UNL     1     -11.755   9.761  71.444  1.00  0.00    -0.475 A  
HETATM   16  C   UNL     1     -12.293  10.514  70.402  1.00  0.00    -0.409 A  
BRANCH  13  17
HETATM   17  N   UNL     1     -12.010  11.576  68.195  1.00  0.00    -0.610 NA 
HETATM   18  H   UNL     1     -12.890  12.089  68.257  1.00  0.00     0.000 HD 
BRANCH  17  19
HETATM   19  C   UNL     1     -11.191  11.612  66.988  1.00  0.00    -0.314 C  
BRANCH  19  20
HETATM   20  C   UNL     1     -11.309  12.934  66.264  1.00  0.00    -0.364 A  
HETATM   21  C   UNL     1     -10.189  13.784  66.206  1.00  0.00    -0.298 A  
HETATM   22  C   UNL     1     -10.242  14.980  65.490  1.00  0.00    -0.406 A  
HETATM   23  C   UNL     1     -11.410  15.328  64.822  1.00  0.00    -0.391 A  
HETATM   24  C   UNL     1     -12.521  14.496  64.847  1.00  0.00    -0.321 A  
HETATM   25  F   UNL     1     -11.457  16.476  64.133  1.00  0.00    -0.528 F  
HETATM   26  C   UNL     1     -12.470  13.296  65.556  1.00  0.00    -0.531 A  
ENDBRANCH  19  20
ENDBRANCH  17  19
ENDBRANCH  13  17
ENDBRANCH   6   8
ENDBRANCH   3   4
ENDBRANCH   2   3
TORSDOF 6
ENDMDL
MODEL       63
REMARK 921   NORMALIZED FREE ENERGY PREDICTED BY IDOCK:   -5.35 KCAL/MOL
REMARK 922        TOTAL FREE ENERGY PREDICTED BY IDOCK:   -7.93 KCAL/MOL
REMARK 923 INTER-LIGAND FREE ENERGY PREDICTED BY IDOCK:   -7.00 KCAL/MOL
REMARK 924 INTRA-LIGAND FREE ENERGY PREDICTED BY IDOCK:   -0.92 KCAL/MOL
REMARK 927      BINDING AFFINITY PREDICTED BY RF-SCORE:    0.00 PKD
ROOT
HETATM    1  C   UNL     1     -13.789  15.629  72.806  1.00  0.00    -0.628 C  
HETATM    2  C   UNL     1     -13.861  14.964  71.442  1.00  0.00    -0.459 C  
ENDROOT
BRANCH   2   3
HETATM    3  O   UNL     1     -13.168  15.803  70.509  1.00  0.00    -0.449 OA 
BRANCH   3   4
HETATM    4  C   UNL     1     -12.032  15.282  69.980  1.00  0.00    -0.343 C  
HETATM    5  O   UNL     1     -11.190  14.656  70.611  1.00  0.00    -0.190 OA 
HETATM    6  N   UNL     1     -12.093  15.457  68.627  1.00  0.00    -0.570 N  
HETATM    7  H   UNL     1     -12.636  16.237  68.255  1.00  0.00     0.000 HD 
BRANCH   6   8
HETATM    8  C   UNL     1     -11.432  14.596  67.726  1.00  0.00    -0.340 A  
HETATM    9  C   UNL     1     -10.116  14.800  67.275  1.00  0.00    -0.236 A  
HETATM   10  C   UNL     1      -9.580  13.882  66.357  1.00  0.00    -0.292 A  
HETATM   11  N   UNL     1      -9.442  16.023  67.484  1.00  0.00    -0.222 NA 
HETATM   12  H2  UNL     1      -9.465  16.225  68.484  1.00  0.00     0.000 HD 
HETATM   13  C   UNL     1     -10.294  12.752  65.931  1.00  0.00    -0.283 A  
HETATM   14  H1  UNL     1      -8.486  16.171  67.157  1.00  0.00     0.000 HD 
HETATM   15  C   UNL     1     -12.152  13.471  67.311  1.00  0.00    -0.367 A  
HETATM   16  C   UNL     1     -11.570  12.539  66.454  1.00  0.00    -0.449 A  
BRANCH  13  17
HETATM   17  N   UNL     1      -9.663  11.862  65.046  1.00  0.00    -0.379 NA 
HETATM   18  H   UNL     1      -9.891  11.848  64.052  1.00  0.00     0.000 HD 
BRANCH  17  19
HETATM   19  C   UNL     1      -8.666  10.958  65.612  1.00  0.00    -0.183 C  
BRANCH  19  20
HETATM   20  C   UNL     1      -9.254  10.069  66.684  1.00  0.00    -0.178 A  
HETATM   21  C   UNL     1     -10.024   8.954  66.302  1.00  0.00    -0.337 A  
HETATM   22  C   UNL     1     -10.524   8.074  67.262  1.00  0.00    -0.384 A  
HETATM   23  C   UNL     1     -10.252   8.299  68.606  1.00  0.00    -0.204 A  
HETATM   24  C   UNL     1      -9.478   9.379  69.006  1.00  0.00    -0.160 A  
HETATM   25  F   UNL     1     -10.733   7.451  69.525  1.00  0.00    -0.224 F  
HETATM   26  C   UNL     1      -8.970  10.258  68.049  1.00  0.00    -0.132 A  
ENDBRANCH  19  20
ENDBRANCH  17  19
ENDBRANCH  13  17
ENDBRANCH   6   8
ENDBRANCH   3   4
ENDBRANCH   2   3
TORSDOF 6
ENDMDL
MODEL       64
REMARK 921   NORMALIZED FREE ENERGY PREDICTED BY IDOCK:   -5.33 KCAL/MOL
REMARK 922        TOTAL FREE ENERGY PREDICTED BY IDOCK:   -7.91 KCAL/MOL
REMARK 923 INTER-LIGAND FREE ENERGY PREDICTED BY IDOCK:   -7.35 KCAL/MOL
REMARK 924 INTRA-LIGAND FREE ENERGY PREDICTED BY IDOCK:   -0.55 KCAL/MOL
REMARK 927      BINDING AFFINITY PREDICTED BY RF-SCORE:    0.00 PKD
ROOT
HETATM    1  C   UNL     1      -8.679   4.625  68.009  1.00  0.00    -0.112 C  
HETATM    2  C   UNL     1      -9.488   5.618  68.827  1.00  0.00    -0.126 C  
ENDROOT
BRANCH   2   3
HETATM    3  O   UNL     1      -9.703   5.046  70.123  1.00  0.00    -0.172 OA 
BRANCH   3   4
HETATM    4  C   UNL     1     -10.504   5.758  70.955  1.00  0.00    -0.244 C  
HETATM    5  O   UNL     1     -10.480   5.690  72.177  1.00  0.00    -0.202 OA 
HETATM    6  N   UNL     1     -11.206   6.644  70.188  1.00  0.00    -0.331 N  
HETATM    7  H   UNL     1     -11.395   6.410  69.213  1.00  0.00     0.000 HD 
BRANCH   6   8
HETATM    8  C   UNL     1     -11.677   7.873  70.698  1.00  0.00    -0.157 A  
HETATM    9  C   UNL     1     -12.682   7.978  71.675  1.00  0.00    -0.326 A  
HETATM   10  C   UNL     1     -13.081   9.262  72.080  1.00  0.00    -0.520 A  
HETATM   11  N   UNL     1     -13.483   6.872  72.036  1.00  0.00    -0.539 NA 
HETATM   12  H2  UNL     1     -12.861   6.111  72.307  1.00  0.00     0.000 HD 
HETATM   13  C   UNL     1     -12.468  10.423  71.584  1.00  0.00    -0.370 A  
HETATM   14  H1  UNL     1     -14.213   6.948  72.745  1.00  0.00     0.000 HD 
HETATM   15  C   UNL     1     -11.057   9.022  70.199  1.00  0.00    -0.228 A  
HETATM   16  C   UNL     1     -11.424  10.282  70.670  1.00  0.00    -0.435 A  
BRANCH  13  17
HETATM   17  N   UNL     1     -12.900  11.664  72.080  1.00  0.00    -0.262 NA 
HETATM   18  H   UNL     1     -13.110  11.799  73.069  1.00  0.00     0.000 HD 
BRANCH  17  19
HETATM   19  C   UNL     1     -13.033  12.754  71.117  1.00  0.00    -0.157 C  
BRANCH  19  20
HETATM   20  C   UNL     1     -12.685  14.093  71.728  1.00  0.00    -0.420 A  
HETATM   21  C   UNL     1     -13.049  14.351  73.062  1.00  0.00    -0.581 A  
HETATM   22  C   UNL     1     -12.685  15.549  73.678  1.00  0.00    -0.713 A  
HETATM   23  C   UNL     1     -11.948  16.488  72.967  1.00  0.00    -0.389 A  
HETATM   24  C   UNL     1     -11.559  16.247  71.657  1.00  0.00    -0.436 A  
HETATM   25  F   UNL     1     -11.598  17.637  73.563  1.00  0.00    -0.258 F  
HETATM   26  C   UNL     1     -11.916  15.048  71.040  1.00  0.00    -0.376 A  
ENDBRANCH  19  20
ENDBRANCH  17  19
ENDBRANCH  13  17
ENDBRANCH   6   8
ENDBRANCH   3   4
ENDBRANCH   2   3
TORSDOF 6
ENDMDL
MODEL       65
REMARK 921   NORMALIZED FREE ENERGY PREDICTED BY IDOCK:   -5.30 KCAL/MOL
REMARK 922        TOTAL FREE ENERGY PREDICTED BY IDOCK:   -7.86 KCAL/MOL
REMARK 923 INTER-LIGAND FREE ENERGY PREDICTED BY IDOCK:   -7.06 KCAL/MOL
REMARK 924 INTRA-LIGAND FREE ENERGY PREDICTED BY IDOCK:   -0.80 KCAL/MOL
REMARK 927      BINDING AFFINITY PREDICTED BY RF-SCORE:    0.00 PKD
ROOT
HETATM    1  C   UNL     1      -9.394  20.142  68.243  1.00  0.00    -0.236 C  
HETATM    2  C   UNL     1     -10.565  19.913  67.302  1.00  0.00    -0.386 C  
ENDROOT
BRANCH   2   3
HETATM    3  O   UNL     1     -10.216  18.834  66.425  1.00  0.00    -0.372 OA 
BRANCH   3   4
HETATM    4  C   UNL     1     -10.238  17.595  66.979  1.00  0.00    -0.332 C  
HETATM    5  O   UNL     1     -11.019  17.232  67.848  1.00  0.00    -0.336 OA 
HETATM    6  N   UNL     1      -9.350  16.822  66.287  1.00  0.00    -0.278 N  
HETATM    7  H   UNL     1      -8.554  17.271  65.832  1.00  0.00     0.000 HD 
BRANCH   6   8
HETATM    8  C   UNL     1      -9.495  15.422  66.179  1.00  0.00    -0.336 A  
HETATM    9  C   UNL     1     -10.239  14.791  65.166  1.00  0.00    -0.377 A  
HETATM   10  C   UNL     1     -10.328  13.389  65.185  1.00  0.00    -0.349 A  
HETATM   11  N   UNL     1     -11.114  15.516  64.328  1.00  0.00    -0.724 NA 
HETATM   12  H2  UNL     1     -10.581  16.272  63.899  1.00  0.00     0.000 HD 
HETATM   13  C   UNL     1      -9.654  12.613  66.141  1.00  0.00    -0.222 A  
HETATM   14  H1  UNL     1     -11.654  15.058  63.592  1.00  0.00     0.000 HD 
HETATM   15  C   UNL     1      -8.817  14.659  67.134  1.00  0.00    -0.238 A  
HETATM   16  C   UNL     1      -8.865  13.267  67.087  1.00  0.00    -0.223 A  
BRANCH  13  17
HETATM   17  N   UNL     1      -9.762  11.216  66.056  1.00  0.00    -0.216 NA 
HETATM   18  H   UNL     1      -8.994  10.642  65.707  1.00  0.00     0.000 HD 
BRANCH  17  19
HETATM   19  C   UNL     1     -11.021  10.619  66.491  1.00  0.00    -0.028 C  
BRANCH  19  20
HETATM   20  C   UNL     1     -11.039  10.360  67.981  1.00  0.00    -0.359 A  
HETATM   21  C   UNL     1     -11.875  11.140  68.800  1.00  0.00    -0.388 A  
HETATM   22  C   UNL     1     -11.968  10.884  70.169  1.00  0.00    -0.435 A  
HETATM   23  C   UNL     1     -11.232   9.842  70.722  1.00  0.00    -0.353 A  
HETATM   24  C   UNL     1     -10.417   9.045  69.930  1.00  0.00    -0.226 A  
HETATM   25  F   UNL     1     -11.324   9.598  72.036  1.00  0.00    -0.411 F  
HETATM   26  C   UNL     1     -10.327   9.294  68.560  1.00  0.00    -0.237 A  
ENDBRANCH  19  20
ENDBRANCH  17  19
ENDBRANCH  13  17
ENDBRANCH   6   8
ENDBRANCH   3   4
ENDBRANCH   2   3
TORSDOF 6
ENDMDL
MODEL       66
REMARK 921   NORMALIZED FREE ENERGY PREDICTED BY IDOCK:   -5.29 KCAL/MOL
REMARK 922        TOTAL FREE ENERGY PREDICTED BY IDOCK:   -7.85 KCAL/MOL
REMARK 923 INTER-LIGAND FREE ENERGY PREDICTED BY IDOCK:   -7.96 KCAL/MOL
REMARK 924 INTRA-LIGAND FREE ENERGY PREDICTED BY IDOCK:    0.11 KCAL/MOL
REMARK 927      BINDING AFFINITY PREDICTED BY RF-SCORE:    0.00 PKD
ROOT
HETATM    1  C   UNL     1     -12.813  15.956  73.147  1.00  0.00    -0.643 C  
HETATM    2  C   UNL     1     -12.823  14.468  73.450  1.00  0.00    -0.304 C  
ENDROOT
BRANCH   2   3
HETATM    3  O   UNL     1     -13.806  13.856  72.605  1.00  0.00    -0.666 OA 
BRANCH   3   4
HETATM    4  C   UNL     1     -13.328  12.974  71.690  1.00  0.00    -0.292 C  
HETATM    5  O   UNL     1     -12.593  13.265  70.756  1.00  0.00    -0.333 OA 
HETATM    6  N   UNL     1     -13.691  11.723  72.100  1.00  0.00    -0.332 N  
HETATM    7  H   UNL     1     -14.532  11.615  72.668  1.00  0.00     0.000 HD 
BRANCH   6   8
HETATM    8  C   UNL     1     -12.943  10.574  71.765  1.00  0.00    -0.476 A  
HETATM    9  C   UNL     1     -13.286   9.273  72.172  1.00  0.00    -0.468 A  
HETATM   10  C   UNL     1     -12.443   8.215  71.793  1.00  0.00    -0.363 A  
HETATM   11  N   UNL     1     -14.263   9.040  73.165  1.00  0.00    -1.190 NA 
HETATM   12  H2  UNL     1     -15.119   9.515  72.879  1.00  0.00     0.000 HD 
HETATM   13  C   UNL     1     -11.316   8.416  70.982  1.00  0.00    -0.266 A  
HETATM   14  H1  UNL     1     -14.513   8.096  73.461  1.00  0.00     0.000 HD 
HETATM   15  C   UNL     1     -11.824  10.786  70.954  1.00  0.00    -0.400 A  
HETATM   16  C   UNL     1     -11.044   9.710  70.535  1.00  0.00    -0.369 A  
BRANCH  13  17
HETATM   17  N   UNL     1     -10.554   7.295  70.615  1.00  0.00    -0.223 NA 
HETATM   18  H   UNL     1      -9.917   6.845  71.272  1.00  0.00     0.000 HD 
BRANCH  17  19
HETATM   19  C   UNL     1     -10.714   6.802  69.250  1.00  0.00    -0.253 C  
BRANCH  19  20
HETATM   20  C   UNL     1      -9.936   7.633  68.255  1.00  0.00    -0.198 A  
HETATM   21  C   UNL     1     -10.607   8.174  67.143  1.00  0.00    -0.355 A  
HETATM   22  C   UNL     1      -9.936   9.001  66.242  1.00  0.00    -0.352 A  
HETATM   23  C   UNL     1      -8.594   9.296  66.452  1.00  0.00    -0.131 A  
HETATM   24  C   UNL     1      -7.916   8.792  67.552  1.00  0.00    -0.102 A  
HETATM   25  F   UNL     1      -7.953  10.092  65.585  1.00  0.00    -0.119 F  
HETATM   26  C   UNL     1      -8.585   7.970  68.459  1.00  0.00    -0.128 A  
ENDBRANCH  19  20
ENDBRANCH  17  19
ENDBRANCH  13  17
ENDBRANCH   6   8
ENDBRANCH   3   4
ENDBRANCH   2   3
TORSDOF 6
ENDMDL
MODEL       67
REMARK 921   NORMALIZED FREE ENERGY PREDICTED BY IDOCK:   -5.29 KCAL/MOL
REMARK 922        TOTAL FREE ENERGY PREDICTED BY IDOCK:   -7.85 KCAL/MOL
REMARK 923 INTER-LIGAND FREE ENERGY PREDICTED BY IDOCK:   -7.20 KCAL/MOL
REMARK 924 INTRA-LIGAND FREE ENERGY PREDICTED BY IDOCK:   -0.65 KCAL/MOL
REMARK 927      BINDING AFFINITY PREDICTED BY RF-SCORE:    0.00 PKD
ROOT
HETATM    1  C   UNL     1     -10.275   6.626  67.640  1.00  0.00    -0.220 C  
HETATM    2  C   UNL     1     -10.607   8.046  67.213  1.00  0.00    -0.290 C  
ENDROOT
BRANCH   2   3
HETATM    3  O   UNL     1      -9.625   8.455  66.253  1.00  0.00    -0.223 OA 
BRANCH   3   4
HETATM    4  C   UNL     1      -9.684   9.756  65.869  1.00  0.00    -0.266 C  
HETATM    5  O   UNL     1      -9.988  10.141  64.748  1.00  0.00    -0.331 OA 
HETATM    6  N   UNL     1      -9.495  10.521  66.985  1.00  0.00    -0.161 N  
HETATM    7  H   UNL     1      -8.949  10.138  67.758  1.00  0.00     0.000 HD 
BRANCH   6   8
HETATM    8  C   UNL     1     -10.030  11.821  67.105  1.00  0.00    -0.203 A  
HETATM    9  C   UNL     1     -11.244  12.109  67.753  1.00  0.00    -0.275 A  
HETATM   10  C   UNL     1     -11.679  13.444  67.782  1.00  0.00    -0.394 A  
HETATM   11  N   UNL     1     -12.154  11.090  68.109  1.00  0.00    -0.780 NA 
HETATM   12  H2  UNL     1     -11.652  10.405  68.674  1.00  0.00     0.000 HD 
HETATM   13  C   UNL     1     -10.915  14.488  67.239  1.00  0.00    -0.305 A  
HETATM   14  H1  UNL     1     -13.035  11.298  68.579  1.00  0.00     0.000 HD 
HETATM   15  C   UNL     1      -9.258  12.854  66.564  1.00  0.00    -0.186 A  
HETATM   16  C   UNL     1      -9.681  14.178  66.669  1.00  0.00    -0.297 A  
BRANCH  13  17
HETATM   17  N   UNL     1     -11.407  15.799  67.354  1.00  0.00    -0.182 NA 
HETATM   18  H   UNL     1     -12.046  16.190  66.662  1.00  0.00     0.000 HD 
BRANCH  17  19
HETATM   19  C   UNL     1     -10.962  16.577  68.505  1.00  0.00    -0.350 C  
BRANCH  19  20
HETATM   20  C   UNL     1     -10.082  17.737  68.097  1.00  0.00    -0.362 A  
HETATM   21  C   UNL     1     -10.646  18.800  67.368  1.00  0.00    -0.505 A  
HETATM   22  C   UNL     1      -9.881  19.917  67.034  1.00  0.00    -0.540 A  
HETATM   23  C   UNL     1      -8.552  19.981  67.434  1.00  0.00    -0.341 A  
HETATM   24  C   UNL     1      -7.979  18.956  68.173  1.00  0.00    -0.330 A  
HETATM   25  F   UNL     1      -7.820  21.057  67.113  1.00  0.00    -0.370 F  
HETATM   26  C   UNL     1      -8.743  17.840  68.515  1.00  0.00    -0.284 A  
ENDBRANCH  19  20
ENDBRANCH  17  19
ENDBRANCH  13  17
ENDBRANCH   6   8
ENDBRANCH   3   4
ENDBRANCH   2   3
TORSDOF 6
ENDMDL
MODEL       68
REMARK 921   NORMALIZED FREE ENERGY PREDICTED BY IDOCK:   -5.28 KCAL/MOL
REMARK 922        TOTAL FREE ENERGY PREDICTED BY IDOCK:   -7.83 KCAL/MOL
REMARK 923 INTER-LIGAND FREE ENERGY PREDICTED BY IDOCK:   -7.28 KCAL/MOL
REMARK 924 INTRA-LIGAND FREE ENERGY PREDICTED BY IDOCK:   -0.55 KCAL/MOL
REMARK 927      BINDING AFFINITY PREDICTED BY RF-SCORE:    0.00 PKD
ROOT
HETATM    1  C   UNL     1      -8.855  10.817  62.703  1.00  0.00    -0.311 C  
HETATM    2  C   UNL     1      -7.758   9.789  62.921  1.00  0.00    -0.127 C  
ENDROOT
BRANCH   2   3
HETATM    3  O   UNL     1      -8.244   8.825  63.864  1.00  0.00    -0.159 OA 
BRANCH   3   4
HETATM    4  C   UNL     1      -8.406   9.274  65.135  1.00  0.00    -0.150 C  
HETATM    5  O   UNL     1      -7.530   9.802  65.807  1.00  0.00    -0.097 OA 
HETATM    6  N   UNL     1      -9.733   9.164  65.441  1.00  0.00    -0.457 N  
HETATM    7  H   UNL     1     -10.289   8.448  64.973  1.00  0.00     0.000 HD 
BRANCH   6   8
HETATM    8  C   UNL     1     -10.360  10.008  66.383  1.00  0.00    -0.179 A  
HETATM    9  C   UNL     1     -10.728   9.595  67.675  1.00  0.00    -0.262 A  
HETATM   10  C   UNL     1     -11.370  10.525  68.510  1.00  0.00    -0.320 A  
HETATM   11  N   UNL     1     -10.736   8.233  68.045  1.00  0.00    -0.447 NA 
HETATM   12  H2  UNL     1      -9.811   7.850  67.846  1.00  0.00     0.000 HD 
HETATM   13  C   UNL     1     -11.596  11.851  68.111  1.00  0.00    -0.334 A  
HETATM   14  H1  UNL     1     -11.003   7.933  68.984  1.00  0.00     0.000 HD 
HETATM   15  C   UNL     1     -10.577  11.327  65.976  1.00  0.00    -0.314 A  
HETATM   16  C   UNL     1     -11.152  12.248  66.849  1.00  0.00    -0.341 A  
BRANCH  13  17
HETATM   17  N   UNL     1     -12.204  12.726  69.027  1.00  0.00    -0.112 NA 
HETATM   18  H   UNL     1     -13.138  12.545  69.396  1.00  0.00     0.000 HD 
BRANCH  17  19
HETATM   19  C   UNL     1     -11.441  13.903  69.428  1.00  0.00    -0.280 C  
BRANCH  19  20
HETATM   20  C   UNL     1     -11.904  14.450  70.760  1.00  0.00    -0.349 A  
HETATM   21  C   UNL     1     -11.420  15.698  71.193  1.00  0.00    -0.463 A  
HETATM   22  C   UNL     1     -11.878  16.263  72.383  1.00  0.00    -0.606 A  
HETATM   23  C   UNL     1     -12.827  15.588  73.141  1.00  0.00    -0.497 A  
HETATM   24  C   UNL     1     -13.336  14.366  72.725  1.00  0.00    -0.606 A  
HETATM   25  F   UNL     1     -13.266  16.135  74.283  1.00  0.00    -0.425 F  
HETATM   26  C   UNL     1     -12.885  13.800  71.532  1.00  0.00    -0.445 A  
ENDBRANCH  19  20
ENDBRANCH  17  19
ENDBRANCH  13  17
ENDBRANCH   6   8
ENDBRANCH   3   4
ENDBRANCH   2   3
TORSDOF 6
ENDMDL
MODEL       69
REMARK 921   NORMALIZED FREE ENERGY PREDICTED BY IDOCK:   -5.21 KCAL/MOL
REMARK 922        TOTAL FREE ENERGY PREDICTED BY IDOCK:   -7.75 KCAL/MOL
REMARK 923 INTER-LIGAND FREE ENERGY PREDICTED BY IDOCK:   -6.88 KCAL/MOL
REMARK 924 INTRA-LIGAND FREE ENERGY PREDICTED BY IDOCK:   -0.87 KCAL/MOL
REMARK 927      BINDING AFFINITY PREDICTED BY RF-SCORE:    0.00 PKD
ROOT
HETATM    1  C   UNL     1     -12.413  15.495  74.121  1.00  0.00    -0.805 C  
HETATM    2  C   UNL     1     -13.283  15.361  72.883  1.00  0.00    -0.518 C  
ENDROOT
BRANCH   2   3
HETATM    3  O   UNL     1     -12.705  16.173  71.852  1.00  0.00    -0.412 OA 
BRANCH   3   4
HETATM    4  C   UNL     1     -11.982  15.508  70.916  1.00  0.00    -0.375 C  
HETATM    5  O   UNL     1     -10.766  15.574  70.794  1.00  0.00    -0.318 OA 
HETATM    6  N   UNL     1     -12.835  14.663  70.265  1.00  0.00    -0.550 N  
HETATM    7  H   UNL     1     -13.824  14.907  70.210  1.00  0.00     0.000 HD 
BRANCH   6   8
HETATM    8  C   UNL     1     -12.395  13.463  69.666  1.00  0.00    -0.131 A  
HETATM    9  C   UNL     1     -12.013  13.359  68.317  1.00  0.00    -0.317 A  
HETATM   10  C   UNL     1     -11.618  12.099  67.836  1.00  0.00    -0.413 A  
HETATM   11  N   UNL     1     -12.286  14.386  67.388  1.00  0.00    -0.600 NA 
HETATM   12  H2  UNL     1     -11.897  15.253  67.757  1.00  0.00     0.000 HD 
HETATM   13  C   UNL     1     -11.541  10.974  68.670  1.00  0.00    -0.316 A  
HETATM   14  H1  UNL     1     -12.009  14.310  66.408  1.00  0.00     0.000 HD 
HETATM   15  C   UNL     1     -12.318  12.349  70.508  1.00  0.00    -0.346 A  
HETATM   16  C   UNL     1     -11.856  11.128  70.021  1.00  0.00    -0.441 A  
BRANCH  13  17
HETATM   17  N   UNL     1     -11.091   9.765  68.115  1.00  0.00    -0.504 NA 
HETATM   18  H   UNL     1     -11.627   9.278  67.396  1.00  0.00     0.000 HD 
BRANCH  17  19
HETATM   19  C   UNL     1      -9.824   9.236  68.610  1.00  0.00    -0.162 C  
BRANCH  19  20
HETATM   20  C   UNL     1      -8.706   9.418  67.608  1.00  0.00    -0.116 A  
HETATM   21  C   UNL     1      -7.442   9.834  68.063  1.00  0.00    -0.082 A  
HETATM   22  C   UNL     1      -6.370   9.947  67.177  1.00  0.00    -0.068 A  
HETATM   23  C   UNL     1      -6.555   9.635  65.835  1.00  0.00    -0.080 A  
HETATM   24  C   UNL     1      -7.787   9.202  65.366  1.00  0.00    -0.100 A  
HETATM   25  F   UNL     1      -5.523   9.743  64.987  1.00  0.00    -0.048 F  
HETATM   26  C   UNL     1      -8.860   9.082  66.250  1.00  0.00    -0.180 A  
ENDBRANCH  19  20
ENDBRANCH  17  19
ENDBRANCH  13  17
ENDBRANCH   6   8
ENDBRANCH   3   4
ENDBRANCH   2   3
TORSDOF 6
ENDMDL
MODEL       70
REMARK 921   NORMALIZED FREE ENERGY PREDICTED BY IDOCK:   -5.21 KCAL/MOL
REMARK 922        TOTAL FREE ENERGY PREDICTED BY IDOCK:   -7.75 KCAL/MOL
REMARK 923 INTER-LIGAND FREE ENERGY PREDICTED BY IDOCK:   -6.92 KCAL/MOL
REMARK 924 INTRA-LIGAND FREE ENERGY PREDICTED BY IDOCK:   -0.82 KCAL/MOL
REMARK 927      BINDING AFFINITY PREDICTED BY RF-SCORE:    0.00 PKD
ROOT
HETATM    1  C   UNL     1     -10.410  19.763  66.361  1.00  0.00    -0.619 C  
HETATM    2  C   UNL     1     -10.493  18.324  65.879  1.00  0.00    -0.307 C  
ENDROOT
BRANCH   2   3
HETATM    3  O   UNL     1      -9.167  17.780  65.893  1.00  0.00    -0.519 OA 
BRANCH   3   4
HETATM    4  C   UNL     1      -9.084  16.437  66.068  1.00  0.00    -0.282 C  
HETATM    5  O   UNL     1      -8.093  15.844  66.475  1.00  0.00    -0.265 OA 
HETATM    6  N   UNL     1     -10.331  15.919  65.856  1.00  0.00    -0.344 N  
HETATM    7  H   UNL     1     -10.970  16.414  65.233  1.00  0.00     0.000 HD 
BRANCH   6   8
HETATM    8  C   UNL     1     -10.764  14.724  66.469  1.00  0.00    -0.319 A  
HETATM    9  C   UNL     1     -11.442  14.680  67.699  1.00  0.00    -0.346 A  
HETATM   10  C   UNL     1     -11.797  13.423  68.216  1.00  0.00    -0.393 A  
HETATM   11  N   UNL     1     -11.515  15.807  68.547  1.00  0.00    -0.374 NA 
HETATM   12  H2  UNL     1     -11.900  16.581  68.004  1.00  0.00     0.000 HD 
HETATM   13  C   UNL     1     -11.546  12.233  67.516  1.00  0.00    -0.353 A  
HETATM   14  H1  UNL     1     -12.008  15.775  69.440  1.00  0.00     0.000 HD 
HETATM   15  C   UNL     1     -10.512  13.546  65.761  1.00  0.00    -0.293 A  
HETATM   16  C   UNL     1     -10.937  12.317  66.263  1.00  0.00    -0.327 A  
BRANCH  13  17
HETATM   17  N   UNL     1     -11.977  11.024  68.086  1.00  0.00    -0.763 NA 
HETATM   18  H   UNL     1     -12.924  10.675  67.943  1.00  0.00     0.000 HD 
BRANCH  17  19
HETATM   19  C   UNL     1     -11.008  10.288  68.894  1.00  0.00    -0.238 C  
BRANCH  19  20
HETATM   20  C   UNL     1     -10.165   9.356  68.054  1.00  0.00    -0.248 A  
HETATM   21  C   UNL     1      -8.798   9.640  67.879  1.00  0.00    -0.119 A  
HETATM   22  C   UNL     1      -7.976   8.767  67.168  1.00  0.00    -0.096 A  
HETATM   23  C   UNL     1      -8.513   7.601  66.635  1.00  0.00    -0.130 A  
HETATM   24  C   UNL     1      -9.854   7.288  66.812  1.00  0.00    -0.281 A  
HETATM   25  F   UNL     1      -7.720   6.763  65.954  1.00  0.00    -0.082 F  
HETATM   26  C   UNL     1     -10.678   8.156  67.529  1.00  0.00    -0.227 A  
ENDBRANCH  19  20
ENDBRANCH  17  19
ENDBRANCH  13  17
ENDBRANCH   6   8
ENDBRANCH   3   4
ENDBRANCH   2   3
TORSDOF 6
ENDMDL
MODEL       71
REMARK 921   NORMALIZED FREE ENERGY PREDICTED BY IDOCK:   -5.20 KCAL/MOL
REMARK 922        TOTAL FREE ENERGY PREDICTED BY IDOCK:   -7.73 KCAL/MOL
REMARK 923 INTER-LIGAND FREE ENERGY PREDICTED BY IDOCK:   -7.09 KCAL/MOL
REMARK 924 INTRA-LIGAND FREE ENERGY PREDICTED BY IDOCK:   -0.64 KCAL/MOL
REMARK 927      BINDING AFFINITY PREDICTED BY RF-SCORE:    0.00 PKD
ROOT
HETATM    1  C   UNL     1      -6.815   4.422  72.866  1.00  0.00    -0.057 C  
HETATM    2  C   UNL     1      -8.229   4.969  72.767  1.00  0.00    -0.109 C  
ENDROOT
BRANCH   2   3
HETATM    3  O   UNL     1      -8.523   5.648  73.995  1.00  0.00    -0.115 OA 
BRANCH   3   4
HETATM    4  C   UNL     1      -9.169   6.836  73.871  1.00  0.00    -0.179 C  
HETATM    5  O   UNL     1      -8.781   7.895  74.344  1.00  0.00    -0.207 OA 
HETATM    6  N   UNL     1     -10.215   6.644  73.014  1.00  0.00    -0.192 N  
HETATM    7  H   UNL     1     -10.630   5.714  72.943  1.00  0.00     0.000 HD 
BRANCH   6   8
HETATM    8  C   UNL     1     -10.741   7.688  72.223  1.00  0.00    -0.260 A  
HETATM    9  C   UNL     1     -10.135   8.153  71.043  1.00  0.00    -0.187 A  
HETATM   10  C   UNL     1     -10.746   9.217  70.359  1.00  0.00    -0.300 A  
HETATM   11  N   UNL     1      -8.816   7.789  70.693  1.00  0.00    -0.143 NA 
HETATM   12  H2  UNL     1      -8.763   6.770  70.692  1.00  0.00     0.000 HD 
HETATM   13  C   UNL     1     -11.958   9.779  70.788  1.00  0.00    -0.299 A  
HETATM   14  H1  UNL     1      -8.376   8.126  69.836  1.00  0.00     0.000 HD 
HETATM   15  C   UNL     1     -11.950   8.237  72.658  1.00  0.00    -0.360 A  
HETATM   16  C   UNL     1     -12.571   9.245  71.922  1.00  0.00    -0.468 A  
BRANCH  13  17
HETATM   17  N   UNL     1     -12.520  10.810  70.018  1.00  0.00    -0.416 NA 
HETATM   18  H   UNL     1     -13.432  10.705  69.572  1.00  0.00     0.000 HD 
BRANCH  17  19
HETATM   19  C   UNL     1     -11.744  12.038  69.883  1.00  0.00    -0.299 C  
BRANCH  19  20
HETATM   20  C   UNL     1     -12.332  13.170  70.696  1.00  0.00    -0.405 A  
HETATM   21  C   UNL     1     -13.230  12.871  71.736  1.00  0.00    -0.479 A  
HETATM   22  C   UNL     1     -13.739  13.883  72.549  1.00  0.00    -0.665 A  
HETATM   23  C   UNL     1     -13.346  15.199  72.331  1.00  0.00    -0.422 A  
HETATM   24  C   UNL     1     -12.445  15.517  71.325  1.00  0.00    -0.486 A  
HETATM   25  F   UNL     1     -13.835  16.169  73.115  1.00  0.00    -0.659 F  
HETATM   26  C   UNL     1     -11.929  14.506  70.514  1.00  0.00    -0.387 A  
ENDBRANCH  19  20
ENDBRANCH  17  19
ENDBRANCH  13  17
ENDBRANCH   6   8
ENDBRANCH   3   4
ENDBRANCH   2   3
TORSDOF 6
ENDMDL
MODEL       72
REMARK 921   NORMALIZED FREE ENERGY PREDICTED BY IDOCK:   -5.19 KCAL/MOL
REMARK 922        TOTAL FREE ENERGY PREDICTED BY IDOCK:   -7.72 KCAL/MOL
REMARK 923 INTER-LIGAND FREE ENERGY PREDICTED BY IDOCK:   -7.20 KCAL/MOL
REMARK 924 INTRA-LIGAND FREE ENERGY PREDICTED BY IDOCK:   -0.52 KCAL/MOL
REMARK 927      BINDING AFFINITY PREDICTED BY RF-SCORE:    0.00 PKD
ROOT
HETATM    1  C   UNL     1     -10.699   4.956  73.814  1.00  0.00    -0.361 C  
HETATM    2  C   UNL     1     -10.695   6.140  72.861  1.00  0.00    -0.247 C  
ENDROOT
BRANCH   2   3
HETATM    3  O   UNL     1     -11.608   5.846  71.795  1.00  0.00    -0.254 OA 
BRANCH   3   4
HETATM    4  C   UNL     1     -11.793   6.840  70.889  1.00  0.00    -0.385 C  
HETATM    5  O   UNL     1     -12.397   7.881  71.108  1.00  0.00    -0.298 OA 
HETATM    6  N   UNL     1     -11.064   6.522  69.779  1.00  0.00    -0.335 N  
HETATM    7  H   UNL     1     -10.880   5.539  69.575  1.00  0.00     0.000 HD 
BRANCH   6   8
HETATM    8  C   UNL     1     -10.558   7.507  68.904  1.00  0.00    -0.169 A  
HETATM    9  C   UNL     1     -10.781   7.506  67.516  1.00  0.00    -0.226 A  
HETATM   10  C   UNL     1     -10.200   8.530  66.750  1.00  0.00    -0.370 A  
HETATM   11  N   UNL     1     -11.312   6.379  66.851  1.00  0.00    -0.774 NA 
HETATM   12  H2  UNL     1     -12.189   6.130  67.309  1.00  0.00     0.000 HD 
HETATM   13  C   UNL     1      -9.461   9.570  67.336  1.00  0.00    -0.135 A  
HETATM   14  H1  UNL     1     -11.475   6.379  65.843  1.00  0.00     0.000 HD 
HETATM   15  C   UNL     1      -9.827   8.539  69.499  1.00  0.00    -0.187 A  
HETATM   16  C   UNL     1      -9.320   9.581  68.724  1.00  0.00    -0.146 A  
BRANCH  13  17
HETATM   17  N   UNL     1      -8.954  10.577  66.499  1.00  0.00    -0.154 NA 
HETATM   18  H   UNL     1      -8.305  11.282  66.848  1.00  0.00     0.000 HD 
BRANCH  17  19
HETATM   19  C   UNL     1      -9.398  10.571  65.109  1.00  0.00    -0.216 C  
BRANCH  19  20
HETATM   20  C   UNL     1     -10.348  11.710  64.814  1.00  0.00    -0.331 A  
HETATM   21  C   UNL     1     -10.359  12.829  65.665  1.00  0.00    -0.296 A  
HETATM   22  C   UNL     1     -11.174  13.927  65.385  1.00  0.00    -0.306 A  
HETATM   23  C   UNL     1     -11.975  13.913  64.250  1.00  0.00    -0.444 A  
HETATM   24  C   UNL     1     -11.966  12.829  63.383  1.00  0.00    -0.613 A  
HETATM   25  F   UNL     1     -12.755  14.969  63.983  1.00  0.00    -0.432 F  
HETATM   26  C   UNL     1     -11.148  11.732  63.656  1.00  0.00    -0.518 A  
ENDBRANCH  19  20
ENDBRANCH  17  19
ENDBRANCH  13  17
ENDBRANCH   6   8
ENDBRANCH   3   4
ENDBRANCH   2   3
TORSDOF 6
ENDMDL
MODEL       73
REMARK 921   NORMALIZED FREE ENERGY PREDICTED BY IDOCK:   -5.16 KCAL/MOL
REMARK 922        TOTAL FREE ENERGY PREDICTED BY IDOCK:   -7.67 KCAL/MOL
REMARK 923 INTER-LIGAND FREE ENERGY PREDICTED BY IDOCK:   -7.35 KCAL/MOL
REMARK 924 INTRA-LIGAND FREE ENERGY PREDICTED BY IDOCK:   -0.32 KCAL/MOL
REMARK 927      BINDING AFFINITY PREDICTED BY RF-SCORE:    0.00 PKD
ROOT
HETATM    1  C   UNL     1     -12.147  13.066  63.340  1.00  0.00    -0.591 C  
HETATM    2  C   UNL     1     -11.837  14.054  64.452  1.00  0.00    -0.431 C  
ENDROOT
BRANCH   2   3
HETATM    3  O   UNL     1     -10.423  14.020  64.686  1.00  0.00    -0.434 OA 
BRANCH   3   4
HETATM    4  C   UNL     1     -10.040  13.568  65.907  1.00  0.00    -0.303 C  
HETATM    5  O   UNL     1      -9.312  14.176  66.681  1.00  0.00    -0.272 OA 
HETATM    6  N   UNL     1     -10.729  12.414  66.150  1.00  0.00    -0.254 N  
HETATM    7  H   UNL     1     -11.035  11.846  65.360  1.00  0.00     0.000 HD 
BRANCH   6   8
HETATM    8  C   UNL     1     -11.033  11.981  67.459  1.00  0.00    -0.253 A  
HETATM    9  C   UNL     1     -11.810  12.723  68.365  1.00  0.00    -0.310 A  
HETATM   10  C   UNL     1     -12.018  12.192  69.649  1.00  0.00    -0.351 A  
HETATM   11  N   UNL     1     -12.133  14.077  68.130  1.00  0.00    -0.511 NA 
HETATM   12  H2  UNL     1     -12.577  14.138  67.214  1.00  0.00     0.000 HD 
HETATM   13  C   UNL     1     -11.526  10.932  70.023  1.00  0.00    -0.329 A  
HETATM   14  H1  UNL     1     -12.697  14.616  68.788  1.00  0.00     0.000 HD 
HETATM   15  C   UNL     1     -10.540  10.723  67.818  1.00  0.00    -0.266 A  
HETATM   16  C   UNL     1     -10.821  10.189  69.075  1.00  0.00    -0.257 A  
BRANCH  13  17
HETATM   17  N   UNL     1     -11.821  10.460  71.312  1.00  0.00    -0.332 NA 
HETATM   18  H   UNL     1     -11.471  10.933  72.145  1.00  0.00     0.000 HD 
BRANCH  17  19
HETATM   19  C   UNL     1     -12.649   9.262  71.407  1.00  0.00    -0.336 C  
BRANCH  19  20
HETATM   20  C   UNL     1     -11.816   8.012  71.585  1.00  0.00    -0.329 A  
HETATM   21  C   UNL     1     -11.260   7.735  72.846  1.00  0.00    -0.434 A  
HETATM   22  C   UNL     1     -10.544   6.557  73.064  1.00  0.00    -0.276 A  
HETATM   23  C   UNL     1     -10.388   5.649  72.024  1.00  0.00    -0.212 A  
HETATM   24  C   UNL     1     -10.945   5.890  70.776  1.00  0.00    -0.343 A  
HETATM   25  F   UNL     1      -9.701   4.518  72.236  1.00  0.00    -0.171 F  
HETATM   26  C   UNL     1     -11.668   7.063  70.557  1.00  0.00    -0.359 A  
ENDBRANCH  19  20
ENDBRANCH  17  19
ENDBRANCH  13  17
ENDBRANCH   6   8
ENDBRANCH   3   4
ENDBRANCH   2   3
TORSDOF 6
ENDMDL
MODEL       74
REMARK 921   NORMALIZED FREE ENERGY PREDICTED BY IDOCK:   -5.15 KCAL/MOL
REMARK 922        TOTAL FREE ENERGY PREDICTED BY IDOCK:   -7.66 KCAL/MOL
REMARK 923 INTER-LIGAND FREE ENERGY PREDICTED BY IDOCK:   -6.95 KCAL/MOL
REMARK 924 INTRA-LIGAND FREE ENERGY PREDICTED BY IDOCK:   -0.71 KCAL/MOL
REMARK 927      BINDING AFFINITY PREDICTED BY RF-SCORE:    0.00 PKD
ROOT
HETATM    1  C   UNL     1     -11.727  15.429  64.377  1.00  0.00    -0.261 C  
HETATM    2  C   UNL     1     -10.695  15.058  65.429  1.00  0.00    -0.374 C  
ENDROOT
BRANCH   2   3
HETATM    3  O   UNL     1     -10.548  13.632  65.414  1.00  0.00    -0.293 OA 
BRANCH   3   4
HETATM    4  C   UNL     1     -11.327  12.951  66.293  1.00  0.00    -0.323 C  
HETATM    5  O   UNL     1     -12.269  12.235  65.982  1.00  0.00    -0.646 OA 
HETATM    6  N   UNL     1     -10.772  13.100  67.532  1.00  0.00    -0.237 N  
HETATM    7  H   UNL     1     -10.220  13.936  67.728  1.00  0.00     0.000 HD 
BRANCH   6   8
HETATM    8  C   UNL     1     -10.934  12.136  68.550  1.00  0.00    -0.238 A  
HETATM    9  C   UNL     1     -10.086  11.028  68.717  1.00  0.00    -0.203 A  
HETATM   10  C   UNL     1     -10.371  10.125  69.755  1.00  0.00    -0.297 A  
HETATM   11  N   UNL     1      -9.157  10.648  67.724  1.00  0.00    -0.142 NA 
HETATM   12  H2  UNL     1      -8.575  11.459  67.513  1.00  0.00     0.000 HD 
HETATM   13  C   UNL     1     -11.432  10.332  70.651  1.00  0.00    -0.349 A  
HETATM   14  H1  UNL     1      -8.541   9.844  67.845  1.00  0.00     0.000 HD 
HETATM   15  C   UNL     1     -11.991  12.354  69.438  1.00  0.00    -0.319 A  
HETATM   16  C   UNL     1     -12.210  11.481  70.502  1.00  0.00    -0.469 A  
BRANCH  13  17
HETATM   17  N   UNL     1     -11.616   9.402  71.687  1.00  0.00    -0.384 NA 
HETATM   18  H   UNL     1     -11.195   9.540  72.606  1.00  0.00     0.000 HD 
BRANCH  17  19
HETATM   19  C   UNL     1     -12.435   8.231  71.391  1.00  0.00    -0.292 C  
BRANCH  19  20
HETATM   20  C   UNL     1     -11.593   6.995  71.169  1.00  0.00    -0.351 A  
HETATM   21  C   UNL     1     -11.238   6.202  72.275  1.00  0.00    -0.334 A  
HETATM   22  C   UNL     1     -10.521   5.018  72.100  1.00  0.00    -0.274 A  
HETATM   23  C   UNL     1     -10.162   4.619  70.818  1.00  0.00    -0.144 A  
HETATM   24  C   UNL     1     -10.519   5.373  69.709  1.00  0.00    -0.378 A  
HETATM   25  F   UNL     1      -9.474   3.481  70.653  1.00  0.00    -0.188 F  
HETATM   26  C   UNL     1     -11.243   6.553  69.880  1.00  0.00    -0.456 A  
ENDBRANCH  19  20
ENDBRANCH  17  19
ENDBRANCH  13  17
ENDBRANCH   6   8
ENDBRANCH   3   4
ENDBRANCH   2   3
TORSDOF 6
ENDMDL
MODEL       75
REMARK 921   NORMALIZED FREE ENERGY PREDICTED BY IDOCK:   -5.11 KCAL/MOL
REMARK 922        TOTAL FREE ENERGY PREDICTED BY IDOCK:   -7.61 KCAL/MOL
REMARK 923 INTER-LIGAND FREE ENERGY PREDICTED BY IDOCK:   -7.10 KCAL/MOL
REMARK 924 INTRA-LIGAND FREE ENERGY PREDICTED BY IDOCK:   -0.51 KCAL/MOL
REMARK 927      BINDING AFFINITY PREDICTED BY RF-SCORE:    0.00 PKD
ROOT
HETATM    1  C   UNL     1     -11.025  16.277  65.063  1.00  0.00    -0.311 C  
HETATM    2  C   UNL     1     -11.518  15.086  64.257  1.00  0.00    -0.128 C  
ENDROOT
BRANCH   2   3
HETATM    3  O   UNL     1     -12.757  14.651  64.833  1.00  0.00    -0.504 OA 
BRANCH   3   4
HETATM    4  C   UNL     1     -12.750  13.405  65.371  1.00  0.00    -0.426 C  
HETATM    5  O   UNL     1     -13.144  12.396  64.802  1.00  0.00    -0.806 OA 
HETATM    6  N   UNL     1     -12.096  13.480  66.568  1.00  0.00    -0.412 N  
HETATM    7  H   UNL     1     -12.103  14.364  67.078  1.00  0.00     0.000 HD 
BRANCH   6   8
HETATM    8  C   UNL     1     -11.412  12.377  67.122  1.00  0.00    -0.357 A  
HETATM    9  C   UNL     1     -10.235  11.836  66.576  1.00  0.00    -0.208 A  
HETATM   10  C   UNL     1      -9.663  10.719  67.209  1.00  0.00    -0.187 A  
HETATM   11  N   UNL     1      -9.786  12.188  65.284  1.00  0.00    -0.401 NA 
HETATM   12  H2  UNL     1      -9.710  13.204  65.246  1.00  0.00     0.000 HD 
HETATM   13  C   UNL     1     -10.199  10.176  68.386  1.00  0.00    -0.169 A  
HETATM   14  H1  UNL     1      -8.931  11.795  64.888  1.00  0.00     0.000 HD 
HETATM   15  C   UNL     1     -11.952  11.847  68.297  1.00  0.00    -0.235 A  
HETATM   16  C   UNL     1     -11.325  10.783  68.943  1.00  0.00    -0.349 A  
BRANCH  13  17
HETATM   17  N   UNL     1      -9.536   9.087  68.976  1.00  0.00    -0.158 NA 
HETATM   18  H   UNL     1      -9.282   8.261  68.434  1.00  0.00     0.000 HD 
BRANCH  17  19
HETATM   19  C   UNL     1      -9.228   9.189  70.399  1.00  0.00    -0.233 C  
BRANCH  19  20
HETATM   20  C   UNL     1      -9.941   8.129  71.209  1.00  0.00    -0.225 A  
HETATM   21  C   UNL     1     -10.304   6.922  70.586  1.00  0.00    -0.220 A  
HETATM   22  C   UNL     1     -10.902   5.896  71.319  1.00  0.00    -0.333 A  
HETATM   23  C   UNL     1     -11.132   6.070  72.678  1.00  0.00    -0.275 A  
HETATM   24  C   UNL     1     -10.762   7.243  73.320  1.00  0.00    -0.428 A  
HETATM   25  F   UNL     1     -11.705   5.082  73.379  1.00  0.00    -0.375 F  
HETATM   26  C   UNL     1     -10.158   8.269  72.592  1.00  0.00    -0.365 A  
ENDBRANCH  19  20
ENDBRANCH  17  19
ENDBRANCH  13  17
ENDBRANCH   6   8
ENDBRANCH   3   4
ENDBRANCH   2   3
TORSDOF 6
ENDMDL
MODEL       76
REMARK 921   NORMALIZED FREE ENERGY PREDICTED BY IDOCK:   -5.11 KCAL/MOL
REMARK 922        TOTAL FREE ENERGY PREDICTED BY IDOCK:   -7.61 KCAL/MOL
REMARK 923 INTER-LIGAND FREE ENERGY PREDICTED BY IDOCK:   -6.88 KCAL/MOL
REMARK 924 INTRA-LIGAND FREE ENERGY PREDICTED BY IDOCK:   -0.73 KCAL/MOL
REMARK 927      BINDING AFFINITY PREDICTED BY RF-SCORE:    0.00 PKD
ROOT
HETATM    1  C   UNL     1     -12.122  12.916  63.419  1.00  0.00    -0.610 C  
HETATM    2  C   UNL     1     -12.260  14.074  64.392  1.00  0.00    -0.426 C  
ENDROOT
BRANCH   2   3
HETATM    3  O   UNL     1     -10.982  14.716  64.493  1.00  0.00    -0.339 OA 
BRANCH   3   4
HETATM    4  C   UNL     1     -10.330  14.547  65.671  1.00  0.00    -0.349 C  
HETATM    5  O   UNL     1     -10.506  15.229  66.671  1.00  0.00    -0.278 OA 
HETATM    6  N   UNL     1      -9.582  13.408  65.565  1.00  0.00    -0.504 N  
HETATM    7  H   UNL     1      -9.258  13.116  64.642  1.00  0.00     0.000 HD 
BRANCH   6   8
HETATM    8  C   UNL     1      -9.243  12.624  66.688  1.00  0.00    -0.218 A  
HETATM    9  C   UNL     1      -8.070  12.807  67.442  1.00  0.00    -0.185 A  
HETATM   10  C   UNL     1      -7.836  11.942  68.523  1.00  0.00    -0.136 A  
HETATM   11  N   UNL     1      -7.013  13.622  66.982  1.00  0.00    -0.361 NA 
HETATM   12  H2  UNL     1      -7.397  14.543  66.771  1.00  0.00     0.000 HD 
HETATM   13  C   UNL     1      -8.757  10.952  68.898  1.00  0.00    -0.140 A  
HETATM   14  H1  UNL     1      -6.162  13.755  67.529  1.00  0.00     0.000 HD 
HETATM   15  C   UNL     1     -10.169  11.643  67.054  1.00  0.00    -0.240 A  
HETATM   16  C   UNL     1      -9.944  10.844  68.173  1.00  0.00    -0.188 A  
BRANCH  13  17
HETATM   17  N   UNL     1      -8.461  10.161  70.020  1.00  0.00    -0.364 NA 
HETATM   18  H   UNL     1      -8.158  10.578  70.900  1.00  0.00     0.000 HD 
BRANCH  17  19
HETATM   19  C   UNL     1      -8.607   8.716  69.872  1.00  0.00    -0.131 C  
BRANCH  19  20
HETATM   20  C   UNL     1      -9.920   8.220  70.435  1.00  0.00    -0.196 A  
HETATM   21  C   UNL     1     -10.516   8.921  71.499  1.00  0.00    -0.393 A  
HETATM   22  C   UNL     1     -11.759   8.531  71.997  1.00  0.00    -0.431 A  
HETATM   23  C   UNL     1     -12.416   7.446  71.429  1.00  0.00    -0.368 A  
HETATM   24  C   UNL     1     -11.858   6.753  70.365  1.00  0.00    -0.395 A  
HETATM   25  F   UNL     1     -13.611   7.076  71.909  1.00  0.00    -0.385 F  
HETATM   26  C   UNL     1     -10.618   7.143  69.859  1.00  0.00    -0.246 A  
ENDBRANCH  19  20
ENDBRANCH  17  19
ENDBRANCH  13  17
ENDBRANCH   6   8
ENDBRANCH   3   4
ENDBRANCH   2   3
TORSDOF 6
ENDMDL
MODEL       77
REMARK 921   NORMALIZED FREE ENERGY PREDICTED BY IDOCK:   -5.11 KCAL/MOL
REMARK 922        TOTAL FREE ENERGY PREDICTED BY IDOCK:   -7.60 KCAL/MOL
REMARK 923 INTER-LIGAND FREE ENERGY PREDICTED BY IDOCK:   -6.89 KCAL/MOL
REMARK 924 INTRA-LIGAND FREE ENERGY PREDICTED BY IDOCK:   -0.72 KCAL/MOL
REMARK 927      BINDING AFFINITY PREDICTED BY RF-SCORE:    0.00 PKD
ROOT
HETATM    1  C   UNL     1      -8.554   5.534  66.339  1.00  0.00    -0.121 C  
HETATM    2  C   UNL     1      -8.765   6.865  67.041  1.00  0.00    -0.119 C  
ENDROOT
BRANCH   2   3
HETATM    3  O   UNL     1      -9.511   6.614  68.239  1.00  0.00    -0.126 OA 
BRANCH   3   4
HETATM    4  C   UNL     1      -9.797   7.705  68.993  1.00  0.00    -0.168 C  
HETATM    5  O   UNL     1      -9.236   7.997  70.041  1.00  0.00    -0.154 OA 
HETATM    6  N   UNL     1     -10.692   8.463  68.293  1.00  0.00    -0.433 N  
HETATM    7  H   UNL     1     -11.315   8.002  67.629  1.00  0.00     0.000 HD 
BRANCH   6   8
HETATM    8  C   UNL     1     -10.784   9.862  68.457  1.00  0.00    -0.226 A  
HETATM    9  C   UNL     1     -11.552  10.480  69.459  1.00  0.00    -0.260 A  
HETATM   10  C   UNL     1     -11.582  11.884  69.500  1.00  0.00    -0.394 A  
HETATM   11  N   UNL     1     -12.499   9.759  70.220  1.00  0.00    -0.493 NA 
HETATM   12  H2  UNL     1     -12.020   8.962  70.640  1.00  0.00     0.000 HD 
HETATM   13  C   UNL     1     -10.828  12.671  68.616  1.00  0.00    -0.249 A  
HETATM   14  H1  UNL     1     -13.056  10.208  70.948  1.00  0.00     0.000 HD 
HETATM   15  C   UNL     1     -10.027  10.635  67.573  1.00  0.00    -0.201 A  
HETATM   16  C   UNL     1     -10.019  12.025  67.680  1.00  0.00    -0.196 A  
BRANCH  13  17
HETATM   17  N   UNL     1     -10.882  14.067  68.758  1.00  0.00    -0.257 NA 
HETATM   18  H   UNL     1     -10.038  14.639  68.722  1.00  0.00     0.000 HD 
BRANCH  17  19
HETATM   19  C   UNL     1     -12.199  14.664  68.961  1.00  0.00    -0.164 C  
BRANCH  19  20
HETATM   20  C   UNL     1     -12.411  15.089  70.396  1.00  0.00    -0.401 A  
HETATM   21  C   UNL     1     -13.653  14.841  71.007  1.00  0.00    -0.364 A  
HETATM   22  C   UNL     1     -13.861  15.159  72.349  1.00  0.00    -0.617 A  
HETATM   23  C   UNL     1     -12.826  15.718  73.089  1.00  0.00    -0.522 A  
HETATM   24  C   UNL     1     -11.585  15.953  72.515  1.00  0.00    -0.438 A  
HETATM   25  F   UNL     1     -13.029  16.021  74.378  1.00  0.00    -0.539 F  
HETATM   26  C   UNL     1     -11.371  15.631  71.175  1.00  0.00    -0.446 A  
ENDBRANCH  19  20
ENDBRANCH  17  19
ENDBRANCH  13  17
ENDBRANCH   6   8
ENDBRANCH   3   4
ENDBRANCH   2   3
TORSDOF 6
ENDMDL
MODEL       78
REMARK 921   NORMALIZED FREE ENERGY PREDICTED BY IDOCK:   -5.10 KCAL/MOL
REMARK 922        TOTAL FREE ENERGY PREDICTED BY IDOCK:   -7.59 KCAL/MOL
REMARK 923 INTER-LIGAND FREE ENERGY PREDICTED BY IDOCK:   -6.96 KCAL/MOL
REMARK 924 INTRA-LIGAND FREE ENERGY PREDICTED BY IDOCK:   -0.63 KCAL/MOL
REMARK 927      BINDING AFFINITY PREDICTED BY RF-SCORE:    0.00 PKD
ROOT
HETATM    1  C   UNL     1      -9.065   7.920  72.440  1.00  0.00    -0.229 C  
HETATM    2  C   UNL     1      -9.956   8.962  71.787  1.00  0.00    -0.327 C  
ENDROOT
BRANCH   2   3
HETATM    3  O   UNL     1     -10.487   8.392  70.583  1.00  0.00    -0.194 OA 
BRANCH   3   4
HETATM    4  C   UNL     1     -10.032   8.934  69.425  1.00  0.00    -0.192 C  
HETATM    5  O   UNL     1     -10.039   8.370  68.339  1.00  0.00    -0.186 OA 
HETATM    6  N   UNL     1      -9.723  10.240  69.679  1.00  0.00    -0.352 N  
HETATM    7  H   UNL     1      -9.448  10.506  70.625  1.00  0.00     0.000 HD 
BRANCH   6   8
HETATM    8  C   UNL     1      -9.770  11.233  68.677  1.00  0.00    -0.195 A  
HETATM    9  C   UNL     1     -10.953  11.635  68.033  1.00  0.00    -0.224 A  
HETATM   10  C   UNL     1     -10.862  12.617  67.033  1.00  0.00    -0.282 A  
HETATM   11  N   UNL     1     -12.150  10.896  68.152  1.00  0.00    -0.790 NA 
HETATM   12  H2  UNL     1     -12.355  10.791  69.146  1.00  0.00     0.000 HD 
HETATM   13  C   UNL     1      -9.646  13.238  66.707  1.00  0.00    -0.258 A  
HETATM   14  H1  UNL     1     -13.009  11.189  67.685  1.00  0.00     0.000 HD 
HETATM   15  C   UNL     1      -8.554  11.846  68.364  1.00  0.00    -0.152 A  
HETATM   16  C   UNL     1      -8.503  12.868  67.416  1.00  0.00    -0.196 A  
BRANCH  13  17
HETATM   17  N   UNL     1      -9.656  14.242  65.726  1.00  0.00    -0.516 NA 
HETATM   18  H   UNL     1      -8.872  14.368  65.085  1.00  0.00     0.000 HD 
BRANCH  17  19
HETATM   19  C   UNL     1     -10.836  15.099  65.663  1.00  0.00    -0.360 C  
BRANCH  19  20
HETATM   20  C   UNL     1     -10.607  16.426  66.351  1.00  0.00    -0.236 A  
HETATM   21  C   UNL     1     -10.596  17.603  65.581  1.00  0.00    -0.137 A  
HETATM   22  C   UNL     1     -10.456  18.850  66.191  1.00  0.00    -0.521 A  
HETATM   23  C   UNL     1     -10.335  18.926  67.573  1.00  0.00    -0.426 A  
HETATM   24  C   UNL     1     -10.365  17.781  68.356  1.00  0.00    -0.378 A  
HETATM   25  F   UNL     1     -10.202  20.126  68.155  1.00  0.00    -0.505 F  
HETATM   26  C   UNL     1     -10.511  16.533  67.751  1.00  0.00    -0.308 A  
ENDBRANCH  19  20
ENDBRANCH  17  19
ENDBRANCH  13  17
ENDBRANCH   6   8
ENDBRANCH   3   4
ENDBRANCH   2   3
TORSDOF 6
ENDMDL
MODEL       79
REMARK 921   NORMALIZED FREE ENERGY PREDICTED BY IDOCK:   -5.10 KCAL/MOL
REMARK 922        TOTAL FREE ENERGY PREDICTED BY IDOCK:   -7.59 KCAL/MOL
REMARK 923 INTER-LIGAND FREE ENERGY PREDICTED BY IDOCK:   -6.82 KCAL/MOL
REMARK 924 INTRA-LIGAND FREE ENERGY PREDICTED BY IDOCK:   -0.77 KCAL/MOL
REMARK 927      BINDING AFFINITY PREDICTED BY RF-SCORE:    0.00 PKD
ROOT
HETATM    1  C   UNL     1     -13.201  14.404  72.805  1.00  0.00    -0.611 C  
HETATM    2  C   UNL     1     -12.632  15.788  72.540  1.00  0.00    -0.450 C  
ENDROOT
BRANCH   2   3
HETATM    3  O   UNL     1     -12.828  16.082  71.150  1.00  0.00    -0.398 OA 
BRANCH   3   4
HETATM    4  C   UNL     1     -11.887  15.588  70.306  1.00  0.00    -0.357 C  
HETATM    5  O   UNL     1     -10.678  15.666  70.483  1.00  0.00    -0.320 OA 
HETATM    6  N   UNL     1     -12.539  14.877  69.339  1.00  0.00    -0.583 N  
HETATM    7  H   UNL     1     -13.496  15.135  69.099  1.00  0.00     0.000 HD 
BRANCH   6   8
HETATM    8  C   UNL     1     -11.932  13.799  68.659  1.00  0.00    -0.366 A  
HETATM    9  C   UNL     1     -11.287  13.924  67.417  1.00  0.00    -0.326 A  
HETATM   10  C   UNL     1     -10.744  12.768  66.832  1.00  0.00    -0.272 A  
HETATM   11  N   UNL     1     -11.419  15.087  66.626  1.00  0.00    -0.302 NA 
HETATM   12  H2  UNL     1     -11.152  15.887  67.200  1.00  0.00     0.000 HD 
HETATM   13  C   UNL     1     -10.780  11.522  67.476  1.00  0.00    -0.223 A  
HETATM   14  H1  UNL     1     -10.951  15.178  65.724  1.00  0.00     0.000 HD 
HETATM   15  C   UNL     1     -11.970  12.564  69.312  1.00  0.00    -0.304 A  
HETATM   16  C   UNL     1     -11.362  11.446  68.741  1.00  0.00    -0.334 A  
BRANCH  13  17
HETATM   17  N   UNL     1     -10.172  10.428  66.838  1.00  0.00    -0.218 NA 
HETATM   18  H   UNL     1     -10.388  10.188  65.871  1.00  0.00     0.000 HD 
BRANCH  17  19
HETATM   19  C   UNL     1      -9.218   9.648  67.621  1.00  0.00    -0.130 C  
BRANCH  19  20
HETATM   20  C   UNL     1      -9.470   8.162  67.501  1.00  0.00    -0.184 A  
HETATM   21  C   UNL     1     -10.778   7.708  67.255  1.00  0.00    -0.344 A  
HETATM   22  C   UNL     1     -11.036   6.349  67.071  1.00  0.00    -0.463 A  
HETATM   23  C   UNL     1      -9.986   5.440  67.125  1.00  0.00    -0.174 A  
HETATM   24  C   UNL     1      -8.684   5.865  67.345  1.00  0.00    -0.108 A  
HETATM   25  F   UNL     1     -10.237   4.136  66.946  1.00  0.00    -0.233 F  
HETATM   26  C   UNL     1      -8.421   7.224  67.523  1.00  0.00    -0.119 A  
ENDBRANCH  19  20
ENDBRANCH  17  19
ENDBRANCH  13  17
ENDBRANCH   6   8
ENDBRANCH   3   4
ENDBRANCH   2   3
TORSDOF 6
ENDMDL
MODEL       80
REMARK 921   NORMALIZED FREE ENERGY PREDICTED BY IDOCK:   -5.08 KCAL/MOL
REMARK 922        TOTAL FREE ENERGY PREDICTED BY IDOCK:   -7.57 KCAL/MOL
REMARK 923 INTER-LIGAND FREE ENERGY PREDICTED BY IDOCK:   -6.96 KCAL/MOL
REMARK 924 INTRA-LIGAND FREE ENERGY PREDICTED BY IDOCK:   -0.61 KCAL/MOL
REMARK 927      BINDING AFFINITY PREDICTED BY RF-SCORE:    0.00 PKD
ROOT
HETATM    1  C   UNL     1      -9.813  17.367  66.230  1.00  0.00    -0.291 C  
HETATM    2  C   UNL     1     -10.678  16.281  65.612  1.00  0.00    -0.286 C  
ENDROOT
BRANCH   2   3
HETATM    3  O   UNL     1     -10.317  15.035  66.222  1.00  0.00    -0.275 OA 
BRANCH   3   4
HETATM    4  C   UNL     1     -11.301  14.417  66.923  1.00  0.00    -0.348 C  
HETATM    5  O   UNL     1     -12.407  14.139  66.479  1.00  0.00    -0.460 OA 
HETATM    6  N   UNL     1     -10.772  14.042  68.126  1.00  0.00    -0.241 N  
HETATM    7  H   UNL     1      -9.996  14.580  68.511  1.00  0.00     0.000 HD 
BRANCH   6   8
HETATM    8  C   UNL     1     -11.264  12.937  68.853  1.00  0.00    -0.279 A  
HETATM    9  C   UNL     1     -11.936  13.049  70.082  1.00  0.00    -0.303 A  
HETATM   10  C   UNL     1     -12.354  11.869  70.719  1.00  0.00    -0.416 A  
HETATM   11  N   UNL     1     -11.945  14.256  70.816  1.00  0.00    -0.373 NA 
HETATM   12  H2  UNL     1     -12.291  14.993  70.201  1.00  0.00     0.000 HD 
HETATM   13  C   UNL     1     -12.172  10.605  70.138  1.00  0.00    -0.320 A  
HETATM   14  H1  UNL     1     -12.433  14.337  71.708  1.00  0.00     0.000 HD 
HETATM   15  C   UNL     1     -11.080  11.684  68.262  1.00  0.00    -0.287 A  
HETATM   16  C   UNL     1     -11.567  10.534  68.883  1.00  0.00    -0.266 A  
BRANCH  13  17
HETATM   17  N   UNL     1     -12.662   9.482  70.824  1.00  0.00    -0.519 NA 
HETATM   18  H   UNL     1     -13.576   9.083  70.609  1.00  0.00     0.000 HD 
BRANCH  17  19
HETATM   19  C   UNL     1     -11.807   8.910  71.859  1.00  0.00    -0.370 C  
BRANCH  19  20
HETATM   20  C   UNL     1     -11.275   7.550  71.464  1.00  0.00    -0.271 A  
HETATM   21  C   UNL     1     -11.539   7.061  70.172  1.00  0.00    -0.273 A  
HETATM   22  C   UNL     1     -11.007   5.842  69.751  1.00  0.00    -0.452 A  
HETATM   23  C   UNL     1     -10.203   5.111  70.617  1.00  0.00    -0.256 A  
HETATM   24  C   UNL     1      -9.911   5.582  71.889  1.00  0.00    -0.210 A  
HETATM   25  F   UNL     1      -9.692   3.941  70.209  1.00  0.00    -0.232 F  
HETATM   26  C   UNL     1     -10.435   6.803  72.311  1.00  0.00    -0.233 A  
ENDBRANCH  19  20
ENDBRANCH  17  19
ENDBRANCH  13  17
ENDBRANCH   6   8
ENDBRANCH   3   4
ENDBRANCH   2   3
TORSDOF 6
ENDMDL
MODEL       81
REMARK 921   NORMALIZED FREE ENERGY PREDICTED BY IDOCK:   -5.07 KCAL/MOL
REMARK 922        TOTAL FREE ENERGY PREDICTED BY IDOCK:   -7.55 KCAL/MOL
REMARK 923 INTER-LIGAND FREE ENERGY PREDICTED BY IDOCK:   -6.82 KCAL/MOL
REMARK 924 INTRA-LIGAND FREE ENERGY PREDICTED BY IDOCK:   -0.73 KCAL/MOL
REMARK 927      BINDING AFFINITY PREDICTED BY RF-SCORE:    0.00 PKD
ROOT
HETATM    1  C   UNL     1     -10.631   5.905  68.080  1.00  0.00    -0.321 C  
HETATM    2  C   UNL     1     -10.968   6.975  67.055  1.00  0.00    -0.287 C  
ENDROOT
BRANCH   2   3
HETATM    3  O   UNL     1      -9.740   7.405  66.452  1.00  0.00    -0.173 OA 
BRANCH   3   4
HETATM    4  C   UNL     1      -9.669   8.724  66.139  1.00  0.00    -0.250 C  
HETATM    5  O   UNL     1      -9.642   9.171  65.000  1.00  0.00    -0.098 OA 
HETATM    6  N   UNL     1      -9.788   9.427  67.304  1.00  0.00    -0.168 N  
HETATM    7  H   UNL     1      -9.485   8.992  68.176  1.00  0.00     0.000 HD 
BRANCH   6   8
HETATM    8  C   UNL     1     -10.314  10.736  67.342  1.00  0.00    -0.211 A  
HETATM    9  C   UNL     1      -9.701  11.841  66.725  1.00  0.00    -0.197 A  
HETATM   10  C   UNL     1     -10.313  13.099  66.858  1.00  0.00    -0.247 A  
HETATM   11  N   UNL     1      -8.377  11.779  66.237  1.00  0.00    -0.378 NA 
HETATM   12  H2  UNL     1      -8.318  10.988  65.595  1.00  0.00     0.000 HD 
HETATM   13  C   UNL     1     -11.532  13.265  67.533  1.00  0.00    -0.322 A  
HETATM   14  H1  UNL     1      -7.933  12.581  65.789  1.00  0.00     0.000 HD 
HETATM   15  C   UNL     1     -11.530  10.889  68.013  1.00  0.00    -0.356 A  
HETATM   16  C   UNL     1     -12.151  12.136  68.071  1.00  0.00    -0.043 A  
BRANCH  13  17
HETATM   17  N   UNL     1     -12.095  14.551  67.579  1.00  0.00    -0.591 NA 
HETATM   18  H   UNL     1     -12.936  14.783  67.049  1.00  0.00     0.000 HD 
BRANCH  17  19
HETATM   19  C   UNL     1     -11.425  15.540  68.416  1.00  0.00    -0.363 C  
BRANCH  19  20
HETATM   20  C   UNL     1     -11.972  15.549  69.827  1.00  0.00    -0.384 A  
HETATM   21  C   UNL     1     -11.195  16.109  70.857  1.00  0.00    -0.329 A  
HETATM   22  C   UNL     1     -11.695  16.196  72.157  1.00  0.00    -0.569 A  
HETATM   23  C   UNL     1     -12.976  15.730  72.430  1.00  0.00    -0.465 A  
HETATM   24  C   UNL     1     -13.769  15.192  71.426  1.00  0.00    -0.577 A  
HETATM   25  F   UNL     1     -13.454  15.816  73.679  1.00  0.00    -0.558 F  
HETATM   26  C   UNL     1     -13.275  15.110  70.124  1.00  0.00     0.073 A  
ENDBRANCH  19  20
ENDBRANCH  17  19
ENDBRANCH  13  17
ENDBRANCH   6   8
ENDBRANCH   3   4
ENDBRANCH   2   3
TORSDOF 6
ENDMDL
MODEL       82
REMARK 921   NORMALIZED FREE ENERGY PREDICTED BY IDOCK:   -5.06 KCAL/MOL
REMARK 922        TOTAL FREE ENERGY PREDICTED BY IDOCK:   -7.55 KCAL/MOL
REMARK 923 INTER-LIGAND FREE ENERGY PREDICTED BY IDOCK:   -6.91 KCAL/MOL
REMARK 924 INTRA-LIGAND FREE ENERGY PREDICTED BY IDOCK:   -0.64 KCAL/MOL
REMARK 927      BINDING AFFINITY PREDICTED BY RF-SCORE:    0.00 PKD
ROOT
HETATM    1  C   UNL     1     -11.985  12.869  63.219  1.00  0.00    -0.516 C  
HETATM    2  C   UNL     1     -12.293  13.133  64.683  1.00  0.00    -0.405 C  
ENDROOT
BRANCH   2   3
HETATM    3  O   UNL     1     -11.100  13.639  65.297  1.00  0.00    -0.291 OA 
BRANCH   3   4
HETATM    4  C   UNL     1     -10.461  12.782  66.134  1.00  0.00    -0.267 C  
HETATM    5  O   UNL     1      -9.308  12.914  66.522  1.00  0.00    -0.246 OA 
HETATM    6  N   UNL     1     -11.380  11.866  66.560  1.00  0.00    -0.342 N  
HETATM    7  H   UNL     1     -12.176  11.650  65.959  1.00  0.00     0.000 HD 
BRANCH   6   8
HETATM    8  C   UNL     1     -11.265  11.208  67.803  1.00  0.00    -0.294 A  
HETATM    9  C   UNL     1     -10.572   9.998  67.984  1.00  0.00    -0.235 A  
HETATM   10  C   UNL     1     -10.553   9.431  69.270  1.00  0.00    -0.239 A  
HETATM   11  N   UNL     1     -10.154   9.211  66.889  1.00  0.00    -0.236 NA 
HETATM   12  H2  UNL     1      -9.596   9.803  66.274  1.00  0.00     0.000 HD 
HETATM   13  C   UNL     1     -11.151  10.063  70.371  1.00  0.00    -0.327 A  
HETATM   14  H1  UNL     1      -9.650   8.333  67.020  1.00  0.00     0.000 HD 
HETATM   15  C   UNL     1     -11.862  11.848  68.893  1.00  0.00    -0.366 A  
HETATM   16  C   UNL     1     -11.768  11.298  70.171  1.00  0.00    -0.429 A  
BRANCH  13  17
HETATM   17  N   UNL     1     -11.044   9.446  71.628  1.00  0.00    -0.373 NA 
HETATM   18  H   UNL     1     -10.317   9.713  72.292  1.00  0.00     0.000 HD 
BRANCH  17  19
HETATM   19  C   UNL     1     -12.019   8.406  71.943  1.00  0.00    -0.338 C  
BRANCH  19  20
HETATM   20  C   UNL     1     -11.391   7.251  72.691  1.00  0.00    -0.333 A  
HETATM   21  C   UNL     1     -11.773   5.937  72.365  1.00  0.00    -0.307 A  
HETATM   22  C   UNL     1     -11.165   4.846  72.987  1.00  0.00    -0.367 A  
HETATM   23  C   UNL     1     -10.168   5.064  73.930  1.00  0.00    -0.224 A  
HETATM   24  C   UNL     1      -9.759   6.350  74.253  1.00  0.00    -0.292 A  
HETATM   25  F   UNL     1      -9.586   4.013  74.524  1.00  0.00    -0.116 F  
HETATM   26  C   UNL     1     -10.360   7.443  73.629  1.00  0.00    -0.367 A  
ENDBRANCH  19  20
ENDBRANCH  17  19
ENDBRANCH  13  17
ENDBRANCH   6   8
ENDBRANCH   3   4
ENDBRANCH   2   3
TORSDOF 6
ENDMDL
MODEL       83
REMARK 921   NORMALIZED FREE ENERGY PREDICTED BY IDOCK:   -5.06 KCAL/MOL
REMARK 922        TOTAL FREE ENERGY PREDICTED BY IDOCK:   -7.54 KCAL/MOL
REMARK 923 INTER-LIGAND FREE ENERGY PREDICTED BY IDOCK:   -6.91 KCAL/MOL
REMARK 924 INTRA-LIGAND FREE ENERGY PREDICTED BY IDOCK:   -0.64 KCAL/MOL
REMARK 927      BINDING AFFINITY PREDICTED BY RF-SCORE:    0.00 PKD
ROOT
HETATM    1  C   UNL     1      -5.616  21.155  65.589  1.00  0.00    -0.261 C  
HETATM    2  C   UNL     1      -5.759  21.369  67.087  1.00  0.00    -0.345 C  
ENDROOT
BRANCH   2   3
HETATM    3  O   UNL     1      -7.113  21.062  67.445  1.00  0.00    -0.365 OA 
BRANCH   3   4
HETATM    4  C   UNL     1      -7.298  19.880  68.087  1.00  0.00    -0.303 C  
HETATM    5  O   UNL     1      -7.067  19.686  69.273  1.00  0.00    -0.358 OA 
HETATM    6  N   UNL     1      -7.916  19.032  67.213  1.00  0.00    -0.252 N  
HETATM    7  H   UNL     1      -7.771  19.165  66.212  1.00  0.00     0.000 HD 
BRANCH   6   8
HETATM    8  C   UNL     1      -8.749  17.979  67.648  1.00  0.00    -0.247 A  
HETATM    9  C   UNL     1      -8.269  16.801  68.246  1.00  0.00    -0.204 A  
HETATM   10  C   UNL     1      -9.202  15.816  68.612  1.00  0.00    -0.207 A  
HETATM   11  N   UNL     1      -6.898  16.464  68.225  1.00  0.00    -0.130 NA 
HETATM   12  H2  UNL     1      -6.377  17.249  68.616  1.00  0.00     0.000 HD 
HETATM   13  C   UNL     1     -10.583  16.002  68.450  1.00  0.00    -0.270 A  
HETATM   14  H1  UNL     1      -6.549  15.609  68.659  1.00  0.00     0.000 HD 
HETATM   15  C   UNL     1     -10.123  18.177  67.485  1.00  0.00    -0.358 A  
HETATM   16  C   UNL     1     -11.031  17.213  67.921  1.00  0.00    -0.208 A  
BRANCH  13  17
HETATM   17  N   UNL     1     -11.445  14.982  68.886  1.00  0.00    -0.297 NA 
HETATM   18  H   UNL     1     -12.322  15.194  69.362  1.00  0.00     0.000 HD 
BRANCH  17  19
HETATM   19  C   UNL     1     -11.031  13.607  68.629  1.00  0.00    -0.267 C  
BRANCH  19  20
HETATM   20  C   UNL     1     -11.394  13.160  67.230  1.00  0.00    -0.344 A  
HETATM   21  C   UNL     1     -12.360  13.885  66.510  1.00  0.00    -0.447 A  
HETATM   22  C   UNL     1     -12.670  13.543  65.193  1.00  0.00    -0.453 A  
HETATM   23  C   UNL     1     -12.010  12.479  64.589  1.00  0.00    -0.404 A  
HETATM   24  C   UNL     1     -11.038  11.762  65.272  1.00  0.00    -0.333 A  
HETATM   25  F   UNL     1     -12.309  12.154  63.324  1.00  0.00    -0.574 F  
HETATM   26  C   UNL     1     -10.721  12.106  66.586  1.00  0.00    -0.281 A  
ENDBRANCH  19  20
ENDBRANCH  17  19
ENDBRANCH  13  17
ENDBRANCH   6   8
ENDBRANCH   3   4
ENDBRANCH   2   3
TORSDOF 6
ENDMDL
MODEL       84
REMARK 921   NORMALIZED FREE ENERGY PREDICTED BY IDOCK:   -5.05 KCAL/MOL
REMARK 922        TOTAL FREE ENERGY PREDICTED BY IDOCK:   -7.53 KCAL/MOL
REMARK 923 INTER-LIGAND FREE ENERGY PREDICTED BY IDOCK:   -6.46 KCAL/MOL
REMARK 924 INTRA-LIGAND FREE ENERGY PREDICTED BY IDOCK:   -1.07 KCAL/MOL
REMARK 927      BINDING AFFINITY PREDICTED BY RF-SCORE:    0.00 PKD
ROOT
HETATM    1  C   UNL     1     -12.932  14.066  71.694  1.00  0.00    -0.430 C  
HETATM    2  C   UNL     1     -13.124  15.227  70.733  1.00  0.00    -0.414 C  
ENDROOT
BRANCH   2   3
HETATM    3  O   UNL     1     -11.878  15.930  70.641  1.00  0.00    -0.353 OA 
BRANCH   3   4
HETATM    4  C   UNL     1     -11.109  15.624  69.565  1.00  0.00    -0.298 C  
HETATM    5  O   UNL     1      -9.918  15.348  69.614  1.00  0.00    -0.258 OA 
HETATM    6  N   UNL     1     -11.937  15.537  68.482  1.00  0.00    -0.536 N  
HETATM    7  H   UNL     1     -12.801  16.079  68.478  1.00  0.00     0.000 HD 
BRANCH   6   8
HETATM    8  C   UNL     1     -11.636  14.722  67.369  1.00  0.00    -0.360 A  
HETATM    9  C   UNL     1     -10.864  15.151  66.276  1.00  0.00    -0.333 A  
HETATM   10  C   UNL     1     -10.658  14.251  65.216  1.00  0.00    -0.396 A  
HETATM   11  N   UNL     1     -10.544  16.512  66.081  1.00  0.00    -0.278 NA 
HETATM   12  H2  UNL     1     -10.097  16.853  66.933  1.00  0.00     0.000 HD 
HETATM   13  C   UNL     1     -11.149  12.937  65.251  1.00  0.00    -0.284 A  
HETATM   14  H1  UNL     1      -9.983  16.823  65.288  1.00  0.00     0.000 HD 
HETATM   15  C   UNL     1     -12.127  13.414  67.416  1.00  0.00    -0.338 A  
HETATM   16  C   UNL     1     -11.849  12.520  66.383  1.00  0.00    -0.445 A  
BRANCH  13  17
HETATM   17  N   UNL     1     -10.856  12.091  64.168  1.00  0.00    -0.320 NA 
HETATM   18  H   UNL     1     -11.557  11.872  63.460  1.00  0.00     0.000 HD 
BRANCH  17  19
HETATM   19  C   UNL     1      -9.507  11.540  64.101  1.00  0.00    -0.089 C  
BRANCH  19  20
HETATM   20  C   UNL     1      -9.166  10.730  65.331  1.00  0.00    -0.234 A  
HETATM   21  C   UNL     1      -8.301  11.280  66.295  1.00  0.00    -0.142 A  
HETATM   22  C   UNL     1      -8.019  10.589  67.473  1.00  0.00    -0.107 A  
HETATM   23  C   UNL     1      -8.605   9.349  67.697  1.00  0.00    -0.116 A  
HETATM   24  C   UNL     1      -9.478   8.795  66.772  1.00  0.00    -0.249 A  
HETATM   25  F   UNL     1      -8.333   8.689  68.831  1.00  0.00    -0.116 F  
HETATM   26  C   UNL     1      -9.768   9.486  65.595  1.00  0.00    -0.361 A  
ENDBRANCH  19  20
ENDBRANCH  17  19
ENDBRANCH  13  17
ENDBRANCH   6   8
ENDBRANCH   3   4
ENDBRANCH   2   3
TORSDOF 6
ENDMDL
MODEL       85
REMARK 921   NORMALIZED FREE ENERGY PREDICTED BY IDOCK:   -5.05 KCAL/MOL
REMARK 922        TOTAL FREE ENERGY PREDICTED BY IDOCK:   -7.53 KCAL/MOL
REMARK 923 INTER-LIGAND FREE ENERGY PREDICTED BY IDOCK:   -6.87 KCAL/MOL
REMARK 924 INTRA-LIGAND FREE ENERGY PREDICTED BY IDOCK:   -0.66 KCAL/MOL
REMARK 927      BINDING AFFINITY PREDICTED BY RF-SCORE:    0.00 PKD
ROOT
HETATM    1  C   UNL     1     -10.717  19.737  67.123  1.00  0.00    -0.547 C  
HETATM    2  C   UNL     1      -9.480  20.613  67.221  1.00  0.00    -0.379 C  
ENDROOT
BRANCH   2   3
HETATM    3  O   UNL     1      -8.349  19.818  66.842  1.00  0.00    -0.286 OA 
BRANCH   3   4
HETATM    4  C   UNL     1      -8.132  18.708  67.593  1.00  0.00    -0.247 C  
HETATM    5  O   UNL     1      -8.061  18.695  68.815  1.00  0.00    -0.323 OA 
HETATM    6  N   UNL     1      -8.164  17.632  66.752  1.00  0.00    -0.232 N  
HETATM    7  H   UNL     1      -7.908  17.764  65.773  1.00  0.00     0.000 HD 
BRANCH   6   8
HETATM    8  C   UNL     1      -8.539  16.345  67.192  1.00  0.00    -0.181 A  
HETATM    9  C   UNL     1      -7.619  15.329  67.505  1.00  0.00    -0.187 A  
HETATM   10  C   UNL     1      -8.122  14.080  67.907  1.00  0.00    -0.156 A  
HETATM   11  N   UNL     1      -6.255  15.431  67.156  1.00  0.00    -0.265 NA 
HETATM   12  H2  UNL     1      -5.898  16.306  67.542  1.00  0.00     0.000 HD 
HETATM   13  C   UNL     1      -9.497  13.845  68.058  1.00  0.00    -0.208 A  
HETATM   14  H1  UNL     1      -5.587  14.693  67.383  1.00  0.00     0.000 HD 
HETATM   15  C   UNL     1      -9.911  16.123  67.342  1.00  0.00    -0.247 A  
HETATM   16  C   UNL     1     -10.380  14.897  67.811  1.00  0.00    -0.244 A  
BRANCH  13  17
HETATM   17  N   UNL     1      -9.909  12.580  68.509  1.00  0.00    -0.351 NA 
HETATM   18  H   UNL     1     -10.229  12.435  69.467  1.00  0.00     0.000 HD 
BRANCH  17  19
HETATM   19  C   UNL     1      -9.858  11.483  67.548  1.00  0.00    -0.190 C  
BRANCH  19  20
HETATM   20  C   UNL     1     -10.530  11.845  66.242  1.00  0.00    -0.274 A  
HETATM   21  C   UNL     1     -11.877  12.249  66.255  1.00  0.00    -0.387 A  
HETATM   22  C   UNL     1     -12.509  12.655  65.080  1.00  0.00    -0.556 A  
HETATM   23  C   UNL     1     -11.794  12.667  63.888  1.00  0.00    -0.467 A  
HETATM   24  C   UNL     1     -10.458  12.293  63.853  1.00  0.00    -0.458 A  
HETATM   25  F   UNL     1     -12.403  13.059  62.760  1.00  0.00    -0.448 F  
HETATM   26  C   UNL     1      -9.821  11.893  65.028  1.00  0.00    -0.234 A  
ENDBRANCH  19  20
ENDBRANCH  17  19
ENDBRANCH  13  17
ENDBRANCH   6   8
ENDBRANCH   3   4
ENDBRANCH   2   3
TORSDOF 6
ENDMDL
MODEL       86
REMARK 921   NORMALIZED FREE ENERGY PREDICTED BY IDOCK:   -5.05 KCAL/MOL
REMARK 922        TOTAL FREE ENERGY PREDICTED BY IDOCK:   -7.53 KCAL/MOL
REMARK 923 INTER-LIGAND FREE ENERGY PREDICTED BY IDOCK:   -7.88 KCAL/MOL
REMARK 924 INTRA-LIGAND FREE ENERGY PREDICTED BY IDOCK:    0.35 KCAL/MOL
REMARK 927      BINDING AFFINITY PREDICTED BY RF-SCORE:    0.00 PKD
ROOT
HETATM    1  C   UNL     1     -11.068  14.742  64.843  1.00  0.00    -0.416 C  
HETATM    2  C   UNL     1     -11.812  14.338  66.105  1.00  0.00    -0.402 C  
ENDROOT
BRANCH   2   3
HETATM    3  O   UNL     1     -11.492  15.292  67.126  1.00  0.00    -0.307 OA 
BRANCH   3   4
HETATM    4  C   UNL     1     -11.685  14.874  68.403  1.00  0.00    -0.309 C  
HETATM    5  O   UNL     1     -12.244  15.526  69.274  1.00  0.00    -0.301 OA 
HETATM    6  N   UNL     1     -11.283  13.570  68.471  1.00  0.00    -0.261 N  
HETATM    7  H   UNL     1     -10.566  13.241  67.824  1.00  0.00     0.000 HD 
BRANCH   6   8
HETATM    8  C   UNL     1     -11.828  12.664  69.405  1.00  0.00    -0.296 A  
HETATM    9  C   UNL     1     -11.950  11.283  69.171  1.00  0.00    -0.336 A  
HETATM   10  C   UNL     1     -12.533  10.490  70.174  1.00  0.00    -0.297 A  
HETATM   11  N   UNL     1     -11.777  10.730  67.884  1.00  0.00    -0.716 NA 
HETATM   12  H2  UNL     1     -10.865  11.027  67.536  1.00  0.00     0.000 HD 
HETATM   13  C   UNL     1     -12.938  11.026  71.406  1.00  0.00    -0.414 A  
HETATM   14  H1  UNL     1     -11.865   9.728  67.714  1.00  0.00     0.000 HD 
HETATM   15  C   UNL     1     -12.223  13.208  70.630  1.00  0.00    -0.402 A  
HETATM   16  C   UNL     1     -12.735  12.388  71.634  1.00  0.00    -0.299 A  
BRANCH  13  17
HETATM   17  N   UNL     1     -13.469  10.152  72.368  1.00  0.00    -0.594 NA 
HETATM   18  H   UNL     1     -13.645  10.457  73.325  1.00  0.00     0.000 HD 
BRANCH  17  19
HETATM   19  C   UNL     1     -13.760   8.788  71.938  1.00  0.00    -0.433 C  
BRANCH  19  20
HETATM   20  C   UNL     1     -12.516   7.928  71.908  1.00  0.00    -0.352 A  
HETATM   21  C   UNL     1     -12.390   6.943  70.911  1.00  0.00    -0.365 A  
HETATM   22  C   UNL     1     -11.227   6.178  70.812  1.00  0.00    -0.373 A  
HETATM   23  C   UNL     1     -10.184   6.400  71.703  1.00  0.00    -0.196 A  
HETATM   24  C   UNL     1     -10.276   7.381  72.680  1.00  0.00    -0.274 A  
HETATM   25  F   UNL     1      -9.068   5.665  71.603  1.00  0.00    -0.136 F  
HETATM   26  C   UNL     1     -11.434   8.152  72.779  1.00  0.00    -0.397 A  
ENDBRANCH  19  20
ENDBRANCH  17  19
ENDBRANCH  13  17
ENDBRANCH   6   8
ENDBRANCH   3   4
ENDBRANCH   2   3
TORSDOF 6
ENDMDL
MODEL       87
REMARK 921   NORMALIZED FREE ENERGY PREDICTED BY IDOCK:   -5.04 KCAL/MOL
REMARK 922        TOTAL FREE ENERGY PREDICTED BY IDOCK:   -7.52 KCAL/MOL
REMARK 923 INTER-LIGAND FREE ENERGY PREDICTED BY IDOCK:   -6.84 KCAL/MOL
REMARK 924 INTRA-LIGAND FREE ENERGY PREDICTED BY IDOCK:   -0.67 KCAL/MOL
REMARK 927      BINDING AFFINITY PREDICTED BY RF-SCORE:    0.00 PKD
ROOT
HETATM    1  C   UNL     1     -10.913   6.173  67.374  1.00  0.00    -0.409 C  
HETATM    2  C   UNL     1     -10.223   7.526  67.401  1.00  0.00    -0.249 C  
ENDROOT
BRANCH   2   3
HETATM    3  O   UNL     1      -9.659   7.756  66.103  1.00  0.00    -0.146 OA 
BRANCH   3   4
HETATM    4  C   UNL     1      -9.510   9.058  65.749  1.00  0.00    -0.236 C  
HETATM    5  O   UNL     1      -9.515   9.475  64.599  1.00  0.00    -0.228 OA 
HETATM    6  N   UNL     1      -9.509   9.796  66.899  1.00  0.00    -0.155 N  
HETATM    7  H   UNL     1      -9.191   9.360  67.765  1.00  0.00     0.000 HD 
BRANCH   6   8
HETATM    8  C   UNL     1      -9.935  11.142  66.929  1.00  0.00    -0.198 A  
HETATM    9  C   UNL     1      -9.120  12.225  66.556  1.00  0.00    -0.188 A  
HETATM   10  C   UNL     1      -9.655  13.521  66.656  1.00  0.00    -0.282 A  
HETATM   11  N   UNL     1      -7.729  12.077  66.369  1.00  0.00    -0.370 NA 
HETATM   12  H2  UNL     1      -7.583  11.328  65.692  1.00  0.00     0.000 HD 
HETATM   13  C   UNL     1     -10.980  13.751  67.057  1.00  0.00    -0.290 A  
HETATM   14  H1  UNL     1      -7.138  12.864  66.097  1.00  0.00     0.000 HD 
HETATM   15  C   UNL     1     -11.257  11.358  67.327  1.00  0.00    -0.370 A  
HETATM   16  C   UNL     1     -11.783  12.649  67.349  1.00  0.00    -0.432 A  
BRANCH  13  17
HETATM   17  N   UNL     1     -11.444  15.076  67.084  1.00  0.00    -0.332 NA 
HETATM   18  H   UNL     1     -11.963  15.474  66.301  1.00  0.00     0.000 HD 
BRANCH  17  19
HETATM   19  C   UNL     1     -11.152  15.858  68.281  1.00  0.00    -0.345 C  
BRANCH  19  20
HETATM   20  C   UNL     1     -10.626  17.234  67.942  1.00  0.00    -0.384 A  
HETATM   21  C   UNL     1     -10.185  18.074  68.981  1.00  0.00    -0.262 A  
HETATM   22  C   UNL     1      -9.631  19.323  68.699  1.00  0.00    -0.479 A  
HETATM   23  C   UNL     1      -9.508  19.735  67.378  1.00  0.00    -0.343 A  
HETATM   24  C   UNL     1      -9.915  18.916  66.334  1.00  0.00    -0.435 A  
HETATM   25  F   UNL     1      -8.974  20.934  67.111  1.00  0.00    -0.427 F  
HETATM   26  C   UNL     1     -10.463  17.664  66.611  1.00  0.00    -0.286 A  
ENDBRANCH  19  20
ENDBRANCH  17  19
ENDBRANCH  13  17
ENDBRANCH   6   8
ENDBRANCH   3   4
ENDBRANCH   2   3
TORSDOF 6
ENDMDL
MODEL       88
REMARK 921   NORMALIZED FREE ENERGY PREDICTED BY IDOCK:   -5.02 KCAL/MOL
REMARK 922        TOTAL FREE ENERGY PREDICTED BY IDOCK:   -7.49 KCAL/MOL
REMARK 923 INTER-LIGAND FREE ENERGY PREDICTED BY IDOCK:   -6.96 KCAL/MOL
REMARK 924 INTRA-LIGAND FREE ENERGY PREDICTED BY IDOCK:   -0.53 KCAL/MOL
REMARK 927      BINDING AFFINITY PREDICTED BY RF-SCORE:    0.00 PKD
ROOT
HETATM    1  C   UNL     1      -9.819   3.477  71.662  1.00  0.00    -0.227 C  
HETATM    2  C   UNL     1     -10.183   3.665  73.125  1.00  0.00    -0.155 C  
ENDROOT
BRANCH   2   3
HETATM    3  O   UNL     1     -11.406   4.411  73.179  1.00  0.00    -0.240 OA 
BRANCH   3   4
HETATM    4  C   UNL     1     -11.270   5.759  73.255  1.00  0.00    -0.141 C  
HETATM    5  O   UNL     1     -10.458   6.341  73.961  1.00  0.00    -0.293 OA 
HETATM    6  N   UNL     1     -12.084   6.306  72.304  1.00  0.00    -0.501 N  
HETATM    7  H   UNL     1     -12.918   5.794  72.015  1.00  0.00     0.000 HD 
BRANCH   6   8
HETATM    8  C   UNL     1     -11.811   7.556  71.708  1.00  0.00    -0.294 A  
HETATM    9  C   UNL     1     -10.903   7.733  70.649  1.00  0.00    -0.237 A  
HETATM   10  C   UNL     1     -10.701   9.034  70.160  1.00  0.00    -0.258 A  
HETATM   11  N   UNL     1      -9.999   6.717  70.269  1.00  0.00    -0.174 NA 
HETATM   12  H2  UNL     1     -10.540   5.872  70.080  1.00  0.00     0.000 HD 
HETATM   13  C   UNL     1     -11.414  10.135  70.657  1.00  0.00    -0.349 A  
HETATM   14  H1  UNL     1      -9.340   6.845  69.500  1.00  0.00     0.000 HD 
HETATM   15  C   UNL     1     -12.530   8.645  72.208  1.00  0.00    -0.460 A  
HETATM   16  C   UNL     1     -12.361   9.914  71.657  1.00  0.00    -0.496 A  
BRANCH  13  17
HETATM   17  N   UNL     1     -11.181  11.393  70.078  1.00  0.00    -0.482 NA 
HETATM   18  H   UNL     1     -10.284  11.626  69.652  1.00  0.00     0.000 HD 
BRANCH  17  19
HETATM   19  C   UNL     1     -12.279  12.354  70.112  1.00  0.00    -0.229 C  
BRANCH  19  20
HETATM   20  C   UNL     1     -11.977  13.587  69.290  1.00  0.00    -0.378 A  
HETATM   21  C   UNL     1     -11.683  14.794  69.949  1.00  0.00    -0.352 A  
HETATM   22  C   UNL     1     -11.333  15.933  69.224  1.00  0.00    -0.355 A  
HETATM   23  C   UNL     1     -11.267  15.869  67.838  1.00  0.00    -0.297 A  
HETATM   24  C   UNL     1     -11.532  14.684  67.165  1.00  0.00    -0.380 A  
HETATM   25  F   UNL     1     -10.929  16.964  67.144  1.00  0.00    -0.263 F  
HETATM   26  C   UNL     1     -11.876  13.541  67.887  1.00  0.00    -0.397 A  
ENDBRANCH  19  20
ENDBRANCH  17  19
ENDBRANCH  13  17
ENDBRANCH   6   8
ENDBRANCH   3   4
ENDBRANCH   2   3
TORSDOF 6
ENDMDL
MODEL       89
REMARK 921   NORMALIZED FREE ENERGY PREDICTED BY IDOCK:   -5.01 KCAL/MOL
REMARK 922        TOTAL FREE ENERGY PREDICTED BY IDOCK:   -7.47 KCAL/MOL
REMARK 923 INTER-LIGAND FREE ENERGY PREDICTED BY IDOCK:   -6.64 KCAL/MOL
REMARK 924 INTRA-LIGAND FREE ENERGY PREDICTED BY IDOCK:   -0.83 KCAL/MOL
REMARK 927      BINDING AFFINITY PREDICTED BY RF-SCORE:    0.00 PKD
ROOT
HETATM    1  C   UNL     1      -8.229   9.843  64.220  1.00  0.00    -0.161 C  
HETATM    2  C   UNL     1      -9.233   9.770  63.082  1.00  0.00    -0.186 C  
ENDROOT
BRANCH   2   3
HETATM    3  O   UNL     1      -9.500  11.109  62.647  1.00  0.00    -0.322 OA 
BRANCH   3   4
HETATM    4  C   UNL     1     -10.407  11.798  63.386  1.00  0.00    -0.439 C  
HETATM    5  O   UNL     1     -11.508  11.374  63.714  1.00  0.00    -0.360 OA 
HETATM    6  N   UNL     1      -9.804  12.950  63.803  1.00  0.00    -0.412 N  
HETATM    7  H   UNL     1      -9.054  13.347  63.237  1.00  0.00     0.000 HD 
BRANCH   6   8
HETATM    8  C   UNL     1     -10.185  13.611  64.991  1.00  0.00    -0.334 A  
HETATM    9  C   UNL     1      -9.577  13.385  66.238  1.00  0.00    -0.235 A  
HETATM   10  C   UNL     1     -10.066  14.090  67.351  1.00  0.00    -0.244 A  
HETATM   11  N   UNL     1      -8.712  12.291  66.454  1.00  0.00    -0.396 NA 
HETATM   12  H2  UNL     1      -7.975  12.331  65.749  1.00  0.00     0.000 HD 
HETATM   13  C   UNL     1     -11.092  15.041  67.238  1.00  0.00    -0.334 A  
HETATM   14  H1  UNL     1      -8.270  12.127  67.359  1.00  0.00     0.000 HD 
HETATM   15  C   UNL     1     -11.205  14.559  64.866  1.00  0.00    -0.395 A  
HETATM   16  C   UNL     1     -11.623  15.294  65.973  1.00  0.00     0.006 A  
BRANCH  13  17
HETATM   17  N   UNL     1     -11.487  15.731  68.396  1.00  0.00    -0.374 NA 
HETATM   18  H   UNL     1     -12.451  15.702  68.730  1.00  0.00     0.000 HD 
BRANCH  17  19
HETATM   19  C   UNL     1     -10.459  16.491  69.100  1.00  0.00    -0.317 C  
BRANCH  19  20
HETATM   20  C   UNL     1      -9.948  17.649  68.273  1.00  0.00    -0.339 A  
HETATM   21  C   UNL     1      -8.566  17.759  68.031  1.00  0.00    -0.250 A  
HETATM   22  C   UNL     1      -8.067  18.776  67.217  1.00  0.00    -0.256 A  
HETATM   23  C   UNL     1      -8.946  19.682  66.635  1.00  0.00    -0.362 A  
HETATM   24  C   UNL     1     -10.314  19.582  66.842  1.00  0.00    -0.566 A  
HETATM   25  F   UNL     1      -8.463  20.656  65.853  1.00  0.00    -0.045 F  
HETATM   26  C   UNL     1     -10.818  18.562  67.650  1.00  0.00    -0.319 A  
ENDBRANCH  19  20
ENDBRANCH  17  19
ENDBRANCH  13  17
ENDBRANCH   6   8
ENDBRANCH   3   4
ENDBRANCH   2   3
TORSDOF 6
ENDMDL
MODEL       90
REMARK 921   NORMALIZED FREE ENERGY PREDICTED BY IDOCK:   -4.99 KCAL/MOL
REMARK 922        TOTAL FREE ENERGY PREDICTED BY IDOCK:   -7.44 KCAL/MOL
REMARK 923 INTER-LIGAND FREE ENERGY PREDICTED BY IDOCK:   -6.81 KCAL/MOL
REMARK 924 INTRA-LIGAND FREE ENERGY PREDICTED BY IDOCK:   -0.63 KCAL/MOL
REMARK 927      BINDING AFFINITY PREDICTED BY RF-SCORE:    0.00 PKD
ROOT
HETATM    1  C   UNL     1     -12.227  13.194  63.504  1.00  0.00    -0.552 C  
HETATM    2  C   UNL     1     -12.118  14.332  64.506  1.00  0.00    -0.480 C  
ENDROOT
BRANCH   2   3
HETATM    3  O   UNL     1     -10.737  14.705  64.597  1.00  0.00    -0.393 OA 
BRANCH   3   4
HETATM    4  C   UNL     1     -10.119  14.394  65.765  1.00  0.00    -0.340 C  
HETATM    5  O   UNL     1     -10.077  15.122  66.748  1.00  0.00    -0.249 OA 
HETATM    6  N   UNL     1      -9.706  13.095  65.676  1.00  0.00    -0.469 N  
HETATM    7  H   UNL     1      -9.499  12.706  64.755  1.00  0.00     0.000 HD 
BRANCH   6   8
HETATM    8  C   UNL     1      -9.555  12.274  66.813  1.00  0.00    -0.218 A  
HETATM    9  C   UNL     1      -8.345  12.126  67.513  1.00  0.00    -0.166 A  
HETATM   10  C   UNL     1      -8.319  11.257  68.617  1.00  0.00    -0.146 A  
HETATM   11  N   UNL     1      -7.119  12.583  66.981  1.00  0.00    -0.367 NA 
HETATM   12  H2  UNL     1      -7.228  13.571  66.750  1.00  0.00     0.000 HD 
HETATM   13  C   UNL     1      -9.469  10.589  69.065  1.00  0.00    -0.201 A  
HETATM   14  H1  UNL     1      -6.241  12.476  67.489  1.00  0.00     0.000 HD 
HETATM   15  C   UNL     1     -10.708  11.617  67.253  1.00  0.00    -0.281 A  
HETATM   16  C   UNL     1     -10.670  10.815  68.393  1.00  0.00    -0.255 A  
BRANCH  13  17
HETATM   17  N   UNL     1      -9.362   9.775  70.204  1.00  0.00    -0.306 NA 
HETATM   18  H   UNL     1      -8.482   9.326  70.457  1.00  0.00     0.000 HD 
BRANCH  17  19
HETATM   19  C   UNL     1     -10.566   9.600  71.011  1.00  0.00    -0.292 C  
BRANCH  19  20
HETATM   20  C   UNL     1     -10.715   8.177  71.500  1.00  0.00    -0.286 A  
HETATM   21  C   UNL     1     -10.834   7.139  70.558  1.00  0.00    -0.269 A  
HETATM   22  C   UNL     1     -10.905   5.808  70.971  1.00  0.00    -0.316 A  
HETATM   23  C   UNL     1     -10.851   5.509  72.327  1.00  0.00    -0.241 A  
HETATM   24  C   UNL     1     -10.713   6.514  73.275  1.00  0.00    -0.300 A  
HETATM   25  F   UNL     1     -10.918   4.230  72.721  1.00  0.00    -0.249 F  
HETATM   26  C   UNL     1     -10.635   7.845  72.865  1.00  0.00    -0.434 A  
ENDBRANCH  19  20
ENDBRANCH  17  19
ENDBRANCH  13  17
ENDBRANCH   6   8
ENDBRANCH   3   4
ENDBRANCH   2   3
TORSDOF 6
ENDMDL
MODEL       91
REMARK 921   NORMALIZED FREE ENERGY PREDICTED BY IDOCK:   -4.96 KCAL/MOL
REMARK 922        TOTAL FREE ENERGY PREDICTED BY IDOCK:   -7.40 KCAL/MOL
REMARK 923 INTER-LIGAND FREE ENERGY PREDICTED BY IDOCK:   -6.72 KCAL/MOL
REMARK 924 INTRA-LIGAND FREE ENERGY PREDICTED BY IDOCK:   -0.69 KCAL/MOL
REMARK 927      BINDING AFFINITY PREDICTED BY RF-SCORE:    0.00 PKD
ROOT
HETATM    1  C   UNL     1     -10.334   7.587  66.952  1.00  0.00    -0.379 C  
HETATM    2  C   UNL     1     -10.085   9.079  66.810  1.00  0.00    -0.274 C  
ENDROOT
BRANCH   2   3
HETATM    3  O   UNL     1     -10.984   9.759  67.696  1.00  0.00    -0.280 OA 
BRANCH   3   4
HETATM    4  C   UNL     1     -11.257  11.050  67.380  1.00  0.00    -0.285 C  
HETATM    5  O   UNL     1     -12.151  11.719  67.881  1.00  0.00    -0.592 OA 
HETATM    6  N   UNL     1     -10.272  11.482  66.537  1.00  0.00    -0.212 N  
HETATM    7  H   UNL     1      -9.792  10.799  65.949  1.00  0.00     0.000 HD 
BRANCH   6   8
HETATM    8  C   UNL     1      -9.895  12.839  66.452  1.00  0.00    -0.269 A  
HETATM    9  C   UNL     1      -8.964  13.445  67.313  1.00  0.00    -0.221 A  
HETATM   10  C   UNL     1      -8.694  14.813  67.140  1.00  0.00    -0.241 A  
HETATM   11  N   UNL     1      -8.523  12.810  68.495  1.00  0.00    -0.323 NA 
HETATM   12  H2  UNL     1      -8.162  11.891  68.240  1.00  0.00     0.000 HD 
HETATM   13  C   UNL     1      -9.279  15.563  66.109  1.00  0.00    -0.344 A  
HETATM   14  H1  UNL     1      -7.847  13.250  69.120  1.00  0.00     0.000 HD 
HETATM   15  C   UNL     1     -10.482  13.575  65.419  1.00  0.00    -0.322 A  
HETATM   16  C   UNL     1     -10.143  14.913  65.227  1.00  0.00    -0.380 A  
BRANCH  13  17
HETATM   17  N   UNL     1      -8.917  16.914  65.982  1.00  0.00    -0.510 NA 
HETATM   18  H   UNL     1      -9.620  17.647  65.889  1.00  0.00     0.000 HD 
BRANCH  17  19
HETATM   19  C   UNL     1      -7.491  17.223  65.990  1.00  0.00    -0.197 C  
BRANCH  19  20
HETATM   20  C   UNL     1      -7.121  18.154  67.122  1.00  0.00    -0.212 A  
HETATM   21  C   UNL     1      -5.795  18.615  67.223  1.00  0.00    -0.158 A  
HETATM   22  C   UNL     1      -5.434  19.528  68.214  1.00  0.00    -0.211 A  
HETATM   23  C   UNL     1      -6.398  19.991  69.102  1.00  0.00    -0.325 A  
HETATM   24  C   UNL     1      -7.716  19.568  69.010  1.00  0.00    -0.332 A  
HETATM   25  F   UNL     1      -6.048  20.870  70.052  1.00  0.00    -0.355 F  
HETATM   26  C   UNL     1      -8.082  18.660  68.016  1.00  0.00    -0.296 A  
ENDBRANCH  19  20
ENDBRANCH  17  19
ENDBRANCH  13  17
ENDBRANCH   6   8
ENDBRANCH   3   4
ENDBRANCH   2   3
TORSDOF 6
ENDMDL
MODEL       92
REMARK 921   NORMALIZED FREE ENERGY PREDICTED BY IDOCK:   -4.96 KCAL/MOL
REMARK 922        TOTAL FREE ENERGY PREDICTED BY IDOCK:   -7.40 KCAL/MOL
REMARK 923 INTER-LIGAND FREE ENERGY PREDICTED BY IDOCK:   -6.70 KCAL/MOL
REMARK 924 INTRA-LIGAND FREE ENERGY PREDICTED BY IDOCK:   -0.71 KCAL/MOL
REMARK 927      BINDING AFFINITY PREDICTED BY RF-SCORE:    0.00 PKD
ROOT
HETATM    1  C   UNL     1     -10.489   5.303  70.262  1.00  0.00    -0.332 C  
HETATM    2  C   UNL     1     -11.288   6.589  70.140  1.00  0.00    -0.402 C  
ENDROOT
BRANCH   2   3
HETATM    3  O   UNL     1     -10.874   7.464  71.198  1.00  0.00    -0.238 OA 
BRANCH   3   4
HETATM    4  C   UNL     1     -10.578   8.736  70.828  1.00  0.00    -0.220 C  
HETATM    5  O   UNL     1      -9.519   9.303  71.063  1.00  0.00    -0.266 OA 
HETATM    6  N   UNL     1     -11.599   9.180  70.037  1.00  0.00    -0.458 N  
HETATM    7  H   UNL     1     -12.531   8.785  70.168  1.00  0.00     0.000 HD 
BRANCH   6   8
HETATM    8  C   UNL     1     -11.409  10.166  69.046  1.00  0.00    -0.133 A  
HETATM    9  C   UNL     1     -10.830   9.908  67.791  1.00  0.00    -0.264 A  
HETATM   10  C   UNL     1     -10.672  10.983  66.900  1.00  0.00    -0.325 A  
HETATM   11  N   UNL     1     -10.156   8.697  67.519  1.00  0.00    -0.199 NA 
HETATM   12  H2  UNL     1     -10.794   7.930  67.734  1.00  0.00     0.000 HD 
HETATM   13  C   UNL     1     -11.125  12.275  67.206  1.00  0.00    -0.275 A  
HETATM   14  H1  UNL     1      -9.736   8.510  66.608  1.00  0.00     0.000 HD 
HETATM   15  C   UNL     1     -11.866  11.448  69.360  1.00  0.00    -0.419 A  
HETATM   16  C   UNL     1     -11.761  12.482  68.430  1.00  0.00    -0.375 A  
BRANCH  13  17
HETATM   17  N   UNL     1     -10.967  13.280  66.238  1.00  0.00    -0.283 NA 
HETATM   18  H   UNL     1     -10.415  13.125  65.394  1.00  0.00     0.000 HD 
BRANCH  17  19
HETATM   19  C   UNL     1     -11.627  14.557  66.491  1.00  0.00    -0.371 C  
BRANCH  19  20
HETATM   20  C   UNL     1     -10.675  15.581  67.066  1.00  0.00    -0.321 A  
HETATM   21  C   UNL     1      -9.497  15.890  66.363  1.00  0.00    -0.324 A  
HETATM   22  C   UNL     1      -8.629  16.878  66.829  1.00  0.00    -0.256 A  
HETATM   23  C   UNL     1      -8.940  17.567  67.996  1.00  0.00    -0.258 A  
HETATM   24  C   UNL     1     -10.106  17.295  68.696  1.00  0.00    -0.341 A  
HETATM   25  F   UNL     1      -8.105  18.516  68.440  1.00  0.00    -0.290 F  
HETATM   26  C   UNL     1     -10.980  16.312  68.230  1.00  0.00    -0.348 A  
ENDBRANCH  19  20
ENDBRANCH  17  19
ENDBRANCH  13  17
ENDBRANCH   6   8
ENDBRANCH   3   4
ENDBRANCH   2   3
TORSDOF 6
ENDMDL
MODEL       93
REMARK 921   NORMALIZED FREE ENERGY PREDICTED BY IDOCK:   -4.95 KCAL/MOL
REMARK 922        TOTAL FREE ENERGY PREDICTED BY IDOCK:   -7.40 KCAL/MOL
REMARK 923 INTER-LIGAND FREE ENERGY PREDICTED BY IDOCK:   -6.91 KCAL/MOL
REMARK 924 INTRA-LIGAND FREE ENERGY PREDICTED BY IDOCK:   -0.48 KCAL/MOL
REMARK 927      BINDING AFFINITY PREDICTED BY RF-SCORE:    0.00 PKD
ROOT
HETATM    1  C   UNL     1     -10.598   7.343  66.841  1.00  0.00    -0.375 C  
HETATM    2  C   UNL     1     -10.379   8.501  67.800  1.00  0.00    -0.237 C  
ENDROOT
BRANCH   2   3
HETATM    3  O   UNL     1     -10.869   9.691  67.168  1.00  0.00    -0.232 OA 
BRANCH   3   4
HETATM    4  C   UNL     1     -10.989  10.777  67.972  1.00  0.00    -0.283 C  
HETATM    5  O   UNL     1     -10.518  10.869  69.098  1.00  0.00    -0.212 OA 
HETATM    6  N   UNL     1     -11.584  11.765  67.239  1.00  0.00    -0.301 N  
HETATM    7  H   UNL     1     -12.204  11.503  66.472  1.00  0.00     0.000 HD 
BRANCH   6   8
HETATM    8  C   UNL     1     -11.369  13.134  67.506  1.00  0.00    -0.298 A  
HETATM    9  C   UNL     1     -10.630  13.986  66.667  1.00  0.00    -0.274 A  
HETATM   10  C   UNL     1     -10.468  15.325  67.060  1.00  0.00    -0.292 A  
HETATM   11  N   UNL     1      -9.826  13.482  65.622  1.00  0.00    -0.461 NA 
HETATM   12  H2  UNL     1     -10.414  12.893  65.031  1.00  0.00     0.000 HD 
HETATM   13  C   UNL     1     -11.064  15.838  68.221  1.00  0.00    -0.342 A  
HETATM   14  H1  UNL     1      -9.290  14.101  65.012  1.00  0.00     0.000 HD 
HETATM   15  C   UNL     1     -11.971  13.634  68.664  1.00  0.00    -0.395 A  
HETATM   16  C   UNL     1     -11.852  14.983  68.994  1.00  0.00    -0.330 A  
BRANCH  13  17
HETATM   17  N   UNL     1     -10.886  17.200  68.513  1.00  0.00    -0.325 NA 
HETATM   18  H   UNL     1     -10.880  17.542  69.474  1.00  0.00     0.000 HD 
BRANCH  17  19
HETATM   19  C   UNL     1     -10.711  18.104  67.381  1.00  0.00    -0.335 C  
BRANCH  19  20
HETATM   20  C   UNL     1      -9.415  18.879  67.472  1.00  0.00    -0.340 A  
HETATM   21  C   UNL     1      -8.750  18.955  68.709  1.00  0.00    -0.331 A  
HETATM   22  C   UNL     1      -7.519  19.603  68.815  1.00  0.00    -0.364 A  
HETATM   23  C   UNL     1      -6.944  20.170  67.684  1.00  0.00    -0.267 A  
HETATM   24  C   UNL     1      -7.570  20.090  66.449  1.00  0.00    -0.320 A  
HETATM   25  F   UNL     1      -5.761  20.790  67.789  1.00  0.00    -0.215 F  
HETATM   26  C   UNL     1      -8.798  19.437  66.337  1.00  0.00    -0.385 A  
ENDBRANCH  19  20
ENDBRANCH  17  19
ENDBRANCH  13  17
ENDBRANCH   6   8
ENDBRANCH   3   4
ENDBRANCH   2   3
TORSDOF 6
ENDMDL
MODEL       94
REMARK 921   NORMALIZED FREE ENERGY PREDICTED BY IDOCK:   -4.95 KCAL/MOL
REMARK 922        TOTAL FREE ENERGY PREDICTED BY IDOCK:   -7.39 KCAL/MOL
REMARK 923 INTER-LIGAND FREE ENERGY PREDICTED BY IDOCK:   -6.64 KCAL/MOL
REMARK 924 INTRA-LIGAND FREE ENERGY PREDICTED BY IDOCK:   -0.75 KCAL/MOL
REMARK 927      BINDING AFFINITY PREDICTED BY RF-SCORE:    0.00 PKD
ROOT
HETATM    1  C   UNL     1      -9.074   8.243  66.817  1.00  0.00    -0.190 C  
HETATM    2  C   UNL     1     -10.068   9.352  66.513  1.00  0.00    -0.262 C  
ENDROOT
BRANCH   2   3
HETATM    3  O   UNL     1     -10.902   9.519  67.667  1.00  0.00    -0.279 OA 
BRANCH   3   4
HETATM    4  C   UNL     1     -10.679  10.642  68.396  1.00  0.00    -0.222 C  
HETATM    5  O   UNL     1      -9.653  10.876  69.022  1.00  0.00    -0.200 OA 
HETATM    6  N   UNL     1     -11.725  11.490  68.172  1.00  0.00    -0.306 N  
HETATM    7  H   UNL     1     -12.634  11.097  67.922  1.00  0.00     0.000 HD 
BRANCH   6   8
HETATM    8  C   UNL     1     -11.593  12.892  68.274  1.00  0.00    -0.335 A  
HETATM    9  C   UNL     1     -11.641  13.593  69.492  1.00  0.00    -0.301 A  
HETATM   10  C   UNL     1     -11.522  14.992  69.456  1.00  0.00    -0.317 A  
HETATM   11  N   UNL     1     -12.084  12.979  70.684  1.00  0.00    -0.508 NA 
HETATM   12  H2  UNL     1     -11.525  12.138  70.829  1.00  0.00     0.000 HD 
HETATM   13  C   UNL     1     -11.302  15.690  68.259  1.00  0.00    -0.356 A  
HETATM   14  H1  UNL     1     -12.118  13.488  71.568  1.00  0.00     0.000 HD 
HETATM   15  C   UNL     1     -11.371  13.576  67.076  1.00  0.00    -0.348 A  
HETATM   16  C   UNL     1     -11.186  14.957  67.077  1.00  0.00    -0.344 A  
BRANCH  13  17
HETATM   17  N   UNL     1     -11.149  17.085  68.322  1.00  0.00    -0.272 NA 
HETATM   18  H   UNL     1     -11.868  17.716  67.968  1.00  0.00     0.000 HD 
BRANCH  17  19
HETATM   19  C   UNL     1      -9.916  17.592  68.917  1.00  0.00    -0.313 C  
BRANCH  19  20
HETATM   20  C   UNL     1      -8.980  18.163  67.875  1.00  0.00    -0.273 A  
HETATM   21  C   UNL     1      -8.199  17.284  67.102  1.00  0.00    -0.225 A  
HETATM   22  C   UNL     1      -7.376  17.771  66.087  1.00  0.00    -0.335 A  
HETATM   23  C   UNL     1      -7.336  19.137  65.835  1.00  0.00    -0.252 A  
HETATM   24  C   UNL     1      -8.112  20.022  66.569  1.00  0.00    -0.346 A  
HETATM   25  F   UNL     1      -6.545  19.602  64.858  1.00  0.00    -0.282 F  
HETATM   26  C   UNL     1      -8.942  19.538  67.581  1.00  0.00    -0.373 A  
ENDBRANCH  19  20
ENDBRANCH  17  19
ENDBRANCH  13  17
ENDBRANCH   6   8
ENDBRANCH   3   4
ENDBRANCH   2   3
TORSDOF 6
ENDMDL
MODEL       95
REMARK 921   NORMALIZED FREE ENERGY PREDICTED BY IDOCK:   -4.94 KCAL/MOL
REMARK 922        TOTAL FREE ENERGY PREDICTED BY IDOCK:   -7.38 KCAL/MOL
REMARK 923 INTER-LIGAND FREE ENERGY PREDICTED BY IDOCK:   -6.63 KCAL/MOL
REMARK 924 INTRA-LIGAND FREE ENERGY PREDICTED BY IDOCK:   -0.75 KCAL/MOL
REMARK 927      BINDING AFFINITY PREDICTED BY RF-SCORE:    0.00 PKD
ROOT
HETATM    1  C   UNL     1      -9.050   6.380  73.200  1.00  0.00    -0.134 C  
HETATM    2  C   UNL     1      -9.601   7.752  73.552  1.00  0.00    -0.270 C  
ENDROOT
BRANCH   2   3
HETATM    3  O   UNL     1     -10.914   7.855  72.987  1.00  0.00    -0.393 OA 
BRANCH   3   4
HETATM    4  C   UNL     1     -10.964   8.026  71.641  1.00  0.00    -0.239 C  
HETATM    5  O   UNL     1     -11.555   7.289  70.864  1.00  0.00    -0.282 OA 
HETATM    6  N   UNL     1     -10.376   9.227  71.361  1.00  0.00    -0.335 N  
HETATM    7  H   UNL     1      -9.660   9.585  71.994  1.00  0.00     0.000 HD 
BRANCH   6   8
HETATM    8  C   UNL     1     -10.724   9.988  70.224  1.00  0.00    -0.309 A  
HETATM    9  C   UNL     1     -11.785  10.910  70.198  1.00  0.00    -0.347 A  
HETATM   10  C   UNL     1     -12.045  11.587  68.995  1.00  0.00    -0.303 A  
HETATM   11  N   UNL     1     -12.751  10.958  71.227  1.00  0.00    -0.412 NA 
HETATM   12  H2  UNL     1     -12.258  11.073  72.113  1.00  0.00     0.000 HD 
HETATM   13  C   UNL     1     -11.248  11.410  67.854  1.00  0.00    -0.288 A  
HETATM   14  H1  UNL     1     -13.521  11.627  71.208  1.00  0.00     0.000 HD 
HETATM   15  C   UNL     1      -9.920   9.807  69.095  1.00  0.00    -0.195 A  
HETATM   16  C   UNL     1     -10.157  10.544  67.936  1.00  0.00    -0.204 A  
BRANCH  13  17
HETATM   17  N   UNL     1     -11.553  12.163  66.708  1.00  0.00    -0.481 NA 
HETATM   18  H   UNL     1     -11.275  11.851  65.777  1.00  0.00     0.000 HD 
BRANCH  17  19
HETATM   19  C   UNL     1     -12.285  13.409  66.907  1.00  0.00    -0.289 C  
BRANCH  19  20
HETATM   20  C   UNL     1     -11.373  14.614  66.859  1.00  0.00    -0.361 A  
HETATM   21  C   UNL     1     -10.982  15.126  65.608  1.00  0.00    -0.359 A  
HETATM   22  C   UNL     1     -10.196  16.276  65.525  1.00  0.00    -0.326 A  
HETATM   23  C   UNL     1      -9.805  16.924  66.691  1.00  0.00    -0.287 A  
HETATM   24  C   UNL     1     -10.196  16.450  67.935  1.00  0.00    -0.268 A  
HETATM   25  F   UNL     1      -9.052  18.029  66.607  1.00  0.00    -0.250 F  
HETATM   26  C   UNL     1     -10.986  15.304  68.022  1.00  0.00    -0.299 A  
ENDBRANCH  19  20
ENDBRANCH  17  19
ENDBRANCH  13  17
ENDBRANCH   6   8
ENDBRANCH   3   4
ENDBRANCH   2   3
TORSDOF 6
ENDMDL
MODEL       96
REMARK 921   NORMALIZED FREE ENERGY PREDICTED BY IDOCK:   -4.93 KCAL/MOL
REMARK 922        TOTAL FREE ENERGY PREDICTED BY IDOCK:   -7.37 KCAL/MOL
REMARK 923 INTER-LIGAND FREE ENERGY PREDICTED BY IDOCK:   -7.60 KCAL/MOL
REMARK 924 INTRA-LIGAND FREE ENERGY PREDICTED BY IDOCK:    0.23 KCAL/MOL
REMARK 927      BINDING AFFINITY PREDICTED BY RF-SCORE:    0.00 PKD
ROOT
HETATM    1  C   UNL     1     -12.388  16.038  73.105  1.00  0.00    -0.637 C  
HETATM    2  C   UNL     1     -12.550  14.579  73.496  1.00  0.00    -0.199 C  
ENDROOT
BRANCH   2   3
HETATM    3  O   UNL     1     -13.671  14.055  72.772  1.00  0.00    -0.660 OA 
BRANCH   3   4
HETATM    4  C   UNL     1     -13.370  13.199  71.761  1.00  0.00    -0.389 C  
HETATM    5  O   UNL     1     -12.837  13.522  70.708  1.00  0.00    -0.261 OA 
HETATM    6  N   UNL     1     -13.630  11.934  72.206  1.00  0.00    -0.492 N  
HETATM    7  H   UNL     1     -14.343  11.801  72.925  1.00  0.00     0.000 HD 
BRANCH   6   8
HETATM    8  C   UNL     1     -12.948  10.805  71.705  1.00  0.00    -0.476 A  
HETATM    9  C   UNL     1     -13.272   9.481  72.049  1.00  0.00    -0.452 A  
HETATM   10  C   UNL     1     -12.498   8.445  71.501  1.00  0.00    -0.342 A  
HETATM   11  N   UNL     1     -14.139   9.186  73.124  1.00  0.00    -1.155 NA 
HETATM   12  H2  UNL     1     -15.011   9.692  72.970  1.00  0.00     0.000 HD 
HETATM   13  C   UNL     1     -11.462   8.694  70.587  1.00  0.00    -0.228 A  
HETATM   14  H1  UNL     1     -14.375   8.225  73.373  1.00  0.00     0.000 HD 
HETATM   15  C   UNL     1     -11.920  11.064  70.793  1.00  0.00    -0.436 A  
HETATM   16  C   UNL     1     -11.214  10.014  70.210  1.00  0.00    -0.379 A  
BRANCH  13  17
HETATM   17  N   UNL     1     -10.770   7.594  70.054  1.00  0.00    -0.239 NA 
HETATM   18  H   UNL     1     -11.019   6.637  70.303  1.00  0.00     0.000 HD 
BRANCH  17  19
HETATM   19  C   UNL     1      -9.678   7.881  69.128  1.00  0.00    -0.162 C  
BRANCH  19  20
HETATM   20  C   UNL     1      -9.549   6.818  68.061  1.00  0.00    -0.117 A  
HETATM   21  C   UNL     1      -8.813   7.104  66.897  1.00  0.00    -0.132 A  
HETATM   22  C   UNL     1      -8.616   6.126  65.922  1.00  0.00    -0.147 A  
HETATM   23  C   UNL     1      -9.146   4.855  66.111  1.00  0.00    -0.135 A  
HETATM   24  C   UNL     1      -9.858   4.542  67.260  1.00  0.00    -0.216 A  
HETATM   25  F   UNL     1      -8.954   3.917  65.174  1.00  0.00    -0.117 F  
HETATM   26  C   UNL     1     -10.051   5.516  68.240  1.00  0.00    -0.226 A  
ENDBRANCH  19  20
ENDBRANCH  17  19
ENDBRANCH  13  17
ENDBRANCH   6   8
ENDBRANCH   3   4
ENDBRANCH   2   3
TORSDOF 6
ENDMDL
MODEL       97
REMARK 921   NORMALIZED FREE ENERGY PREDICTED BY IDOCK:   -4.93 KCAL/MOL
REMARK 922        TOTAL FREE ENERGY PREDICTED BY IDOCK:   -7.36 KCAL/MOL
REMARK 923 INTER-LIGAND FREE ENERGY PREDICTED BY IDOCK:   -6.75 KCAL/MOL
REMARK 924 INTRA-LIGAND FREE ENERGY PREDICTED BY IDOCK:   -0.62 KCAL/MOL
REMARK 927      BINDING AFFINITY PREDICTED BY RF-SCORE:    0.00 PKD
ROOT
HETATM    1  C   UNL     1      -8.210   2.647  68.341  1.00  0.00    -0.076 C  
HETATM    2  C   UNL     1      -8.505   3.932  69.097  1.00  0.00    -0.076 C  
ENDROOT
BRANCH   2   3
HETATM    3  O   UNL     1      -8.350   3.662  70.496  1.00  0.00    -0.056 OA 
BRANCH   3   4
HETATM    4  C   UNL     1      -8.947   4.545  71.335  1.00  0.00    -0.127 C  
HETATM    5  O   UNL     1      -8.430   5.014  72.341  1.00  0.00    -0.118 OA 
HETATM    6  N   UNL     1     -10.135   4.910  70.767  1.00  0.00    -0.236 N  
HETATM    7  H   UNL     1     -10.603   4.255  70.139  1.00  0.00     0.000 HD 
BRANCH   6   8
HETATM    8  C   UNL     1     -10.737   6.161  71.019  1.00  0.00    -0.260 A  
HETATM    9  C   UNL     1     -11.575   6.416  72.119  1.00  0.00    -0.313 A  
HETATM   10  C   UNL     1     -12.134   7.699  72.243  1.00  0.00    -0.297 A  
HETATM   11  N   UNL     1     -12.090   5.371  72.916  1.00  0.00    -0.479 NA 
HETATM   12  H2  UNL     1     -11.303   4.812  73.246  1.00  0.00     0.000 HD 
HETATM   13  C   UNL     1     -11.834   8.732  71.342  1.00  0.00    -0.308 A  
HETATM   14  H1  UNL     1     -12.699   5.555  73.715  1.00  0.00     0.000 HD 
HETATM   15  C   UNL     1     -10.428   7.183  70.118  1.00  0.00    -0.231 A  
HETATM   16  C   UNL     1     -10.941   8.466  70.304  1.00  0.00    -0.236 A  
BRANCH  13  17
HETATM   17  N   UNL     1     -12.402   9.996  71.569  1.00  0.00    -0.395 NA 
HETATM   18  H   UNL     1     -12.948  10.191  72.408  1.00  0.00     0.000 HD 
BRANCH  17  19
HETATM   19  C   UNL     1     -12.175  11.018  70.553  1.00  0.00    -0.381 C  
BRANCH  19  20
HETATM   20  C   UNL     1     -12.545  12.399  71.047  1.00  0.00    -0.349 A  
HETATM   21  C   UNL     1     -12.072  13.525  70.349  1.00  0.00    -0.415 A  
HETATM   22  C   UNL     1     -12.448  14.811  70.737  1.00  0.00    -0.402 A  
HETATM   23  C   UNL     1     -13.305  14.976  71.819  1.00  0.00    -0.386 A  
HETATM   24  C   UNL     1     -13.802  13.881  72.510  1.00  0.00    -0.620 A  
HETATM   25  F   UNL     1     -13.666  16.213  72.187  1.00  0.00    -0.424 F  
HETATM   26  C   UNL     1     -13.433  12.593  72.121  1.00  0.00    -0.561 A  
ENDBRANCH  19  20
ENDBRANCH  17  19
ENDBRANCH  13  17
ENDBRANCH   6   8
ENDBRANCH   3   4
ENDBRANCH   2   3
TORSDOF 6
ENDMDL
MODEL       98
REMARK 921   NORMALIZED FREE ENERGY PREDICTED BY IDOCK:   -4.92 KCAL/MOL
REMARK 922        TOTAL FREE ENERGY PREDICTED BY IDOCK:   -7.35 KCAL/MOL
REMARK 923 INTER-LIGAND FREE ENERGY PREDICTED BY IDOCK:   -6.81 KCAL/MOL
REMARK 924 INTRA-LIGAND FREE ENERGY PREDICTED BY IDOCK:   -0.55 KCAL/MOL
REMARK 927      BINDING AFFINITY PREDICTED BY RF-SCORE:    0.00 PKD
ROOT
HETATM    1  C   UNL     1      -9.461   3.870  69.845  1.00  0.00    -0.267 C  
HETATM    2  C   UNL     1      -9.956   4.442  71.163  1.00  0.00    -0.173 C  
ENDROOT
BRANCH   2   3
HETATM    3  O   UNL     1      -9.739   5.858  71.135  1.00  0.00    -0.170 OA 
BRANCH   3   4
HETATM    4  C   UNL     1     -10.577   6.566  70.336  1.00  0.00    -0.233 C  
HETATM    5  O   UNL     1     -11.787   6.394  70.266  1.00  0.00    -0.396 OA 
HETATM    6  N   UNL     1      -9.849   7.573  69.769  1.00  0.00    -0.178 N  
HETATM    7  H   UNL     1      -8.846   7.439  69.632  1.00  0.00     0.000 HD 
BRANCH   6   8
HETATM    8  C   UNL     1     -10.435   8.791  69.365  1.00  0.00    -0.222 A  
HETATM    9  C   UNL     1     -10.996   9.720  70.259  1.00  0.00    -0.298 A  
HETATM   10  C   UNL     1     -11.573  10.886  69.728  1.00  0.00    -0.399 A  
HETATM   11  N   UNL     1     -11.250   9.391  71.608  1.00  0.00    -0.382 NA 
HETATM   12  H2  UNL     1     -10.379   9.051  72.016  1.00  0.00     0.000 HD 
HETATM   13  C   UNL     1     -11.552  11.167  68.353  1.00  0.00    -0.306 A  
HETATM   14  H1  UNL     1     -11.657  10.066  72.257  1.00  0.00     0.000 HD 
HETATM   15  C   UNL     1     -10.405   9.063  67.994  1.00  0.00    -0.275 A  
HETATM   16  C   UNL     1     -10.922  10.259  67.501  1.00  0.00    -0.344 A  
BRANCH  13  17
HETATM   17  N   UNL     1     -12.112  12.378  67.915  1.00  0.00    -0.404 NA 
HETATM   18  H   UNL     1     -12.791  12.886  68.481  1.00  0.00     0.000 HD 
BRANCH  17  19
HETATM   19  C   UNL     1     -11.680  12.878  66.613  1.00  0.00    -0.390 C  
BRANCH  19  20
HETATM   20  C   UNL     1     -11.268  14.331  66.675  1.00  0.00    -0.337 A  
HETATM   21  C   UNL     1     -11.321  15.006  67.908  1.00  0.00    -0.344 A  
HETATM   22  C   UNL     1     -10.884  16.326  68.015  1.00  0.00    -0.339 A  
HETATM   23  C   UNL     1     -10.386  16.976  66.892  1.00  0.00    -0.303 A  
HETATM   24  C   UNL     1     -10.304  16.325  65.669  1.00  0.00    -0.385 A  
HETATM   25  F   UNL     1      -9.967  18.244  66.998  1.00  0.00    -0.293 F  
HETATM   26  C   UNL     1     -10.734  15.003  65.559  1.00  0.00    -0.372 A  
ENDBRANCH  19  20
ENDBRANCH  17  19
ENDBRANCH  13  17
ENDBRANCH   6   8
ENDBRANCH   3   4
ENDBRANCH   2   3
TORSDOF 6
ENDMDL
MODEL       99
REMARK 921   NORMALIZED FREE ENERGY PREDICTED BY IDOCK:   -4.91 KCAL/MOL
REMARK 922        TOTAL FREE ENERGY PREDICTED BY IDOCK:   -7.34 KCAL/MOL
REMARK 923 INTER-LIGAND FREE ENERGY PREDICTED BY IDOCK:   -6.45 KCAL/MOL
REMARK 924 INTRA-LIGAND FREE ENERGY PREDICTED BY IDOCK:   -0.89 KCAL/MOL
REMARK 927      BINDING AFFINITY PREDICTED BY RF-SCORE:    0.00 PKD
ROOT
HETATM    1  C   UNL     1      -8.487   7.199  65.601  1.00  0.00    -0.141 C  
HETATM    2  C   UNL     1      -9.204   8.493  65.948  1.00  0.00    -0.182 C  
ENDROOT
BRANCH   2   3
HETATM    3  O   UNL     1     -10.063   8.231  67.064  1.00  0.00    -0.226 OA 
BRANCH   3   4
HETATM    4  C   UNL     1     -10.047   9.163  68.051  1.00  0.00    -0.196 C  
HETATM    5  O   UNL     1      -9.037   9.589  68.594  1.00  0.00    -0.130 OA 
HETATM    6  N   UNL     1     -11.325   9.624  68.198  1.00  0.00    -0.500 N  
HETATM    7  H   UNL     1     -12.102   9.009  67.954  1.00  0.00     0.000 HD 
BRANCH   6   8
HETATM    8  C   UNL     1     -11.606  10.922  68.677  1.00  0.00    -0.303 A  
HETATM    9  C   UNL     1     -11.792  11.228  70.036  1.00  0.00    -0.367 A  
HETATM   10  C   UNL     1     -12.093  12.557  70.380  1.00  0.00    -0.380 A  
HETATM   11  N   UNL     1     -11.970  10.218  71.006  1.00  0.00    -0.359 NA 
HETATM   12  H2  UNL     1     -11.182   9.575  70.936  1.00  0.00     0.000 HD 
HETATM   13  C   UNL     1     -12.153  13.579  69.421  1.00  0.00    -0.289 A  
HETATM   14  H1  UNL     1     -12.105  10.441  71.993  1.00  0.00     0.000 HD 
HETATM   15  C   UNL     1     -11.660  11.933  67.713  1.00  0.00    -0.393 A  
HETATM   16  C   UNL     1     -11.891  13.254  68.090  1.00  0.00    -0.388 A  
BRANCH  13  17
HETATM   17  N   UNL     1     -12.415  14.887  69.861  1.00  0.00    -0.531 NA 
HETATM   18  H   UNL     1     -13.357  15.278  69.838  1.00  0.00     0.000 HD 
BRANCH  17  19
HETATM   19  C   UNL     1     -11.280  15.663  70.351  1.00  0.00    -0.357 C  
BRANCH  19  20
HETATM   20  C   UNL     1     -10.278  15.952  69.256  1.00  0.00    -0.250 A  
HETATM   21  C   UNL     1      -8.973  15.440  69.371  1.00  0.00    -0.258 A  
HETATM   22  C   UNL     1      -8.043  15.630  68.349  1.00  0.00    -0.137 A  
HETATM   23  C   UNL     1      -8.416  16.324  67.204  1.00  0.00    -0.187 A  
HETATM   24  C   UNL     1      -9.703  16.820  67.058  1.00  0.00    -0.254 A  
HETATM   25  F   UNL     1      -7.521  16.503  66.223  1.00  0.00    -0.287 F  
HETATM   26  C   UNL     1     -10.638  16.627  68.076  1.00  0.00    -0.338 A  
ENDBRANCH  19  20
ENDBRANCH  17  19
ENDBRANCH  13  17
ENDBRANCH   6   8
ENDBRANCH   3   4
ENDBRANCH   2   3
TORSDOF 6
ENDMDL
MODEL      100
REMARK 921   NORMALIZED FREE ENERGY PREDICTED BY IDOCK:   -4.89 KCAL/MOL
REMARK 922        TOTAL FREE ENERGY PREDICTED BY IDOCK:   -7.32 KCAL/MOL
REMARK 923 INTER-LIGAND FREE ENERGY PREDICTED BY IDOCK:   -6.58 KCAL/MOL
REMARK 924 INTRA-LIGAND FREE ENERGY PREDICTED BY IDOCK:   -0.74 KCAL/MOL
REMARK 927      BINDING AFFINITY PREDICTED BY RF-SCORE:    0.00 PKD
ROOT
HETATM    1  C   UNL     1      -9.231   5.464  74.178  1.00  0.00    -0.122 C  
HETATM    2  C   UNL     1     -10.696   5.659  73.823  1.00  0.00    -0.242 C  
ENDROOT
BRANCH   2   3
HETATM    3  O   UNL     1     -10.880   7.035  73.467  1.00  0.00    -0.341 OA 
BRANCH   3   4
HETATM    4  C   UNL     1     -11.132   7.274  72.154  1.00  0.00    -0.246 C  
HETATM    5  O   UNL     1     -11.979   6.693  71.488  1.00  0.00    -0.323 OA 
HETATM    6  N   UNL     1     -10.388   8.359  71.786  1.00  0.00    -0.238 N  
HETATM    7  H   UNL     1      -9.518   8.551  72.284  1.00  0.00     0.000 HD 
BRANCH   6   8
HETATM    8  C   UNL     1     -10.781   9.221  70.740  1.00  0.00    -0.284 A  
HETATM    9  C   UNL     1     -10.281   9.135  69.429  1.00  0.00    -0.210 A  
HETATM   10  C   UNL     1     -10.734  10.071  68.484  1.00  0.00    -0.264 A  
HETATM   11  N   UNL     1      -9.154   8.345  69.115  1.00  0.00    -0.147 NA 
HETATM   12  H2  UNL     1      -9.335   7.397  69.444  1.00  0.00     0.000 HD 
HETATM   13  C   UNL     1     -11.702  11.037  68.799  1.00  0.00    -0.314 A  
HETATM   14  H1  UNL     1      -8.791   8.282  68.163  1.00  0.00     0.000 HD 
HETATM   15  C   UNL     1     -11.748  10.177  71.064  1.00  0.00    -0.470 A  
HETATM   16  C   UNL     1     -12.231  11.048  70.090  1.00  0.00    -0.424 A  
BRANCH  13  17
HETATM   17  N   UNL     1     -12.130  11.904  67.780  1.00  0.00    -0.527 NA 
HETATM   18  H   UNL     1     -13.118  11.999  67.542  1.00  0.00     0.000 HD 
BRANCH  17  19
HETATM   19  C   UNL     1     -11.101  12.662  67.077  1.00  0.00    -0.281 C  
BRANCH  19  20
HETATM   20  C   UNL     1     -10.958  14.064  67.625  1.00  0.00    -0.281 A  
HETATM   21  C   UNL     1     -11.906  14.536  68.551  1.00  0.00    -0.355 A  
HETATM   22  C   UNL     1     -11.768  15.798  69.129  1.00  0.00    -0.398 A  
HETATM   23  C   UNL     1     -10.678  16.591  68.789  1.00  0.00    -0.339 A  
HETATM   24  C   UNL     1      -9.719  16.140  67.894  1.00  0.00    -0.225 A  
HETATM   25  F   UNL     1     -10.548  17.803  69.347  1.00  0.00    -0.320 F  
HETATM   26  C   UNL     1      -9.850  14.875  67.319  1.00  0.00    -0.229 A  
ENDBRANCH  19  20
ENDBRANCH  17  19
ENDBRANCH  13  17
ENDBRANCH   6   8
ENDBRANCH   3   4
ENDBRANCH   2   3
TORSDOF 6
ENDMDL
MODEL      101
REMARK 921   NORMALIZED FREE ENERGY PREDICTED BY IDOCK:   -4.89 KCAL/MOL
REMARK 922        TOTAL FREE ENERGY PREDICTED BY IDOCK:   -7.31 KCAL/MOL
REMARK 923 INTER-LIGAND FREE ENERGY PREDICTED BY IDOCK:   -6.77 KCAL/MOL
REMARK 924 INTRA-LIGAND FREE ENERGY PREDICTED BY IDOCK:   -0.54 KCAL/MOL
REMARK 927      BINDING AFFINITY PREDICTED BY RF-SCORE:    0.00 PKD
ROOT
HETATM    1  C   UNL     1      -8.965   2.201  68.665  1.00  0.00    -0.172 C  
HETATM    2  C   UNL     1      -9.316   3.631  69.043  1.00  0.00    -0.169 C  
ENDROOT
BRANCH   2   3
HETATM    3  O   UNL     1      -9.784   3.623  70.398  1.00  0.00    -0.189 OA 
BRANCH   3   4
HETATM    4  C   UNL     1      -9.903   4.841  70.986  1.00  0.00    -0.197 C  
HETATM    5  O   UNL     1      -9.128   5.294  71.818  1.00  0.00    -0.136 OA 
HETATM    6  N   UNL     1     -10.933   5.493  70.370  1.00  0.00    -0.207 N  
HETATM    7  H   UNL     1     -11.684   4.944  69.950  1.00  0.00     0.000 HD 
BRANCH   6   8
HETATM    8  C   UNL     1     -10.994   6.901  70.294  1.00  0.00    -0.281 A  
HETATM    9  C   UNL     1     -10.528   7.644  69.195  1.00  0.00    -0.214 A  
HETATM   10  C   UNL     1     -10.623   9.044  69.254  1.00  0.00    -0.226 A  
HETATM   11  N   UNL     1      -9.726   7.059  68.191  1.00  0.00    -0.132 NA 
HETATM   12  H2  UNL     1     -10.222   6.244  67.831  1.00  0.00     0.000 HD 
HETATM   13  C   UNL     1     -11.215   9.705  70.341  1.00  0.00    -0.283 A  
HETATM   14  H1  UNL     1      -9.388   7.598  67.393  1.00  0.00     0.000 HD 
HETATM   15  C   UNL     1     -11.589   7.548  71.381  1.00  0.00    -0.302 A  
HETATM   16  C   UNL     1     -11.733   8.935  71.382  1.00  0.00    -0.385 A  
BRANCH  13  17
HETATM   17  N   UNL     1     -11.308  11.106  70.295  1.00  0.00    -0.475 NA 
HETATM   18  H   UNL     1     -10.479  11.691  70.189  1.00  0.00     0.000 HD 
BRANCH  17  19
HETATM   19  C   UNL     1     -12.642  11.687  70.407  1.00  0.00    -0.132 C  
BRANCH  19  20
HETATM   20  C   UNL     1     -12.611  13.049  71.064  1.00  0.00    -0.386 A  
HETATM   21  C   UNL     1     -13.295  13.238  72.278  1.00  0.00    -0.630 A  
HETATM   22  C   UNL     1     -13.233  14.461  72.946  1.00  0.00    -0.613 A  
HETATM   23  C   UNL     1     -12.480  15.498  72.407  1.00  0.00    -0.401 A  
HETATM   24  C   UNL     1     -11.780  15.329  71.221  1.00  0.00    -0.425 A  
HETATM   25  F   UNL     1     -12.421  16.671  73.052  1.00  0.00    -0.463 F  
HETATM   26  C   UNL     1     -11.834  14.105  70.554  1.00  0.00    -0.352 A  
ENDBRANCH  19  20
ENDBRANCH  17  19
ENDBRANCH  13  17
ENDBRANCH   6   8
ENDBRANCH   3   4
ENDBRANCH   2   3
TORSDOF 6
ENDMDL
MODEL      102
REMARK 921   NORMALIZED FREE ENERGY PREDICTED BY IDOCK:   -4.87 KCAL/MOL
REMARK 922        TOTAL FREE ENERGY PREDICTED BY IDOCK:   -7.28 KCAL/MOL
REMARK 923 INTER-LIGAND FREE ENERGY PREDICTED BY IDOCK:   -6.45 KCAL/MOL
REMARK 924 INTRA-LIGAND FREE ENERGY PREDICTED BY IDOCK:   -0.82 KCAL/MOL
REMARK 927      BINDING AFFINITY PREDICTED BY RF-SCORE:    0.00 PKD
ROOT
HETATM    1  C   UNL     1     -11.390  11.842  64.362  1.00  0.00    -0.395 C  
HETATM    2  C   UNL     1     -12.026  13.133  63.874  1.00  0.00    -0.488 C  
ENDROOT
BRANCH   2   3
HETATM    3  O   UNL     1     -12.151  14.012  65.000  1.00  0.00    -0.375 OA 
BRANCH   3   4
HETATM    4  C   UNL     1     -10.993  14.558  65.452  1.00  0.00    -0.342 C  
HETATM    5  O   UNL     1      -9.992  14.735  64.771  1.00  0.00    -0.229 OA 
HETATM    6  N   UNL     1     -11.217  14.993  66.727  1.00  0.00    -0.339 N  
HETATM    7  H   UNL     1     -11.931  14.528  67.289  1.00  0.00     0.000 HD 
BRANCH   6   8
HETATM    8  C   UNL     1     -10.495  16.065  67.294  1.00  0.00    -0.308 A  
HETATM    9  C   UNL     1      -9.516  15.906  68.290  1.00  0.00    -0.201 A  
HETATM   10  C   UNL     1      -8.886  17.058  68.791  1.00  0.00    -0.244 A  
HETATM   11  N   UNL     1      -9.361  14.689  68.989  1.00  0.00    -0.347 NA 
HETATM   12  H2  UNL     1      -9.230  13.948  68.301  1.00  0.00     0.000 HD 
HETATM   13  C   UNL     1      -9.165  18.337  68.286  1.00  0.00    -0.309 A  
HETATM   14  H1  UNL     1      -8.650  14.573  69.713  1.00  0.00     0.000 HD 
HETATM   15  C   UNL     1     -10.778  17.335  66.781  1.00  0.00    -0.095 A  
HETATM   16  C   UNL     1     -10.088  18.453  67.247  1.00  0.00    -0.369 A  
BRANCH  13  17
HETATM   17  N   UNL     1      -8.455  19.428  68.814  1.00  0.00    -0.369 NA 
HETATM   18  H   UNL     1      -8.931  20.190  69.297  1.00  0.00     0.000 HD 
BRANCH  17  19
HETATM   19  C   UNL     1      -7.005  19.423  68.642  1.00  0.00    -0.315 C  
BRANCH  19  20
HETATM   20  C   UNL     1      -6.610  19.408  67.182  1.00  0.00    -0.207 A  
HETATM   21  C   UNL     1      -7.041  20.455  66.347  1.00  0.00    -0.296 A  
HETATM   22  C   UNL     1      -6.639  20.509  65.012  1.00  0.00    -0.307 A  
HETATM   23  C   UNL     1      -5.799  19.524  64.509  1.00  0.00    -0.271 A  
HETATM   24  C   UNL     1      -5.343  18.493  65.319  1.00  0.00    -0.221 A  
HETATM   25  F   UNL     1      -5.413  19.580  63.227  1.00  0.00    -0.253 F  
HETATM   26  C   UNL     1      -5.737  18.438  66.656  1.00  0.00    -0.174 A  
ENDBRANCH  19  20
ENDBRANCH  17  19
ENDBRANCH  13  17
ENDBRANCH   6   8
ENDBRANCH   3   4
ENDBRANCH   2   3
TORSDOF 6
ENDMDL
MODEL      103
REMARK 921   NORMALIZED FREE ENERGY PREDICTED BY IDOCK:   -4.86 KCAL/MOL
REMARK 922        TOTAL FREE ENERGY PREDICTED BY IDOCK:   -7.28 KCAL/MOL
REMARK 923 INTER-LIGAND FREE ENERGY PREDICTED BY IDOCK:   -6.96 KCAL/MOL
REMARK 924 INTRA-LIGAND FREE ENERGY PREDICTED BY IDOCK:   -0.31 KCAL/MOL
REMARK 927      BINDING AFFINITY PREDICTED BY RF-SCORE:    0.00 PKD
ROOT
HETATM    1  C   UNL     1      -8.646  13.318  67.119  1.00  0.00    -0.197 C  
HETATM    2  C   UNL     1      -9.259  13.794  68.425  1.00  0.00    -0.182 C  
ENDROOT
BRANCH   2   3
HETATM    3  O   UNL     1     -10.624  14.146  68.165  1.00  0.00    -0.237 OA 
BRANCH   3   4
HETATM    4  C   UNL     1     -11.543  13.191  68.458  1.00  0.00    -0.326 C  
HETATM    5  O   UNL     1     -12.132  12.510  67.628  1.00  0.00    -0.436 OA 
HETATM    6  N   UNL     1     -11.561  13.043  69.815  1.00  0.00    -0.470 N  
HETATM    7  H   UNL     1     -11.301  13.837  70.401  1.00  0.00     0.000 HD 
BRANCH   6   8
HETATM    8  C   UNL     1     -11.928  11.829  70.435  1.00  0.00    -0.332 A  
HETATM    9  C   UNL     1     -12.894  11.733  71.452  1.00  0.00    -0.335 A  
HETATM   10  C   UNL     1     -13.150  10.467  72.006  1.00  0.00    -0.511 A  
HETATM   11  N   UNL     1     -13.388  12.877  72.116  1.00  0.00    -0.530 NA 
HETATM   12  H2  UNL     1     -13.742  13.521  71.408  1.00  0.00     0.000 HD 
HETATM   13  C   UNL     1     -12.516   9.307  71.535  1.00  0.00    -0.355 A  
HETATM   14  H1  UNL     1     -14.089  12.807  72.854  1.00  0.00     0.000 HD 
HETATM   15  C   UNL     1     -11.293  10.679  69.956  1.00  0.00    -0.400 A  
HETATM   16  C   UNL     1     -11.618   9.427  70.475  1.00  0.00    -0.291 A  
BRANCH  13  17
HETATM   17  N   UNL     1     -12.867   8.077  72.117  1.00  0.00    -0.475 NA 
HETATM   18  H   UNL     1     -13.555   8.020  72.867  1.00  0.00     0.000 HD 
BRANCH  17  19
HETATM   19  C   UNL     1     -12.203   6.885  71.599  1.00  0.00    -0.361 C  
BRANCH  19  20
HETATM   20  C   UNL     1     -10.852   6.667  72.242  1.00  0.00    -0.260 A  
HETATM   21  C   UNL     1     -10.484   7.457  73.346  1.00  0.00    -0.419 A  
HETATM   22  C   UNL     1      -9.275   7.238  74.006  1.00  0.00    -0.292 A  
HETATM   23  C   UNL     1      -8.432   6.222  73.571  1.00  0.00    -0.121 A  
HETATM   24  C   UNL     1      -8.782   5.415  72.498  1.00  0.00    -0.124 A  
HETATM   25  F   UNL     1      -7.272   6.013  74.208  1.00  0.00    -0.085 F  
HETATM   26  C   UNL     1      -9.994   5.627  71.839  1.00  0.00    -0.223 A  
ENDBRANCH  19  20
ENDBRANCH  17  19
ENDBRANCH  13  17
ENDBRANCH   6   8
ENDBRANCH   3   4
ENDBRANCH   2   3
TORSDOF 6
ENDMDL
MODEL      104
REMARK 921   NORMALIZED FREE ENERGY PREDICTED BY IDOCK:   -4.86 KCAL/MOL
REMARK 922        TOTAL FREE ENERGY PREDICTED BY IDOCK:   -7.26 KCAL/MOL
REMARK 923 INTER-LIGAND FREE ENERGY PREDICTED BY IDOCK:   -6.94 KCAL/MOL
REMARK 924 INTRA-LIGAND FREE ENERGY PREDICTED BY IDOCK:   -0.32 KCAL/MOL
REMARK 927      BINDING AFFINITY PREDICTED BY RF-SCORE:    0.00 PKD
ROOT
HETATM    1  C   UNL     1      -8.899   3.554  65.458  1.00  0.00    -0.127 C  
HETATM    2  C   UNL     1     -10.026   4.506  65.821  1.00  0.00    -0.239 C  
ENDROOT
BRANCH   2   3
HETATM    3  O   UNL     1      -9.478   5.536  66.654  1.00  0.00    -0.134 OA 
BRANCH   3   4
HETATM    4  C   UNL     1     -10.282   6.608  66.870  1.00  0.00    -0.220 C  
HETATM    5  O   UNL     1     -11.384   6.559  67.399  1.00  0.00    -0.304 OA 
HETATM    6  N   UNL     1      -9.572   7.725  66.533  1.00  0.00    -0.275 N  
HETATM    7  H   UNL     1      -8.836   7.648  65.831  1.00  0.00     0.000 HD 
BRANCH   6   8
HETATM    8  C   UNL     1      -9.824   8.982  67.123  1.00  0.00    -0.203 A  
HETATM    9  C   UNL     1     -10.146  10.138  66.390  1.00  0.00    -0.236 A  
HETATM   10  C   UNL     1     -10.348  11.336  67.096  1.00  0.00    -0.244 A  
HETATM   11  N   UNL     1      -9.989  10.194  64.988  1.00  0.00    -0.332 NA 
HETATM   12  H2  UNL     1     -10.507   9.412  64.584  1.00  0.00     0.000 HD 
HETATM   13  C   UNL     1     -10.295  11.392  68.497  1.00  0.00    -0.205 A  
HETATM   14  H1  UNL     1     -10.223  11.032  64.455  1.00  0.00     0.000 HD 
HETATM   15  C   UNL     1      -9.771   9.026  68.519  1.00  0.00    -0.171 A  
HETATM   16  C   UNL     1     -10.045  10.213  69.198  1.00  0.00    -0.226 A  
BRANCH  13  17
HETATM   17  N   UNL     1     -10.555  12.623  69.121  1.00  0.00    -0.439 NA 
HETATM   18  H   UNL     1      -9.810  13.168  69.555  1.00  0.00     0.000 HD 
BRANCH  17  19
HETATM   19  C   UNL     1     -11.938  13.088  69.123  1.00  0.00    -0.271 C  
BRANCH  19  20
HETATM   20  C   UNL     1     -12.237  13.967  70.316  1.00  0.00    -0.430 A  
HETATM   21  C   UNL     1     -12.996  13.444  71.378  1.00  0.00    -0.412 A  
HETATM   22  C   UNL     1     -13.233  14.204  72.524  1.00  0.00    -0.596 A  
HETATM   23  C   UNL     1     -12.707  15.487  72.616  1.00  0.00    -0.411 A  
HETATM   24  C   UNL     1     -11.938  16.018  71.590  1.00  0.00    -0.569 A  
HETATM   25  F   UNL     1     -12.936  16.213  73.718  1.00  0.00    -0.553 F  
HETATM   26  C   UNL     1     -11.693  15.258  70.445  1.00  0.00    -0.345 A  
ENDBRANCH  19  20
ENDBRANCH  17  19
ENDBRANCH  13  17
ENDBRANCH   6   8
ENDBRANCH   3   4
ENDBRANCH   2   3
TORSDOF 6
ENDMDL
MODEL      105
REMARK 921   NORMALIZED FREE ENERGY PREDICTED BY IDOCK:   -4.84 KCAL/MOL
REMARK 922        TOTAL FREE ENERGY PREDICTED BY IDOCK:   -7.25 KCAL/MOL
REMARK 923 INTER-LIGAND FREE ENERGY PREDICTED BY IDOCK:   -6.47 KCAL/MOL
REMARK 924 INTRA-LIGAND FREE ENERGY PREDICTED BY IDOCK:   -0.77 KCAL/MOL
REMARK 927      BINDING AFFINITY PREDICTED BY RF-SCORE:    0.00 PKD
ROOT
HETATM    1  C   UNL     1      -8.366   4.209  70.125  1.00  0.00    -0.083 C  
HETATM    2  C   UNL     1      -9.875   4.134  69.963  1.00  0.00    -0.175 C  
ENDROOT
BRANCH   2   3
HETATM    3  O   UNL     1     -10.430   5.357  70.463  1.00  0.00    -0.260 OA 
BRANCH   3   4
HETATM    4  C   UNL     1     -10.422   6.403  69.598  1.00  0.00    -0.227 C  
HETATM    5  O   UNL     1     -10.944   6.399  68.491  1.00  0.00    -0.290 OA 
HETATM    6  N   UNL     1      -9.871   7.469  70.251  1.00  0.00    -0.183 N  
HETATM    7  H   UNL     1      -9.202   7.295  71.002  1.00  0.00     0.000 HD 
BRANCH   6   8
HETATM    8  C   UNL     1     -10.194   8.803  69.922  1.00  0.00    -0.200 A  
HETATM    9  C   UNL     1     -11.369   9.448  70.346  1.00  0.00    -0.248 A  
HETATM   10  C   UNL     1     -11.587  10.771  69.928  1.00  0.00    -0.410 A  
HETATM   11  N   UNL     1     -12.442   8.732  70.920  1.00  0.00    -0.492 NA 
HETATM   12  H2  UNL     1     -12.076   8.198  71.708  1.00  0.00     0.000 HD 
HETATM   13  C   UNL     1     -10.647  11.472  69.157  1.00  0.00    -0.136 A  
HETATM   14  H1  UNL     1     -13.295   9.200  71.229  1.00  0.00     0.000 HD 
HETATM   15  C   UNL     1      -9.249   9.492  69.157  1.00  0.00    -0.163 A  
HETATM   16  C   UNL     1      -9.458  10.827  68.815  1.00  0.00    -0.187 A  
BRANCH  13  17
HETATM   17  N   UNL     1     -10.927  12.807  68.823  1.00  0.00    -0.247 NA 
HETATM   18  H   UNL     1     -11.594  13.362  69.360  1.00  0.00     0.000 HD 
BRANCH  17  19
HETATM   19  C   UNL     1     -10.221  13.366  67.674  1.00  0.00    -0.228 C  
BRANCH  19  20
HETATM   20  C   UNL     1     -10.874  12.977  66.367  1.00  0.00    -0.294 A  
HETATM   21  C   UNL     1     -10.233  12.041  65.534  1.00  0.00    -0.290 A  
HETATM   22  C   UNL     1     -10.838  11.608  64.354  1.00  0.00    -0.399 A  
HETATM   23  C   UNL     1     -12.089  12.102  64.005  1.00  0.00    -0.443 A  
HETATM   24  C   UNL     1     -12.751  13.009  64.820  1.00  0.00    -0.409 A  
HETATM   25  F   UNL     1     -12.668  11.683  62.872  1.00  0.00    -0.622 F  
HETATM   26  C   UNL     1     -12.152  13.440  66.004  1.00  0.00    -0.487 A  
ENDBRANCH  19  20
ENDBRANCH  17  19
ENDBRANCH  13  17
ENDBRANCH   6   8
ENDBRANCH   3   4
ENDBRANCH   2   3
TORSDOF 6
ENDMDL
MODEL      106
REMARK 921   NORMALIZED FREE ENERGY PREDICTED BY IDOCK:   -4.82 KCAL/MOL
REMARK 922        TOTAL FREE ENERGY PREDICTED BY IDOCK:   -7.22 KCAL/MOL
REMARK 923 INTER-LIGAND FREE ENERGY PREDICTED BY IDOCK:   -6.49 KCAL/MOL
REMARK 924 INTRA-LIGAND FREE ENERGY PREDICTED BY IDOCK:   -0.72 KCAL/MOL
REMARK 927      BINDING AFFINITY PREDICTED BY RF-SCORE:    0.00 PKD
ROOT
HETATM    1  C   UNL     1      -8.194   4.159  66.430  1.00  0.00    -0.101 C  
HETATM    2  C   UNL     1      -9.054   5.045  65.544  1.00  0.00    -0.158 C  
ENDROOT
BRANCH   2   3
HETATM    3  O   UNL     1      -8.291   6.216  65.225  1.00  0.00    -0.145 OA 
BRANCH   3   4
HETATM    4  C   UNL     1      -8.380   7.237  66.115  1.00  0.00    -0.133 C  
HETATM    5  O   UNL     1      -7.445   7.673  66.773  1.00  0.00    -0.089 OA 
HETATM    6  N   UNL     1      -9.639   7.758  66.015  1.00  0.00    -0.433 N  
HETATM    7  H   UNL     1     -10.400   7.153  65.705  1.00  0.00     0.000 HD 
BRANCH   6   8
HETATM    8  C   UNL     1      -9.922   9.105  66.327  1.00  0.00    -0.282 A  
HETATM    9  C   UNL     1     -10.402   9.531  67.577  1.00  0.00    -0.248 A  
HETATM   10  C   UNL     1     -10.670  10.900  67.753  1.00  0.00    -0.279 A  
HETATM   11  N   UNL     1     -10.886   8.616  68.538  1.00  0.00    -0.441 NA 
HETATM   12  H2  UNL     1     -10.157   7.922  68.703  1.00  0.00     0.000 HD 
HETATM   13  C   UNL     1     -10.419  11.842  66.745  1.00  0.00    -0.221 A  
HETATM   14  H1  UNL     1     -11.234   8.926  69.446  1.00  0.00     0.000 HD 
HETATM   15  C   UNL     1      -9.664  10.036  65.316  1.00  0.00    -0.373 A  
HETATM   16  C   UNL     1      -9.873  11.395  65.541  1.00  0.00    -0.271 A  
BRANCH  13  17
HETATM   17  N   UNL     1     -10.673  13.195  67.023  1.00  0.00    -0.261 NA 
HETATM   18  H   UNL     1      -9.979  13.918  66.832  1.00  0.00     0.000 HD 
BRANCH  17  19
HETATM   19  C   UNL     1     -11.974  13.522  67.597  1.00  0.00    -0.336 C  
BRANCH  19  20
HETATM   20  C   UNL     1     -11.847  14.115  68.983  1.00  0.00    -0.384 A  
HETATM   21  C   UNL     1     -11.409  15.445  69.119  1.00  0.00    -0.323 A  
HETATM   22  C   UNL     1     -11.345  16.046  70.377  1.00  0.00    -0.405 A  
HETATM   23  C   UNL     1     -11.726  15.324  71.501  1.00  0.00    -0.391 A  
HETATM   24  C   UNL     1     -12.182  14.018  71.390  1.00  0.00    -0.349 A  
HETATM   25  F   UNL     1     -11.665  15.904  72.707  1.00  0.00    -0.484 F  
HETATM   26  C   UNL     1     -12.254  13.415  70.134  1.00  0.00    -0.385 A  
ENDBRANCH  19  20
ENDBRANCH  17  19
ENDBRANCH  13  17
ENDBRANCH   6   8
ENDBRANCH   3   4
ENDBRANCH   2   3
TORSDOF 6
ENDMDL
MODEL      107
REMARK 921   NORMALIZED FREE ENERGY PREDICTED BY IDOCK:   -4.81 KCAL/MOL
REMARK 922        TOTAL FREE ENERGY PREDICTED BY IDOCK:   -7.20 KCAL/MOL
REMARK 923 INTER-LIGAND FREE ENERGY PREDICTED BY IDOCK:   -6.85 KCAL/MOL
REMARK 924 INTRA-LIGAND FREE ENERGY PREDICTED BY IDOCK:   -0.35 KCAL/MOL
REMARK 927      BINDING AFFINITY PREDICTED BY RF-SCORE:    0.00 PKD
ROOT
HETATM    1  C   UNL     1      -6.848   8.990  64.250  1.00  0.00    -0.083 C  
HETATM    2  C   UNL     1      -8.213   8.529  64.735  1.00  0.00    -0.162 C  
ENDROOT
BRANCH   2   3
HETATM    3  O   UNL     1      -9.173   9.519  64.344  1.00  0.00    -0.231 OA 
BRANCH   3   4
HETATM    4  C   UNL     1      -9.909  10.055  65.351  1.00  0.00    -0.314 C  
HETATM    5  O   UNL     1     -10.215   9.470  66.381  1.00  0.00    -0.264 OA 
HETATM    6  N   UNL     1     -10.096  11.377  65.062  1.00  0.00    -0.259 N  
HETATM    7  H   UNL     1     -10.094  11.673  64.085  1.00  0.00     0.000 HD 
BRANCH   6   8
HETATM    8  C   UNL     1     -10.291  12.347  66.068  1.00  0.00    -0.251 A  
HETATM    9  C   UNL     1     -11.541  12.916  66.371  1.00  0.00    -0.371 A  
HETATM   10  C   UNL     1     -11.598  13.892  67.379  1.00  0.00    -0.398 A  
HETATM   11  N   UNL     1     -12.655  12.754  65.519  1.00  0.00    -0.610 NA 
HETATM   12  H2  UNL     1     -12.794  11.753  65.373  1.00  0.00     0.000 HD 
HETATM   13  C   UNL     1     -10.466  14.265  68.120  1.00  0.00    -0.246 A  
HETATM   14  H1  UNL     1     -13.563  13.166  65.739  1.00  0.00     0.000 HD 
HETATM   15  C   UNL     1      -9.157  12.708  66.801  1.00  0.00    -0.214 A  
HETATM   16  C   UNL     1      -9.256  13.628  67.844  1.00  0.00    -0.203 A  
BRANCH  13  17
HETATM   17  N   UNL     1     -10.624  15.216  69.141  1.00  0.00    -0.246 NA 
HETATM   18  H   UNL     1     -11.367  15.133  69.835  1.00  0.00     0.000 HD 
BRANCH  17  19
HETATM   19  C   UNL     1      -9.679  16.327  69.165  1.00  0.00    -0.265 C  
BRANCH  19  20
HETATM   20  C   UNL     1      -9.977  17.346  68.089  1.00  0.00    -0.308 A  
HETATM   21  C   UNL     1      -9.977  16.939  66.742  1.00  0.00    -0.291 A  
HETATM   22  C   UNL     1     -10.314  17.836  65.728  1.00  0.00    -0.190 A  
HETATM   23  C   UNL     1     -10.661  19.141  66.056  1.00  0.00    -0.442 A  
HETATM   24  C   UNL     1     -10.689  19.561  67.378  1.00  0.00    -0.589 A  
HETATM   25  F   UNL     1     -10.986  19.999  65.080  1.00  0.00    -0.559 F  
HETATM   26  C   UNL     1     -10.359  18.666  68.396  1.00  0.00    -0.356 A  
ENDBRANCH  19  20
ENDBRANCH  17  19
ENDBRANCH  13  17
ENDBRANCH   6   8
ENDBRANCH   3   4
ENDBRANCH   2   3
TORSDOF 6
ENDMDL
MODEL      108
REMARK 921   NORMALIZED FREE ENERGY PREDICTED BY IDOCK:   -4.79 KCAL/MOL
REMARK 922        TOTAL FREE ENERGY PREDICTED BY IDOCK:   -7.18 KCAL/MOL
REMARK 923 INTER-LIGAND FREE ENERGY PREDICTED BY IDOCK:   -6.56 KCAL/MOL
REMARK 924 INTRA-LIGAND FREE ENERGY PREDICTED BY IDOCK:   -0.61 KCAL/MOL
REMARK 927      BINDING AFFINITY PREDICTED BY RF-SCORE:    0.00 PKD
ROOT
HETATM    1  C   UNL     1     -10.983   4.338  73.926  1.00  0.00    -0.304 C  
HETATM    2  C   UNL     1     -10.800   5.168  72.667  1.00  0.00    -0.247 C  
ENDROOT
BRANCH   2   3
HETATM    3  O   UNL     1     -11.966   5.986  72.509  1.00  0.00    -0.258 OA 
BRANCH   3   4
HETATM    4  C   UNL     1     -11.735   7.290  72.212  1.00  0.00    -0.265 C  
HETATM    5  O   UNL     1     -11.203   8.095  72.965  1.00  0.00    -0.338 OA 
HETATM    6  N   UNL     1     -12.061   7.474  70.898  1.00  0.00    -0.455 N  
HETATM    7  H   UNL     1     -12.767   6.870  70.476  1.00  0.00     0.000 HD 
BRANCH   6   8
HETATM    8  C   UNL     1     -11.455   8.472  70.105  1.00  0.00     0.003 A  
HETATM    9  C   UNL     1     -11.897   9.806  70.058  1.00  0.00    -0.008 A  
HETATM   10  C   UNL     1     -11.223  10.698  69.207  1.00  0.00    -0.332 A  
HETATM   11  N   UNL     1     -13.141  10.195  70.601  1.00  0.00    -0.585 NA 
HETATM   12  H2  UNL     1     -13.165   9.891  71.575  1.00  0.00     0.000 HD 
HETATM   13  C   UNL     1     -10.101  10.309  68.459  1.00  0.00    -0.165 A  
HETATM   14  H1  UNL     1     -13.461  11.163  70.568  1.00  0.00     0.000 HD 
HETATM   15  C   UNL     1     -10.337   8.074  69.367  1.00  0.00    -0.217 A  
HETATM   16  C   UNL     1      -9.644   8.997  68.585  1.00  0.00    -0.158 A  
BRANCH  13  17
HETATM   17  N   UNL     1      -9.461  11.278  67.670  1.00  0.00    -0.165 NA 
HETATM   18  H   UNL     1      -8.872  11.017  66.879  1.00  0.00     0.000 HD 
BRANCH  17  19
HETATM   19  C   UNL     1      -9.675  12.676  68.031  1.00  0.00    -0.215 C  
BRANCH  19  20
HETATM   20  C   UNL     1     -10.492  13.410  66.991  1.00  0.00    -0.257 A  
HETATM   21  C   UNL     1      -9.827  14.115  65.972  1.00  0.00    -0.329 A  
HETATM   22  C   UNL     1     -10.548  14.746  64.958  1.00  0.00    -0.452 A  
HETATM   23  C   UNL     1     -11.936  14.668  64.954  1.00  0.00    -0.400 A  
HETATM   24  C   UNL     1     -12.614  13.960  65.936  1.00  0.00    -0.498 A  
HETATM   25  F   UNL     1     -12.625  15.274  63.978  1.00  0.00    -0.473 F  
HETATM   26  C   UNL     1     -11.896  13.322  66.949  1.00  0.00    -0.446 A  
ENDBRANCH  19  20
ENDBRANCH  17  19
ENDBRANCH  13  17
ENDBRANCH   6   8
ENDBRANCH   3   4
ENDBRANCH   2   3
TORSDOF 6
ENDMDL
MODEL      109
REMARK 921   NORMALIZED FREE ENERGY PREDICTED BY IDOCK:   -4.79 KCAL/MOL
REMARK 922        TOTAL FREE ENERGY PREDICTED BY IDOCK:   -7.18 KCAL/MOL
REMARK 923 INTER-LIGAND FREE ENERGY PREDICTED BY IDOCK:   -6.35 KCAL/MOL
REMARK 924 INTRA-LIGAND FREE ENERGY PREDICTED BY IDOCK:   -0.83 KCAL/MOL
REMARK 927      BINDING AFFINITY PREDICTED BY RF-SCORE:    0.00 PKD
ROOT
HETATM    1  C   UNL     1     -12.663  12.009  63.310  1.00  0.00    -0.437 C  
HETATM    2  C   UNL     1     -11.870  13.228  63.752  1.00  0.00    -0.467 C  
ENDROOT
BRANCH   2   3
HETATM    3  O   UNL     1     -10.581  12.777  64.187  1.00  0.00    -0.371 OA 
BRANCH   3   4
HETATM    4  C   UNL     1     -10.480  12.470  65.506  1.00  0.00    -0.279 C  
HETATM    5  O   UNL     1     -11.393  12.556  66.315  1.00  0.00    -0.302 OA 
HETATM    6  N   UNL     1      -9.245  11.918  65.703  1.00  0.00    -0.412 N  
HETATM    7  H   UNL     1      -8.482  12.182  65.079  1.00  0.00     0.000 HD 
BRANCH   6   8
HETATM    8  C   UNL     1      -8.991  10.996  66.740  1.00  0.00    -0.157 A  
HETATM    9  C   UNL     1      -9.129   9.604  66.598  1.00  0.00    -0.148 A  
HETATM   10  C   UNL     1      -8.869   8.795  67.717  1.00  0.00    -0.137 A  
HETATM   11  N   UNL     1      -9.784   9.034  65.485  1.00  0.00    -0.461 NA 
HETATM   12  H2  UNL     1      -9.335   9.392  64.642  1.00  0.00     0.000 HD 
HETATM   13  C   UNL     1      -8.426   9.330  68.936  1.00  0.00    -0.129 A  
HETATM   14  H1  UNL     1      -9.884   8.024  65.382  1.00  0.00     0.000 HD 
HETATM   15  C   UNL     1      -8.546  11.540  67.949  1.00  0.00    -0.143 A  
HETATM   16  C   UNL     1      -8.228  10.708  69.021  1.00  0.00    -0.151 A  
BRANCH  13  17
HETATM   17  N   UNL     1      -8.146   8.442  69.988  1.00  0.00    -0.112 NA 
HETATM   18  H   UNL     1      -7.607   7.589  69.836  1.00  0.00     0.000 HD 
BRANCH  17  19
HETATM   19  C   UNL     1      -8.661   8.793  71.308  1.00  0.00    -0.215 C  
BRANCH  19  20
HETATM   20  C   UNL     1     -10.152   8.560  71.413  1.00  0.00    -0.302 A  
HETATM   21  C   UNL     1     -11.023   9.661  71.326  1.00  0.00    -0.399 A  
HETATM   22  C   UNL     1     -12.406   9.476  71.351  1.00  0.00    -0.451 A  
HETATM   23  C   UNL     1     -12.923   8.190  71.454  1.00  0.00    -0.242 A  
HETATM   24  C   UNL     1     -12.084   7.087  71.520  1.00  0.00    -0.392 A  
HETATM   25  F   UNL     1     -14.251   8.016  71.476  1.00  0.00    -0.403 F  
HETATM   26  C   UNL     1     -10.701   7.267  71.488  1.00  0.00    -0.241 A  
ENDBRANCH  19  20
ENDBRANCH  17  19
ENDBRANCH  13  17
ENDBRANCH   6   8
ENDBRANCH   3   4
ENDBRANCH   2   3
TORSDOF 6
ENDMDL
MODEL      110
REMARK 921   NORMALIZED FREE ENERGY PREDICTED BY IDOCK:   -4.75 KCAL/MOL
REMARK 922        TOTAL FREE ENERGY PREDICTED BY IDOCK:   -7.13 KCAL/MOL
REMARK 923 INTER-LIGAND FREE ENERGY PREDICTED BY IDOCK:   -6.44 KCAL/MOL
REMARK 924 INTRA-LIGAND FREE ENERGY PREDICTED BY IDOCK:   -0.69 KCAL/MOL
REMARK 927      BINDING AFFINITY PREDICTED BY RF-SCORE:    0.00 PKD
ROOT
HETATM    1  C   UNL     1      -9.802   6.719  66.681  1.00  0.00    -0.214 C  
HETATM    2  C   UNL     1      -9.479   8.204  66.650  1.00  0.00    -0.213 C  
ENDROOT
BRANCH   2   3
HETATM    3  O   UNL     1     -10.417   8.873  67.502  1.00  0.00    -0.252 OA 
BRANCH   3   4
HETATM    4  C   UNL     1     -10.286  10.222  67.576  1.00  0.00    -0.229 C  
HETATM    5  O   UNL     1      -9.359  10.806  68.121  1.00  0.00    -0.146 OA 
HETATM    6  N   UNL     1     -11.278  10.772  66.814  1.00  0.00    -0.091 N  
HETATM    7  H   UNL     1     -12.146  10.250  66.685  1.00  0.00     0.000 HD 
BRANCH   6   8
HETATM    8  C   UNL     1     -11.143  12.035  66.201  1.00  0.00    -0.322 A  
HETATM    9  C   UNL     1     -10.272  12.292  65.127  1.00  0.00    -0.279 A  
HETATM   10  C   UNL     1     -10.212  13.601  64.622  1.00  0.00    -0.338 A  
HETATM   11  N   UNL     1      -9.273  11.370  64.746  1.00  0.00    -0.398 NA 
HETATM   12  H2  UNL     1      -9.726  10.472  64.574  1.00  0.00     0.000 HD 
HETATM   13  C   UNL     1     -11.029  14.629  65.116  1.00  0.00    -0.386 A  
HETATM   14  H1  UNL     1      -8.641  11.556  63.967  1.00  0.00     0.000 HD 
HETATM   15  C   UNL     1     -11.965  13.050  66.699  1.00  0.00    -0.453 A  
HETATM   16  C   UNL     1     -11.935  14.323  66.132  1.00  0.00    -0.422 A  
BRANCH  13  17
HETATM   17  N   UNL     1     -10.935  15.897  64.520  1.00  0.00    -0.871 NA 
HETATM   18  H   UNL     1     -10.821  16.005  63.512  1.00  0.00     0.000 HD 
BRANCH  17  19
HETATM   19  C   UNL     1     -11.007  17.055  65.406  1.00  0.00     0.006 C  
BRANCH  19  20
HETATM   20  C   UNL     1      -9.951  17.005  66.488  1.00  0.00    -0.318 A  
HETATM   21  C   UNL     1     -10.353  17.003  67.836  1.00  0.00    -0.338 A  
HETATM   22  C   UNL     1      -9.410  16.889  68.858  1.00  0.00    -0.229 A  
HETATM   23  C   UNL     1      -8.064  16.768  68.537  1.00  0.00    -0.241 A  
HETATM   24  C   UNL     1      -7.644  16.746  67.214  1.00  0.00    -0.204 A  
HETATM   25  F   UNL     1      -7.161  16.658  69.521  1.00  0.00    -0.227 F  
HETATM   26  C   UNL     1      -8.585  16.853  66.189  1.00  0.00    -0.277 A  
ENDBRANCH  19  20
ENDBRANCH  17  19
ENDBRANCH  13  17
ENDBRANCH   6   8
ENDBRANCH   3   4
ENDBRANCH   2   3
TORSDOF 6
ENDMDL
MODEL      111
REMARK 921   NORMALIZED FREE ENERGY PREDICTED BY IDOCK:   -4.75 KCAL/MOL
REMARK 922        TOTAL FREE ENERGY PREDICTED BY IDOCK:   -7.13 KCAL/MOL
REMARK 923 INTER-LIGAND FREE ENERGY PREDICTED BY IDOCK:   -6.36 KCAL/MOL
REMARK 924 INTRA-LIGAND FREE ENERGY PREDICTED BY IDOCK:   -0.77 KCAL/MOL
REMARK 927      BINDING AFFINITY PREDICTED BY RF-SCORE:    0.00 PKD
ROOT
HETATM    1  C   UNL     1      -8.166   5.437  66.731  1.00  0.00    -0.108 C  
HETATM    2  C   UNL     1      -8.715   6.088  65.473  1.00  0.00    -0.114 C  
ENDROOT
BRANCH   2   3
HETATM    3  O   UNL     1      -7.933   7.260  65.208  1.00  0.00    -0.114 OA 
BRANCH   3   4
HETATM    4  C   UNL     1      -8.238   8.352  65.955  1.00  0.00    -0.123 C  
HETATM    5  O   UNL     1      -7.417   9.075  66.503  1.00  0.00    -0.087 OA 
HETATM    6  N   UNL     1      -9.583   8.559  65.844  1.00  0.00    -0.445 N  
HETATM    7  H   UNL     1     -10.191   7.762  65.655  1.00  0.00     0.000 HD 
BRANCH   6   8
HETATM    8  C   UNL     1     -10.161   9.840  65.983  1.00  0.00    -0.251 A  
HETATM    9  C   UNL     1     -10.719  10.318  67.181  1.00  0.00    -0.241 A  
HETATM   10  C   UNL     1     -11.287  11.603  67.181  1.00  0.00    -0.373 A  
HETATM   11  N   UNL     1     -10.981   9.460  68.271  1.00  0.00    -0.471 NA 
HETATM   12  H2  UNL     1     -10.114   8.974  68.502  1.00  0.00     0.000 HD 
HETATM   13  C   UNL     1     -11.258  12.430  66.047  1.00  0.00    -0.335 A  
HETATM   14  H1  UNL     1     -11.386   9.807  69.141  1.00  0.00     0.000 HD 
HETATM   15  C   UNL     1     -10.123  10.656  64.848  1.00  0.00    -0.402 A  
HETATM   16  C   UNL     1     -10.630  11.953  64.896  1.00  0.00    -0.333 A  
BRANCH  13  17
HETATM   17  N   UNL     1     -11.809  13.717  66.151  1.00  0.00    -0.376 NA 
HETATM   18  H   UNL     1     -12.183  14.204  65.336  1.00  0.00     0.000 HD 
BRANCH  17  19
HETATM   19  C   UNL     1     -11.822  14.330  67.476  1.00  0.00    -0.395 C  
BRANCH  19  20
HETATM   20  C   UNL     1     -10.964  15.574  67.532  1.00  0.00    -0.316 A  
HETATM   21  C   UNL     1     -10.255  15.967  66.383  1.00  0.00    -0.315 A  
HETATM   22  C   UNL     1      -9.508  17.146  66.378  1.00  0.00    -0.290 A  
HETATM   23  C   UNL     1      -9.474  17.939  67.519  1.00  0.00    -0.258 A  
HETATM   24  C   UNL     1     -10.182  17.583  68.657  1.00  0.00    -0.373 A  
HETATM   25  F   UNL     1      -8.757  19.071  67.510  1.00  0.00    -0.290 F  
HETATM   26  C   UNL     1     -10.936  16.409  68.664  1.00  0.00    -0.345 A  
ENDBRANCH  19  20
ENDBRANCH  17  19
ENDBRANCH  13  17
ENDBRANCH   6   8
ENDBRANCH   3   4
ENDBRANCH   2   3
TORSDOF 6
ENDMDL
MODEL      112
REMARK 921   NORMALIZED FREE ENERGY PREDICTED BY IDOCK:   -4.75 KCAL/MOL
REMARK 922        TOTAL FREE ENERGY PREDICTED BY IDOCK:   -7.12 KCAL/MOL
REMARK 923 INTER-LIGAND FREE ENERGY PREDICTED BY IDOCK:   -6.35 KCAL/MOL
REMARK 924 INTRA-LIGAND FREE ENERGY PREDICTED BY IDOCK:   -0.77 KCAL/MOL
REMARK 927      BINDING AFFINITY PREDICTED BY RF-SCORE:    0.00 PKD
ROOT
HETATM    1  C   UNL     1      -9.705  18.861  68.480  1.00  0.00    -0.441 C  
HETATM    2  C   UNL     1     -10.549  17.611  68.660  1.00  0.00    -0.244 C  
ENDROOT
BRANCH   2   3
HETATM    3  O   UNL     1     -10.345  16.776  67.512  1.00  0.00    -0.286 OA 
BRANCH   3   4
HETATM    4  C   UNL     1     -10.187  15.453  67.768  1.00  0.00    -0.241 C  
HETATM    5  O   UNL     1      -9.121  14.914  68.033  1.00  0.00    -0.174 OA 
HETATM    6  N   UNL     1     -11.434  14.896  67.822  1.00  0.00    -0.330 N  
HETATM    7  H   UNL     1     -12.190  15.327  67.289  1.00  0.00     0.000 HD 
BRANCH   6   8
HETATM    8  C   UNL     1     -11.711  13.744  68.589  1.00  0.00    -0.356 A  
HETATM    9  C   UNL     1     -12.173  13.784  69.916  1.00  0.00    -0.321 A  
HETATM   10  C   UNL     1     -12.387  12.564  70.580  1.00  0.00    -0.369 A  
HETATM   11  N   UNL     1     -12.151  14.975  70.674  1.00  0.00    -0.295 NA 
HETATM   12  H2  UNL     1     -12.652  15.691  70.146  1.00  0.00     0.000 HD 
HETATM   13  C   UNL     1     -12.208  11.328  69.942  1.00  0.00    -0.288 A  
HETATM   14  H1  UNL     1     -12.488  15.004  71.637  1.00  0.00     0.000 HD 
HETATM   15  C   UNL     1     -11.532  12.518  67.942  1.00  0.00    -0.369 A  
HETATM   16  C   UNL     1     -11.819  11.324  68.602  1.00  0.00    -0.369 A  
BRANCH  13  17
HETATM   17  N   UNL     1     -12.489  10.159  70.668  1.00  0.00    -0.424 NA 
HETATM   18  H   UNL     1     -13.378   9.669  70.565  1.00  0.00     0.000 HD 
BRANCH  17  19
HETATM   19  C   UNL     1     -11.454   9.677  71.577  1.00  0.00    -0.369 C  
BRANCH  19  20
HETATM   20  C   UNL     1     -10.660   8.538  70.975  1.00  0.00    -0.267 A  
HETATM   21  C   UNL     1      -9.300   8.736  70.675  1.00  0.00    -0.234 A  
HETATM   22  C   UNL     1      -8.522   7.689  70.183  1.00  0.00    -0.138 A  
HETATM   23  C   UNL     1      -9.096   6.437  69.996  1.00  0.00    -0.150 A  
HETATM   24  C   UNL     1     -10.430   6.211  70.305  1.00  0.00    -0.288 A  
HETATM   25  F   UNL     1      -8.345   5.433  69.525  1.00  0.00    -0.094 F  
HETATM   26  C   UNL     1     -11.211   7.255  70.803  1.00  0.00    -0.300 A  
ENDBRANCH  19  20
ENDBRANCH  17  19
ENDBRANCH  13  17
ENDBRANCH   6   8
ENDBRANCH   3   4
ENDBRANCH   2   3
TORSDOF 6
ENDMDL
MODEL      113
REMARK 921   NORMALIZED FREE ENERGY PREDICTED BY IDOCK:   -4.70 KCAL/MOL
REMARK 922        TOTAL FREE ENERGY PREDICTED BY IDOCK:   -7.06 KCAL/MOL
REMARK 923 INTER-LIGAND FREE ENERGY PREDICTED BY IDOCK:   -6.35 KCAL/MOL
REMARK 924 INTRA-LIGAND FREE ENERGY PREDICTED BY IDOCK:   -0.71 KCAL/MOL
REMARK 927      BINDING AFFINITY PREDICTED BY RF-SCORE:    0.00 PKD
ROOT
HETATM    1  C   UNL     1      -8.225   7.365  62.395  1.00  0.00    -0.084 C  
HETATM    2  C   UNL     1      -8.021   8.604  63.252  1.00  0.00    -0.163 C  
ENDROOT
BRANCH   2   3
HETATM    3  O   UNL     1      -8.091   8.201  64.626  1.00  0.00    -0.145 OA 
BRANCH   3   4
HETATM    4  C   UNL     1      -8.431   9.176  65.508  1.00  0.00    -0.147 C  
HETATM    5  O   UNL     1      -7.666   9.686  66.315  1.00  0.00    -0.100 OA 
HETATM    6  N   UNL     1      -9.708   9.564  65.215  1.00  0.00    -0.436 N  
HETATM    7  H   UNL     1     -10.339   8.892  64.777  1.00  0.00     0.000 HD 
BRANCH   6   8
HETATM    8  C   UNL     1     -10.183  10.862  65.500  1.00  0.00    -0.271 A  
HETATM    9  C   UNL     1     -10.036  11.954  64.627  1.00  0.00    -0.269 A  
HETATM   10  C   UNL     1     -10.532  13.203  65.039  1.00  0.00    -0.358 A  
HETATM   11  N   UNL     1      -9.173  11.901  63.511  1.00  0.00    -0.552 NA 
HETATM   12  H2  UNL     1      -9.434  11.088  62.953  1.00  0.00     0.000 HD 
HETATM   13  C   UNL     1     -11.211  13.369  66.256  1.00  0.00    -0.305 A  
HETATM   14  H1  UNL     1      -9.067  12.695  62.877  1.00  0.00     0.000 HD 
HETATM   15  C   UNL     1     -10.861  11.015  66.713  1.00  0.00    -0.307 A  
HETATM   16  C   UNL     1     -11.404  12.250  67.065  1.00  0.00    -0.395 A  
BRANCH  13  17
HETATM   17  N   UNL     1     -11.713  14.644  66.567  1.00  0.00    -0.356 NA 
HETATM   18  H   UNL     1     -12.376  15.119  65.954  1.00  0.00     0.000 HD 
BRANCH  17  19
HETATM   19  C   UNL     1     -11.243  15.259  67.804  1.00  0.00    -0.326 C  
BRANCH  19  20
HETATM   20  C   UNL     1     -10.417  16.498  67.541  1.00  0.00    -0.310 A  
HETATM   21  C   UNL     1     -10.625  17.641  68.334  1.00  0.00    -0.318 A  
HETATM   22  C   UNL     1      -9.835  18.778  68.164  1.00  0.00    -0.396 A  
HETATM   23  C   UNL     1      -8.828  18.774  67.206  1.00  0.00    -0.274 A  
HETATM   24  C   UNL     1      -8.588  17.652  66.426  1.00  0.00    -0.269 A  
HETATM   25  F   UNL     1      -8.069  19.867  67.047  1.00  0.00    -0.289 F  
HETATM   26  C   UNL     1      -9.373  16.511  66.598  1.00  0.00    -0.279 A  
ENDBRANCH  19  20
ENDBRANCH  17  19
ENDBRANCH  13  17
ENDBRANCH   6   8
ENDBRANCH   3   4
ENDBRANCH   2   3
TORSDOF 6
ENDMDL
MODEL      114
REMARK 921   NORMALIZED FREE ENERGY PREDICTED BY IDOCK:   -4.70 KCAL/MOL
REMARK 922        TOTAL FREE ENERGY PREDICTED BY IDOCK:   -7.05 KCAL/MOL
REMARK 923 INTER-LIGAND FREE ENERGY PREDICTED BY IDOCK:   -6.48 KCAL/MOL
REMARK 924 INTRA-LIGAND FREE ENERGY PREDICTED BY IDOCK:   -0.57 KCAL/MOL
REMARK 927      BINDING AFFINITY PREDICTED BY RF-SCORE:    0.00 PKD
ROOT
HETATM    1  C   UNL     1      -9.040   4.031  63.686  1.00  0.00    -0.128 C  
HETATM    2  C   UNL     1      -9.293   4.430  65.130  1.00  0.00    -0.165 C  
ENDROOT
BRANCH   2   3
HETATM    3  O   UNL     1      -8.113   5.084  65.616  1.00  0.00    -0.109 OA 
BRANCH   3   4
HETATM    4  C   UNL     1      -8.151   5.478  66.915  1.00  0.00    -0.101 C  
HETATM    5  O   UNL     1      -7.582   6.464  67.363  1.00  0.00    -0.096 OA 
HETATM    6  N   UNL     1      -9.045   4.671  67.560  1.00  0.00    -0.116 N  
HETATM    7  H   UNL     1      -9.202   3.727  67.206  1.00  0.00     0.000 HD 
BRANCH   6   8
HETATM    8  C   UNL     1      -9.757   5.098  68.701  1.00  0.00    -0.151 A  
HETATM    9  C   UNL     1     -10.934   5.866  68.644  1.00  0.00    -0.215 A  
HETATM   10  C   UNL     1     -11.534   6.250  69.854  1.00  0.00    -0.459 A  
HETATM   11  N   UNL     1     -11.355   6.489  67.449  1.00  0.00    -0.758 NA 
HETATM   12  H2  UNL     1     -11.413   5.772  66.726  1.00  0.00     0.000 HD 
HETATM   13  C   UNL     1     -11.028   5.843  71.098  1.00  0.00    -0.260 A  
HETATM   14  H1  UNL     1     -12.209   7.046  67.407  1.00  0.00     0.000 HD 
HETATM   15  C   UNL     1      -9.245   4.685  69.934  1.00  0.00    -0.188 A  
HETATM   16  C   UNL     1      -9.901   5.021  71.118  1.00  0.00    -0.254 A  
BRANCH  13  17
HETATM   17  N   UNL     1     -11.718   6.236  72.256  1.00  0.00    -0.369 NA 
HETATM   18  H   UNL     1     -12.505   5.695  72.617  1.00  0.00     0.000 HD 
BRANCH  17  19
HETATM   19  C   UNL     1     -11.262   7.452  72.922  1.00  0.00    -0.319 C  
BRANCH  19  20
HETATM   20  C   UNL     1     -11.593   8.692  72.122  1.00  0.00    -0.440 A  
HETATM   21  C   UNL     1     -10.623   9.225  71.253  1.00  0.00    -0.417 A  
HETATM   22  C   UNL     1     -10.917  10.327  70.450  1.00  0.00    -0.365 A  
HETATM   23  C   UNL     1     -12.184  10.896  70.505  1.00  0.00    -0.367 A  
HETATM   24  C   UNL     1     -13.165  10.375  71.337  1.00  0.00    -0.459 A  
HETATM   25  F   UNL     1     -12.464  11.953  69.731  1.00  0.00    -0.258 F  
HETATM   26  C   UNL     1     -12.876   9.269  72.137  1.00  0.00    -0.485 A  
ENDBRANCH  19  20
ENDBRANCH  17  19
ENDBRANCH  13  17
ENDBRANCH   6   8
ENDBRANCH   3   4
ENDBRANCH   2   3
TORSDOF 6
ENDMDL
MODEL      115
REMARK 921   NORMALIZED FREE ENERGY PREDICTED BY IDOCK:   -4.67 KCAL/MOL
REMARK 922        TOTAL FREE ENERGY PREDICTED BY IDOCK:   -7.02 KCAL/MOL
REMARK 923 INTER-LIGAND FREE ENERGY PREDICTED BY IDOCK:   -6.49 KCAL/MOL
REMARK 924 INTRA-LIGAND FREE ENERGY PREDICTED BY IDOCK:   -0.53 KCAL/MOL
REMARK 927      BINDING AFFINITY PREDICTED BY RF-SCORE:    0.00 PKD
ROOT
HETATM    1  C   UNL     1      -9.498   3.435  64.405  1.00  0.00    -0.146 C  
HETATM    2  C   UNL     1      -9.198   3.485  65.894  1.00  0.00    -0.162 C  
ENDROOT
BRANCH   2   3
HETATM    3  O   UNL     1      -8.831   4.832  66.221  1.00  0.00    -0.113 OA 
BRANCH   3   4
HETATM    4  C   UNL     1      -9.010   5.191  67.518  1.00  0.00    -0.109 C  
HETATM    5  O   UNL     1      -8.143   5.152  68.380  1.00  0.00    -0.087 OA 
HETATM    6  N   UNL     1     -10.261   5.731  67.623  1.00  0.00    -0.174 N  
HETATM    7  H   UNL     1     -10.984   5.430  66.969  1.00  0.00     0.000 HD 
BRANCH   6   8
HETATM    8  C   UNL     1     -10.586   6.691  68.605  1.00  0.00    -0.234 A  
HETATM    9  C   UNL     1     -10.341   8.068  68.461  1.00  0.00    -0.199 A  
HETATM   10  C   UNL     1     -10.688   8.917  69.525  1.00  0.00    -0.206 A  
HETATM   11  N   UNL     1      -9.514   8.571  67.433  1.00  0.00    -0.146 NA 
HETATM   12  H2  UNL     1      -9.874   8.222  66.544  1.00  0.00     0.000 HD 
HETATM   13  C   UNL     1     -11.317   8.439  70.685  1.00  0.00    -0.244 A  
HETATM   14  H1  UNL     1      -9.336   9.570  67.329  1.00  0.00     0.000 HD 
HETATM   15  C   UNL     1     -11.215   6.204  69.754  1.00  0.00    -0.494 A  
HETATM   16  C   UNL     1     -11.613   7.078  70.764  1.00  0.00    -0.381 A  
BRANCH  13  17
HETATM   17  N   UNL     1     -11.671   9.367  71.678  1.00  0.00    -0.381 NA 
HETATM   18  H   UNL     1     -11.034   9.599  72.441  1.00  0.00     0.000 HD 
BRANCH  17  19
HETATM   19  C   UNL     1     -12.989   9.984  71.573  1.00  0.00    -0.434 C  
BRANCH  19  20
HETATM   20  C   UNL     1     -12.898  11.464  71.279  1.00  0.00    -0.481 A  
HETATM   21  C   UNL     1     -13.492  12.376  72.170  1.00  0.00    -0.481 A  
HETATM   22  C   UNL     1     -13.369  13.751  71.966  1.00  0.00    -0.536 A  
HETATM   23  C   UNL     1     -12.646  14.220  70.876  1.00  0.00    -0.356 A  
HETATM   24  C   UNL     1     -12.032  13.340  69.995  1.00  0.00    -0.399 A  
HETATM   25  F   UNL     1     -12.528  15.541  70.684  1.00  0.00    -0.345 F  
HETATM   26  C   UNL     1     -12.147  11.965  70.199  1.00  0.00    -0.382 A  
ENDBRANCH  19  20
ENDBRANCH  17  19
ENDBRANCH  13  17
ENDBRANCH   6   8
ENDBRANCH   3   4
ENDBRANCH   2   3
TORSDOF 6
ENDMDL
MODEL      116
REMARK 921   NORMALIZED FREE ENERGY PREDICTED BY IDOCK:   -4.61 KCAL/MOL
REMARK 922        TOTAL FREE ENERGY PREDICTED BY IDOCK:   -6.93 KCAL/MOL
REMARK 923 INTER-LIGAND FREE ENERGY PREDICTED BY IDOCK:   -6.37 KCAL/MOL
REMARK 924 INTRA-LIGAND FREE ENERGY PREDICTED BY IDOCK:   -0.57 KCAL/MOL
REMARK 927      BINDING AFFINITY PREDICTED BY RF-SCORE:    0.00 PKD
ROOT
HETATM    1  C   UNL     1     -10.545   5.882  69.288  1.00  0.00    -0.379 C  
HETATM    2  C   UNL     1     -10.343   7.363  69.015  1.00  0.00    -0.210 C  
ENDROOT
BRANCH   2   3
HETATM    3  O   UNL     1      -9.646   7.487  67.768  1.00  0.00    -0.139 OA 
BRANCH   3   4
HETATM    4  C   UNL     1      -9.512   8.751  67.292  1.00  0.00    -0.158 C  
HETATM    5  O   UNL     1      -9.766   9.097  66.147  1.00  0.00    -0.248 OA 
HETATM    6  N   UNL     1      -9.197   9.555  68.351  1.00  0.00    -0.130 N  
HETATM    7  H   UNL     1      -8.707   9.149  69.149  1.00  0.00     0.000 HD 
BRANCH   6   8
HETATM    8  C   UNL     1      -9.527  10.927  68.378  1.00  0.00    -0.178 A  
HETATM    9  C   UNL     1     -10.735  11.428  68.894  1.00  0.00    -0.210 A  
HETATM   10  C   UNL     1     -10.954  12.815  68.839  1.00  0.00    -0.275 A  
HETATM   11  N   UNL     1     -11.824  10.580  69.189  1.00  0.00    -0.512 NA 
HETATM   12  H2  UNL     1     -11.491   9.853  69.823  1.00  0.00     0.000 HD 
HETATM   13  C   UNL     1      -9.987  13.702  68.342  1.00  0.00    -0.235 A  
HETATM   14  H1  UNL     1     -12.701  10.944  69.564  1.00  0.00     0.000 HD 
HETATM   15  C   UNL     1      -8.555  11.801  67.884  1.00  0.00    -0.156 A  
HETATM   16  C   UNL     1      -8.770  13.178  67.906  1.00  0.00    -0.192 A  
BRANCH  13  17
HETATM   17  N   UNL     1     -10.272  15.077  68.367  1.00  0.00    -0.224 NA 
HETATM   18  H   UNL     1     -11.167  15.441  68.038  1.00  0.00     0.000 HD 
BRANCH  17  19
HETATM   19  C   UNL     1      -9.233  15.962  68.884  1.00  0.00    -0.232 C  
BRANCH  19  20
HETATM   20  C   UNL     1      -9.463  17.400  68.477  1.00  0.00    -0.297 A  
HETATM   21  C   UNL     1      -8.466  18.355  68.747  1.00  0.00    -0.252 A  
HETATM   22  C   UNL     1      -8.615  19.677  68.326  1.00  0.00    -0.358 A  
HETATM   23  C   UNL     1      -9.757  20.048  67.626  1.00  0.00    -0.403 A  
HETATM   24  C   UNL     1     -10.744  19.119  67.328  1.00  0.00    -0.585 A  
HETATM   25  F   UNL     1      -9.896  21.317  67.221  1.00  0.00    -0.600 F  
HETATM   26  C   UNL     1     -10.596  17.795  67.742  1.00  0.00    -0.392 A  
ENDBRANCH  19  20
ENDBRANCH  17  19
ENDBRANCH  13  17
ENDBRANCH   6   8
ENDBRANCH   3   4
ENDBRANCH   2   3
TORSDOF 6
ENDMDL
MODEL      117
REMARK 921   NORMALIZED FREE ENERGY PREDICTED BY IDOCK:   -4.58 KCAL/MOL
REMARK 922        TOTAL FREE ENERGY PREDICTED BY IDOCK:   -6.89 KCAL/MOL
REMARK 923 INTER-LIGAND FREE ENERGY PREDICTED BY IDOCK:   -6.26 KCAL/MOL
REMARK 924 INTRA-LIGAND FREE ENERGY PREDICTED BY IDOCK:   -0.63 KCAL/MOL
REMARK 927      BINDING AFFINITY PREDICTED BY RF-SCORE:    0.00 PKD
ROOT
HETATM    1  C   UNL     1      -9.748   5.480  67.855  1.00  0.00    -0.155 C  
HETATM    2  C   UNL     1      -9.454   5.864  66.415  1.00  0.00    -0.155 C  
ENDROOT
BRANCH   2   3
HETATM    3  O   UNL     1      -8.817   7.148  66.425  1.00  0.00    -0.135 OA 
BRANCH   3   4
HETATM    4  C   UNL     1      -9.648   8.218  66.346  1.00  0.00    -0.230 C  
HETATM    5  O   UNL     1     -10.726   8.310  66.919  1.00  0.00    -0.299 OA 
HETATM    6  N   UNL     1      -8.993   9.194  65.650  1.00  0.00    -0.190 N  
HETATM    7  H   UNL     1      -8.284   8.922  64.969  1.00  0.00     0.000 HD 
BRANCH   6   8
HETATM    8  C   UNL     1      -9.263  10.566  65.843  1.00  0.00    -0.179 A  
HETATM    9  C   UNL     1     -10.138  11.309  65.031  1.00  0.00    -0.279 A  
HETATM   10  C   UNL     1     -10.302  12.676  65.313  1.00  0.00    -0.309 A  
HETATM   11  N   UNL     1     -10.616  10.807  63.802  1.00  0.00    -0.509 NA 
HETATM   12  H2  UNL     1     -11.050   9.901  63.982  1.00  0.00     0.000 HD 
HETATM   13  C   UNL     1      -9.668  13.293  66.402  1.00  0.00    -0.276 A  
HETATM   14  H1  UNL     1     -11.252  11.347  63.213  1.00  0.00     0.000 HD 
HETATM   15  C   UNL     1      -8.629  11.169  66.933  1.00  0.00    -0.148 A  
HETATM   16  C   UNL     1      -8.864  12.510  67.231  1.00  0.00    -0.195 A  
BRANCH  13  17
HETATM   17  N   UNL     1      -9.925  14.654  66.635  1.00  0.00    -0.265 NA 
HETATM   18  H   UNL     1      -9.183  15.352  66.585  1.00  0.00     0.000 HD 
BRANCH  17  19
HETATM   19  C   UNL     1     -11.300  15.026  66.953  1.00  0.00    -0.302 C  
BRANCH  19  20
HETATM   20  C   UNL     1     -11.569  14.980  68.440  1.00  0.00    -0.352 A  
HETATM   21  C   UNL     1     -11.924  13.755  69.033  1.00  0.00    -0.399 A  
HETATM   22  C   UNL     1     -12.113  13.662  70.413  1.00  0.00    -0.421 A  
HETATM   23  C   UNL     1     -11.939  14.790  71.205  1.00  0.00    -0.349 A  
HETATM   24  C   UNL     1     -11.568  16.005  70.646  1.00  0.00    -0.409 A  
HETATM   25  F   UNL     1     -12.120  14.697  72.529  1.00  0.00    -0.381 F  
HETATM   26  C   UNL     1     -11.372  16.101  69.268  1.00  0.00    -0.328 A  
ENDBRANCH  19  20
ENDBRANCH  17  19
ENDBRANCH  13  17
ENDBRANCH   6   8
ENDBRANCH   3   4
ENDBRANCH   2   3
TORSDOF 6
ENDMDL
MODEL      118
REMARK 921   NORMALIZED FREE ENERGY PREDICTED BY IDOCK:   -4.58 KCAL/MOL
REMARK 922        TOTAL FREE ENERGY PREDICTED BY IDOCK:   -6.89 KCAL/MOL
REMARK 923 INTER-LIGAND FREE ENERGY PREDICTED BY IDOCK:   -6.26 KCAL/MOL
REMARK 924 INTRA-LIGAND FREE ENERGY PREDICTED BY IDOCK:   -0.63 KCAL/MOL
REMARK 927      BINDING AFFINITY PREDICTED BY RF-SCORE:    0.00 PKD
ROOT
HETATM    1  C   UNL     1     -10.160  17.321  67.804  1.00  0.00    -0.311 C  
HETATM    2  C   UNL     1     -11.180  16.206  67.964  1.00  0.00    -0.291 C  
ENDROOT
BRANCH   2   3
HETATM    3  O   UNL     1     -10.928  15.232  66.942  1.00  0.00    -0.320 OA 
BRANCH   3   4
HETATM    4  C   UNL     1     -10.529  14.011  67.380  1.00  0.00    -0.263 C  
HETATM    5  O   UNL     1      -9.365  13.677  67.555  1.00  0.00    -0.207 OA 
HETATM    6  N   UNL     1     -11.652  13.312  67.720  1.00  0.00    -0.320 N  
HETATM    7  H   UNL     1     -12.532  13.534  67.251  1.00  0.00     0.000 HD 
BRANCH   6   8
HETATM    8  C   UNL     1     -11.638  12.293  68.696  1.00  0.00    -0.323 A  
HETATM    9  C   UNL     1     -11.060  11.027  68.494  1.00  0.00    -0.243 A  
HETATM   10  C   UNL     1     -11.135  10.091  69.539  1.00  0.00    -0.279 A  
HETATM   11  N   UNL     1     -10.678  10.583  67.210  1.00  0.00    -0.269 NA 
HETATM   12  H2  UNL     1     -10.050  11.281  66.812  1.00  0.00     0.000 HD 
HETATM   13  C   UNL     1     -11.711  10.403  70.779  1.00  0.00    -0.368 A  
HETATM   14  H1  UNL     1     -10.259   9.664  67.063  1.00  0.00     0.000 HD 
HETATM   15  C   UNL     1     -12.211  12.617  69.929  1.00  0.00    -0.238 A  
HETATM   16  C   UNL     1     -12.209  11.692  70.972  1.00  0.00    -0.336 A  
BRANCH  13  17
HETATM   17  N   UNL     1     -11.701   9.420  71.782  1.00  0.00    -0.385 NA 
HETATM   18  H   UNL     1     -12.561   9.117  72.240  1.00  0.00     0.000 HD 
BRANCH  17  19
HETATM   19  C   UNL     1     -10.406   8.851  72.142  1.00  0.00    -0.243 C  
BRANCH  19  20
HETATM   20  C   UNL     1     -10.511   7.383  72.487  1.00  0.00    -0.280 A  
HETATM   21  C   UNL     1     -10.542   6.436  71.447  1.00  0.00    -0.274 A  
HETATM   22  C   UNL     1     -10.570   5.070  71.729  1.00  0.00    -0.204 A  
HETATM   23  C   UNL     1     -10.558   4.644  73.052  1.00  0.00    -0.213 A  
HETATM   24  C   UNL     1     -10.505   5.558  74.095  1.00  0.00    -0.297 A  
HETATM   25  F   UNL     1     -10.583   3.332  73.320  1.00  0.00    -0.204 F  
HETATM   26  C   UNL     1     -10.471   6.924  73.817  1.00  0.00    -0.390 A  
ENDBRANCH  19  20
ENDBRANCH  17  19
ENDBRANCH  13  17
ENDBRANCH   6   8
ENDBRANCH   3   4
ENDBRANCH   2   3
TORSDOF 6
ENDMDL
MODEL      119
REMARK 921   NORMALIZED FREE ENERGY PREDICTED BY IDOCK:   -4.58 KCAL/MOL
REMARK 922        TOTAL FREE ENERGY PREDICTED BY IDOCK:   -6.89 KCAL/MOL
REMARK 923 INTER-LIGAND FREE ENERGY PREDICTED BY IDOCK:   -6.24 KCAL/MOL
REMARK 924 INTRA-LIGAND FREE ENERGY PREDICTED BY IDOCK:   -0.65 KCAL/MOL
REMARK 927      BINDING AFFINITY PREDICTED BY RF-SCORE:    0.00 PKD
ROOT
HETATM    1  C   UNL     1      -8.181   4.242  68.230  1.00  0.00    -0.090 C  
HETATM    2  C   UNL     1      -9.659   4.556  68.074  1.00  0.00    -0.154 C  
ENDROOT
BRANCH   2   3
HETATM    3  O   UNL     1      -9.858   5.925  68.450  1.00  0.00    -0.123 OA 
BRANCH   3   4
HETATM    4  C   UNL     1     -10.286   6.751  67.462  1.00  0.00    -0.190 C  
HETATM    5  O   UNL     1     -11.271   6.553  66.764  1.00  0.00    -0.334 OA 
HETATM    6  N   UNL     1      -9.514   7.877  67.508  1.00  0.00    -0.142 N  
HETATM    7  H   UNL     1      -8.565   7.809  67.877  1.00  0.00     0.000 HD 
BRANCH   6   8
HETATM    8  C   UNL     1      -9.986   9.130  67.062  1.00  0.00    -0.230 A  
HETATM    9  C   UNL     1     -10.699  10.029  67.875  1.00  0.00    -0.272 A  
HETATM   10  C   UNL     1     -11.136  11.236  67.303  1.00  0.00    -0.367 A  
HETATM   11  N   UNL     1     -11.227   9.639  69.125  1.00  0.00    -0.443 NA 
HETATM   12  H2  UNL     1     -10.463   9.254  69.680  1.00  0.00     0.000 HD 
HETATM   13  C   UNL     1     -10.831  11.585  65.979  1.00  0.00    -0.276 A  
HETATM   14  H1  UNL     1     -11.745  10.292  69.715  1.00  0.00     0.000 HD 
HETATM   15  C   UNL     1      -9.673   9.470  65.743  1.00  0.00    -0.357 A  
HETATM   16  C   UNL     1     -10.059  10.704  65.222  1.00  0.00    -0.363 A  
BRANCH  13  17
HETATM   17  N   UNL     1     -11.270  12.832  65.504  1.00  0.00    -0.287 NA 
HETATM   18  H   UNL     1     -10.884  13.244  64.654  1.00  0.00     0.000 HD 
BRANCH  17  19
HETATM   19  C   UNL     1     -12.302  13.513  66.280  1.00  0.00    -0.383 C  
BRANCH  19  20
HETATM   20  C   UNL     1     -11.751  14.708  67.025  1.00  0.00    -0.379 A  
HETATM   21  C   UNL     1     -11.909  14.776  68.421  1.00  0.00    -0.319 A  
HETATM   22  C   UNL     1     -11.355  15.830  69.149  1.00  0.00    -0.349 A  
HETATM   23  C   UNL     1     -10.634  16.815  68.485  1.00  0.00    -0.354 A  
HETATM   24  C   UNL     1     -10.447  16.760  67.111  1.00  0.00    -0.299 A  
HETATM   25  F   UNL     1     -10.102  17.825  69.187  1.00  0.00    -0.330 F  
HETATM   26  C   UNL     1     -10.994  15.704  66.381  1.00  0.00    -0.197 A  
ENDBRANCH  19  20
ENDBRANCH  17  19
ENDBRANCH  13  17
ENDBRANCH   6   8
ENDBRANCH   3   4
ENDBRANCH   2   3
TORSDOF 6
ENDMDL
MODEL      120
REMARK 921   NORMALIZED FREE ENERGY PREDICTED BY IDOCK:   -4.55 KCAL/MOL
REMARK 922        TOTAL FREE ENERGY PREDICTED BY IDOCK:   -6.85 KCAL/MOL
REMARK 923 INTER-LIGAND FREE ENERGY PREDICTED BY IDOCK:   -6.16 KCAL/MOL
REMARK 924 INTRA-LIGAND FREE ENERGY PREDICTED BY IDOCK:   -0.70 KCAL/MOL
REMARK 927      BINDING AFFINITY PREDICTED BY RF-SCORE:    0.00 PKD
ROOT
HETATM    1  C   UNL     1     -10.318  19.444  66.076  1.00  0.00    -0.584 C  
HETATM    2  C   UNL     1      -9.028  18.656  66.229  1.00  0.00    -0.219 C  
ENDROOT
BRANCH   2   3
HETATM    3  O   UNL     1      -9.286  17.309  65.813  1.00  0.00    -0.517 OA 
BRANCH   3   4
HETATM    4  C   UNL     1      -9.202  16.366  66.785  1.00  0.00    -0.237 C  
HETATM    5  O   UNL     1      -9.561  16.524  67.945  1.00  0.00    -0.229 OA 
HETATM    6  N   UNL     1      -8.799  15.203  66.193  1.00  0.00    -0.468 N  
HETATM    7  H   UNL     1      -8.237  15.251  65.343  1.00  0.00     0.000 HD 
BRANCH   6   8
HETATM    8  C   UNL     1      -9.133  13.936  66.719  1.00  0.00    -0.223 A  
HETATM    9  C   UNL     1      -8.325  13.231  67.627  1.00  0.00    -0.181 A  
HETATM   10  C   UNL     1      -8.759  11.965  68.056  1.00  0.00    -0.173 A  
HETATM   11  N   UNL     1      -6.992  13.615  67.888  1.00  0.00    -0.134 NA 
HETATM   12  H2  UNL     1      -6.999  14.596  68.171  1.00  0.00     0.000 HD 
HETATM   13  C   UNL     1      -9.988  11.423  67.650  1.00  0.00    -0.179 A  
HETATM   14  H1  UNL     1      -6.405  13.104  68.548  1.00  0.00     0.000 HD 
HETATM   15  C   UNL     1     -10.361  13.407  66.310  1.00  0.00    -0.291 A  
HETATM   16  C   UNL     1     -10.800  12.181  66.806  1.00  0.00    -0.289 A  
BRANCH  13  17
HETATM   17  N   UNL     1     -10.363  10.171  68.164  1.00  0.00    -0.175 NA 
HETATM   18  H   UNL     1      -9.950   9.306  67.813  1.00  0.00     0.000 HD 
BRANCH  17  19
HETATM   19  C   UNL     1     -11.369  10.161  69.222  1.00  0.00    -0.156 C  
BRANCH  19  20
HETATM   20  C   UNL     1     -10.957   9.286  70.385  1.00  0.00    -0.302 A  
HETATM   21  C   UNL     1      -9.675   9.448  70.941  1.00  0.00    -0.320 A  
HETATM   22  C   UNL     1      -9.286   8.706  72.057  1.00  0.00    -0.362 A  
HETATM   23  C   UNL     1     -10.179   7.807  72.626  1.00  0.00    -0.279 A  
HETATM   24  C   UNL     1     -11.457   7.645  72.109  1.00  0.00    -0.345 A  
HETATM   25  F   UNL     1      -9.803   7.097  73.699  1.00  0.00    -0.216 F  
HETATM   26  C   UNL     1     -11.852   8.390  70.997  1.00  0.00    -0.278 A  
ENDBRANCH  19  20
ENDBRANCH  17  19
ENDBRANCH  13  17
ENDBRANCH   6   8
ENDBRANCH   3   4
ENDBRANCH   2   3
TORSDOF 6
ENDMDL
MODEL      121
REMARK 921   NORMALIZED FREE ENERGY PREDICTED BY IDOCK:   -4.55 KCAL/MOL
REMARK 922        TOTAL FREE ENERGY PREDICTED BY IDOCK:   -6.85 KCAL/MOL
REMARK 923 INTER-LIGAND FREE ENERGY PREDICTED BY IDOCK:   -5.83 KCAL/MOL
REMARK 924 INTRA-LIGAND FREE ENERGY PREDICTED BY IDOCK:   -1.02 KCAL/MOL
REMARK 927      BINDING AFFINITY PREDICTED BY RF-SCORE:    0.00 PKD
ROOT
HETATM    1  C   UNL     1      -9.674   4.447  67.484  1.00  0.00    -0.211 C  
HETATM    2  C   UNL     1     -10.658   5.355  66.765  1.00  0.00    -0.271 C  
ENDROOT
BRANCH   2   3
HETATM    3  O   UNL     1     -11.039   6.395  67.674  1.00  0.00    -0.339 OA 
BRANCH   3   4
HETATM    4  C   UNL     1     -10.407   7.585  67.505  1.00  0.00    -0.252 C  
HETATM    5  O   UNL     1      -9.992   8.010  66.435  1.00  0.00    -0.229 OA 
HETATM    6  N   UNL     1     -10.466   8.252  68.696  1.00  0.00    -0.305 N  
HETATM    7  H   UNL     1     -10.529   7.713  69.560  1.00  0.00     0.000 HD 
BRANCH   6   8
HETATM    8  C   UNL     1     -10.445   9.661  68.770  1.00  0.00    -0.215 A  
HETATM    9  C   UNL     1      -9.263  10.423  68.784  1.00  0.00    -0.172 A  
HETATM   10  C   UNL     1      -9.377  11.820  68.887  1.00  0.00     0.076 A  
HETATM   11  N   UNL     1      -7.999   9.828  68.985  1.00  0.00    -0.091 NA 
HETATM   12  H2  UNL     1      -7.887   9.089  68.290  1.00  0.00     0.000 HD 
HETATM   13  C   UNL     1     -10.622  12.465  68.918  1.00  0.00    -0.126 A  
HETATM   14  H1  UNL     1      -7.141  10.381  68.994  1.00  0.00     0.000 HD 
HETATM   15  C   UNL     1     -11.691  10.293  68.797  1.00  0.00    -0.021 A  
HETATM   16  C   UNL     1     -11.775  11.684  68.829  1.00  0.00    -0.392 A  
BRANCH  13  17
HETATM   17  N   UNL     1     -10.641  13.868  68.976  1.00  0.00    -0.368 NA 
HETATM   18  H   UNL     1     -11.083  14.363  69.752  1.00  0.00     0.000 HD 
BRANCH  17  19
HETATM   19  C   UNL     1     -10.002  14.587  67.879  1.00  0.00    -0.226 C  
BRANCH  19  20
HETATM   20  C   UNL     1     -10.662  14.294  66.551  1.00  0.00    -0.297 A  
HETATM   21  C   UNL     1      -9.913  13.668  65.538  1.00  0.00    -0.244 A  
HETATM   22  C   UNL     1     -10.508  13.321  64.325  1.00  0.00    -0.372 A  
HETATM   23  C   UNL     1     -11.856  13.590  64.122  1.00  0.00    -0.437 A  
HETATM   24  C   UNL     1     -12.622  14.187  65.114  1.00  0.00    -0.426 A  
HETATM   25  F   UNL     1     -12.425  13.254  62.957  1.00  0.00    -0.560 F  
HETATM   26  C   UNL     1     -12.032  14.530  66.330  1.00  0.00    -0.350 A  
ENDBRANCH  19  20
ENDBRANCH  17  19
ENDBRANCH  13  17
ENDBRANCH   6   8
ENDBRANCH   3   4
ENDBRANCH   2   3
TORSDOF 6
ENDMDL
MODEL      122
REMARK 921   NORMALIZED FREE ENERGY PREDICTED BY IDOCK:   -4.53 KCAL/MOL
REMARK 922        TOTAL FREE ENERGY PREDICTED BY IDOCK:   -6.83 KCAL/MOL
REMARK 923 INTER-LIGAND FREE ENERGY PREDICTED BY IDOCK:   -6.10 KCAL/MOL
REMARK 924 INTRA-LIGAND FREE ENERGY PREDICTED BY IDOCK:   -0.73 KCAL/MOL
REMARK 927      BINDING AFFINITY PREDICTED BY RF-SCORE:    0.00 PKD
ROOT
HETATM    1  C   UNL     1     -10.409  11.359  63.369  1.00  0.00    -0.458 C  
HETATM    2  C   UNL     1     -10.611  12.803  63.796  1.00  0.00    -0.336 C  
ENDROOT
BRANCH   2   3
HETATM    3  O   UNL     1     -10.062  12.950  65.112  1.00  0.00    -0.278 OA 
BRANCH   3   4
HETATM    4  C   UNL     1     -10.703  12.269  66.096  1.00  0.00    -0.261 C  
HETATM    5  O   UNL     1     -11.914  12.270  66.272  1.00  0.00    -0.588 OA 
HETATM    6  N   UNL     1      -9.774  11.490  66.725  1.00  0.00    -0.196 N  
HETATM    7  H   UNL     1      -8.799  11.791  66.729  1.00  0.00     0.000 HD 
BRANCH   6   8
HETATM    8  C   UNL     1     -10.117  10.282  67.370  1.00  0.00    -0.202 A  
HETATM    9  C   UNL     1     -10.328  10.171  68.756  1.00  0.00    -0.194 A  
HETATM   10  C   UNL     1     -10.640   8.905  69.279  1.00  0.00    -0.219 A  
HETATM   11  N   UNL     1      -9.959  11.202  69.647  1.00  0.00    -0.371 NA 
HETATM   12  H2  UNL     1     -10.406  12.063  69.331  1.00  0.00     0.000 HD 
HETATM   13  C   UNL     1     -10.801   7.779  68.457  1.00  0.00     0.062 A  
HETATM   14  H1  UNL     1     -10.112  11.121  70.653  1.00  0.00     0.000 HD 
HETATM   15  C   UNL     1     -10.278   9.168  66.541  1.00  0.00    -0.322 A  
HETATM   16  C   UNL     1     -10.657   7.939  67.079  1.00  0.00    -0.381 A  
BRANCH  13  17
HETATM   17  N   UNL     1     -11.158   6.562  69.061  1.00  0.00    -0.453 NA 
HETATM   18  H   UNL     1     -11.021   5.671  68.584  1.00  0.00     0.000 HD 
BRANCH  17  19
HETATM   19  C   UNL     1     -11.733   6.629  70.401  1.00  0.00    -0.386 C  
BRANCH  19  20
HETATM   20  C   UNL     1     -10.841   5.974  71.432  1.00  0.00    -0.328 A  
HETATM   21  C   UNL     1     -11.073   6.226  72.796  1.00  0.00    -0.284 A  
HETATM   22  C   UNL     1     -10.314   5.587  73.776  1.00  0.00    -0.271 A  
HETATM   23  C   UNL     1      -9.326   4.686  73.397  1.00  0.00    -0.119 A  
HETATM   24  C   UNL     1      -9.092   4.404  72.058  1.00  0.00    -0.159 A  
HETATM   25  F   UNL     1      -8.599   4.072  74.341  1.00  0.00    -0.093 F  
HETATM   26  C   UNL     1      -9.854   5.037  71.076  1.00  0.00    -0.266 A  
ENDBRANCH  19  20
ENDBRANCH  17  19
ENDBRANCH  13  17
ENDBRANCH   6   8
ENDBRANCH   3   4
ENDBRANCH   2   3
TORSDOF 6
ENDMDL
MODEL      123
REMARK 921   NORMALIZED FREE ENERGY PREDICTED BY IDOCK:   -4.50 KCAL/MOL
REMARK 922        TOTAL FREE ENERGY PREDICTED BY IDOCK:   -6.78 KCAL/MOL
REMARK 923 INTER-LIGAND FREE ENERGY PREDICTED BY IDOCK:   -6.21 KCAL/MOL
REMARK 924 INTRA-LIGAND FREE ENERGY PREDICTED BY IDOCK:   -0.58 KCAL/MOL
REMARK 927      BINDING AFFINITY PREDICTED BY RF-SCORE:    0.00 PKD
ROOT
HETATM    1  C   UNL     1      -9.566   4.289  73.728  1.00  0.00    -0.133 C  
HETATM    2  C   UNL     1      -9.602   5.269  72.567  1.00  0.00    -0.149 C  
ENDROOT
BRANCH   2   3
HETATM    3  O   UNL     1     -10.965   5.673  72.378  1.00  0.00    -0.234 OA 
BRANCH   3   4
HETATM    4  C   UNL     1     -11.188   7.012  72.385  1.00  0.00    -0.268 C  
HETATM    5  O   UNL     1     -10.866   7.769  73.291  1.00  0.00    -0.383 OA 
HETATM    6  N   UNL     1     -11.683   7.350  71.158  1.00  0.00    -0.285 N  
HETATM    7  H   UNL     1     -12.199   6.650  70.624  1.00  0.00     0.000 HD 
BRANCH   6   8
HETATM    8  C   UNL     1     -11.505   8.636  70.604  1.00  0.00    -0.228 A  
HETATM    9  C   UNL     1     -12.446   9.674  70.723  1.00  0.00    -0.169 A  
HETATM   10  C   UNL     1     -12.160  10.901  70.102  1.00  0.00    -0.431 A  
HETATM   11  N   UNL     1     -13.759   9.435  71.184  1.00  0.00    -0.520 NA 
HETATM   12  H2  UNL     1     -13.692   8.968  72.089  1.00  0.00     0.000 HD 
HETATM   13  C   UNL     1     -10.952  11.131  69.427  1.00  0.00    -0.244 A  
HETATM   14  H1  UNL     1     -14.441  10.189  71.271  1.00  0.00     0.000 HD 
HETATM   15  C   UNL     1     -10.296   8.854  69.936  1.00  0.00    -0.215 A  
HETATM   16  C   UNL     1     -10.009  10.104  69.390  1.00  0.00    -0.247 A  
BRANCH  13  17
HETATM   17  N   UNL     1     -10.731  12.403  68.875  1.00  0.00    -0.354 NA 
HETATM   18  H   UNL     1     -10.737  13.243  69.454  1.00  0.00     0.000 HD 
BRANCH  17  19
HETATM   19  C   UNL     1     -10.494  12.472  67.436  1.00  0.00    -0.219 C  
BRANCH  19  20
HETATM   20  C   UNL     1     -10.545  13.893  66.923  1.00  0.00    -0.280 A  
HETATM   21  C   UNL     1     -10.739  14.117  65.548  1.00  0.00    -0.330 A  
HETATM   22  C   UNL     1     -10.859  15.414  65.049  1.00  0.00    -0.462 A  
HETATM   23  C   UNL     1     -10.794  16.493  65.923  1.00  0.00    -0.095 A  
HETATM   24  C   UNL     1     -10.624  16.297  67.286  1.00  0.00    -0.298 A  
HETATM   25  F   UNL     1     -10.911  17.737  65.441  1.00  0.00    -0.414 F  
HETATM   26  C   UNL     1     -10.510  15.001  67.790  1.00  0.00    -0.249 A  
ENDBRANCH  19  20
ENDBRANCH  17  19
ENDBRANCH  13  17
ENDBRANCH   6   8
ENDBRANCH   3   4
ENDBRANCH   2   3
TORSDOF 6
ENDMDL
MODEL      124
REMARK 921   NORMALIZED FREE ENERGY PREDICTED BY IDOCK:   -4.49 KCAL/MOL
REMARK 922        TOTAL FREE ENERGY PREDICTED BY IDOCK:   -6.77 KCAL/MOL
REMARK 923 INTER-LIGAND FREE ENERGY PREDICTED BY IDOCK:   -5.95 KCAL/MOL
REMARK 924 INTRA-LIGAND FREE ENERGY PREDICTED BY IDOCK:   -0.82 KCAL/MOL
REMARK 927      BINDING AFFINITY PREDICTED BY RF-SCORE:    0.00 PKD
ROOT
HETATM    1  C   UNL     1     -10.235  17.702  68.749  1.00  0.00    -0.373 C  
HETATM    2  C   UNL     1     -10.835  17.775  67.355  1.00  0.00    -0.186 C  
ENDROOT
BRANCH   2   3
HETATM    3  O   UNL     1      -9.835  17.340  66.424  1.00  0.00    -0.276 OA 
BRANCH   3   4
HETATM    4  C   UNL     1      -9.549  16.013  66.445  1.00  0.00    -0.283 C  
HETATM    5  O   UNL     1      -8.477  15.534  66.787  1.00  0.00    -0.237 OA 
HETATM    6  N   UNL     1     -10.706  15.342  66.166  1.00  0.00    -0.310 N  
HETATM    7  H   UNL     1     -11.419  15.803  65.600  1.00  0.00     0.000 HD 
BRANCH   6   8
HETATM    8  C   UNL     1     -10.948  14.033  66.635  1.00  0.00    -0.300 A  
HETATM    9  C   UNL     1     -11.853  13.730  67.667  1.00  0.00    -0.378 A  
HETATM   10  C   UNL     1     -11.985  12.387  68.060  1.00  0.00    -0.264 A  
HETATM   11  N   UNL     1     -12.401  14.735  68.494  1.00  0.00    -0.594 NA 
HETATM   12  H2  UNL     1     -12.837  15.433  67.890  1.00  0.00     0.000 HD 
HETATM   13  C   UNL     1     -11.288  11.352  67.417  1.00  0.00    -0.288 A  
HETATM   14  H1  UNL     1     -13.058  14.515  69.243  1.00  0.00     0.000 HD 
HETATM   15  C   UNL     1     -10.252  13.010  65.985  1.00  0.00    -0.292 A  
HETATM   16  C   UNL     1     -10.454  11.680  66.348  1.00  0.00    -0.283 A  
BRANCH  13  17
HETATM   17  N   UNL     1     -11.515  10.034  67.846  1.00  0.00    -0.608 NA 
HETATM   18  H   UNL     1     -12.392   9.762  68.291  1.00  0.00     0.000 HD 
BRANCH  17  19
HETATM   19  C   UNL     1     -10.441   9.070  67.626  1.00  0.00    -0.260 C  
BRANCH  19  20
HETATM   20  C   UNL     1      -9.463   9.043  68.779  1.00  0.00    -0.148 A  
HETATM   21  C   UNL     1      -8.116   9.372  68.540  1.00  0.00    -0.105 A  
HETATM   22  C   UNL     1      -7.200   9.423  69.592  1.00  0.00    -0.067 A  
HETATM   23  C   UNL     1      -7.628   9.153  70.886  1.00  0.00    -0.124 A  
HETATM   24  C   UNL     1      -8.956   8.847  71.150  1.00  0.00    -0.305 A  
HETATM   25  F   UNL     1      -6.746   9.204  71.894  1.00  0.00    -0.076 F  
HETATM   26  C   UNL     1      -9.876   8.801  70.102  1.00  0.00    -0.192 A  
ENDBRANCH  19  20
ENDBRANCH  17  19
ENDBRANCH  13  17
ENDBRANCH   6   8
ENDBRANCH   3   4
ENDBRANCH   2   3
TORSDOF 6
ENDMDL
MODEL      125
REMARK 921   NORMALIZED FREE ENERGY PREDICTED BY IDOCK:   -4.48 KCAL/MOL
REMARK 922        TOTAL FREE ENERGY PREDICTED BY IDOCK:   -6.76 KCAL/MOL
REMARK 923 INTER-LIGAND FREE ENERGY PREDICTED BY IDOCK:   -6.10 KCAL/MOL
REMARK 924 INTRA-LIGAND FREE ENERGY PREDICTED BY IDOCK:   -0.66 KCAL/MOL
REMARK 927      BINDING AFFINITY PREDICTED BY RF-SCORE:    0.00 PKD
ROOT
HETATM    1  C   UNL     1      -9.640  19.648  67.211  1.00  0.00    -0.459 C  
HETATM    2  C   UNL     1     -10.209  18.265  66.942  1.00  0.00    -0.375 C  
ENDROOT
BRANCH   2   3
HETATM    3  O   UNL     1      -9.131  17.324  67.024  1.00  0.00    -0.225 OA 
BRANCH   3   4
HETATM    4  C   UNL     1      -9.317  16.291  67.884  1.00  0.00    -0.209 C  
HETATM    5  O   UNL     1      -9.549  16.409  69.080  1.00  0.00    -0.249 OA 
HETATM    6  N   UNL     1      -9.344  15.143  67.144  1.00  0.00    -0.206 N  
HETATM    7  H   UNL     1      -8.837  15.115  66.259  1.00  0.00     0.000 HD 
BRANCH   6   8
HETATM    8  C   UNL     1     -10.051  13.995  67.562  1.00  0.00    -0.237 A  
HETATM    9  C   UNL     1     -11.438  13.834  67.405  1.00  0.00    -0.345 A  
HETATM   10  C   UNL     1     -12.027  12.652  67.888  1.00  0.00    -0.307 A  
HETATM   11  N   UNL     1     -12.276  14.914  67.053  1.00  0.00    -0.317 NA 
HETATM   12  H2  UNL     1     -11.910  15.326  66.195  1.00  0.00     0.000 HD 
HETATM   13  C   UNL     1     -11.266  11.622  68.460  1.00  0.00    -0.256 A  
HETATM   14  H1  UNL     1     -13.284  14.797  66.940  1.00  0.00     0.000 HD 
HETATM   15  C   UNL     1      -9.282  12.974  68.127  1.00  0.00    -0.212 A  
HETATM   16  C   UNL     1      -9.882  11.783  68.534  1.00  0.00    -0.192 A  
BRANCH  13  17
HETATM   17  N   UNL     1     -11.931  10.456  68.874  1.00  0.00    -0.680 NA 
HETATM   18  H   UNL     1     -12.434   9.867  68.211  1.00  0.00     0.000 HD 
BRANCH  17  19
HETATM   19  C   UNL     1     -11.872  10.126  70.295  1.00  0.00    -0.261 C  
BRANCH  19  20
HETATM   20  C   UNL     1     -11.023   8.902  70.555  1.00  0.00    -0.280 A  
HETATM   21  C   UNL     1     -10.431   8.737  71.820  1.00  0.00    -0.417 A  
HETATM   22  C   UNL     1      -9.698   7.587  72.117  1.00  0.00    -0.204 A  
HETATM   23  C   UNL     1      -9.561   6.595  71.153  1.00  0.00    -0.170 A  
HETATM   24  C   UNL     1     -10.154   6.725  69.905  1.00  0.00    -0.195 A  
HETATM   25  F   UNL     1      -8.858   5.491  71.442  1.00  0.00    -0.129 F  
HETATM   26  C   UNL     1     -10.893   7.870  69.607  1.00  0.00    -0.177 A  
ENDBRANCH  19  20
ENDBRANCH  17  19
ENDBRANCH  13  17
ENDBRANCH   6   8
ENDBRANCH   3   4
ENDBRANCH   2   3
TORSDOF 6
ENDMDL
MODEL      126
REMARK 921   NORMALIZED FREE ENERGY PREDICTED BY IDOCK:   -4.48 KCAL/MOL
REMARK 922        TOTAL FREE ENERGY PREDICTED BY IDOCK:   -6.76 KCAL/MOL
REMARK 923 INTER-LIGAND FREE ENERGY PREDICTED BY IDOCK:   -7.55 KCAL/MOL
REMARK 924 INTRA-LIGAND FREE ENERGY PREDICTED BY IDOCK:    0.80 KCAL/MOL
REMARK 927      BINDING AFFINITY PREDICTED BY RF-SCORE:    0.00 PKD
ROOT
HETATM    1  C   UNL     1      -9.213  15.691  69.180  1.00  0.00    -0.254 C  
HETATM    2  C   UNL     1     -10.017  16.980  69.180  1.00  0.00    -0.229 C  
ENDROOT
BRANCH   2   3
HETATM    3  O   UNL     1     -11.130  16.802  68.294  1.00  0.00    -0.361 OA 
BRANCH   3   4
HETATM    4  C   UNL     1     -11.831  15.651  68.455  1.00  0.00    -0.237 C  
HETATM    5  O   UNL     1     -11.888  14.747  67.633  1.00  0.00    -0.358 OA 
HETATM    6  N   UNL     1     -12.312  15.641  69.734  1.00  0.00    -0.516 N  
HETATM    7  H   UNL     1     -12.487  16.531  70.202  1.00  0.00     0.000 HD 
BRANCH   6   8
HETATM    8  C   UNL     1     -12.575  14.441  70.429  1.00  0.00    -0.345 A  
HETATM    9  C   UNL     1     -13.357  14.372  71.595  1.00  0.00    -0.363 A  
HETATM   10  C   UNL     1     -13.523  13.118  72.208  1.00  0.00    -0.665 A  
HETATM   11  N   UNL     1     -13.729  15.531  72.310  1.00  0.00    -0.505 NA 
HETATM   12  H2  UNL     1     -14.193  16.164  71.659  1.00  0.00     0.000 HD 
HETATM   13  C   UNL     1     -12.982  11.945  71.661  1.00  0.00    -0.342 A  
HETATM   14  H1  UNL     1     -14.297  15.481  73.156  1.00  0.00     0.000 HD 
HETATM   15  C   UNL     1     -12.034  13.279  69.873  1.00  0.00    -0.400 A  
HETATM   16  C   UNL     1     -12.272  12.039  70.463  1.00  0.00    -0.414 A  
BRANCH  13  17
HETATM   17  N   UNL     1     -13.236  10.729  72.316  1.00  0.00    -0.567 NA 
HETATM   18  H   UNL     1     -13.435  10.694  73.316  1.00  0.00     0.000 HD 
BRANCH  17  19
HETATM   19  C   UNL     1     -13.202   9.517  71.504  1.00  0.00    -0.390 C  
BRANCH  19  20
HETATM   20  C   UNL     1     -11.787   9.091  71.183  1.00  0.00    -0.362 A  
HETATM   21  C   UNL     1     -10.981   8.565  72.210  1.00  0.00    -0.426 A  
HETATM   22  C   UNL     1      -9.695   8.100  71.936  1.00  0.00    -0.268 A  
HETATM   23  C   UNL     1      -9.212   8.151  70.634  1.00  0.00    -0.154 A  
HETATM   24  C   UNL     1      -9.995   8.645  69.600  1.00  0.00    -0.191 A  
HETATM   25  F   UNL     1      -7.976   7.701  70.374  1.00  0.00    -0.090 F  
HETATM   26  C   UNL     1     -11.284   9.105  69.869  1.00  0.00    -0.118 A  
ENDBRANCH  19  20
ENDBRANCH  17  19
ENDBRANCH  13  17
ENDBRANCH   6   8
ENDBRANCH   3   4
ENDBRANCH   2   3
TORSDOF 6
ENDMDL
MODEL      127
REMARK 921   NORMALIZED FREE ENERGY PREDICTED BY IDOCK:   -4.47 KCAL/MOL
REMARK 922        TOTAL FREE ENERGY PREDICTED BY IDOCK:   -6.74 KCAL/MOL
REMARK 923 INTER-LIGAND FREE ENERGY PREDICTED BY IDOCK:   -6.18 KCAL/MOL
REMARK 924 INTRA-LIGAND FREE ENERGY PREDICTED BY IDOCK:   -0.57 KCAL/MOL
REMARK 927      BINDING AFFINITY PREDICTED BY RF-SCORE:    0.00 PKD
ROOT
HETATM    1  C   UNL     1     -10.403  19.977  66.346  1.00  0.00    -0.573 C  
HETATM    2  C   UNL     1     -10.500  18.583  65.750  1.00  0.00    -0.247 C  
ENDROOT
BRANCH   2   3
HETATM    3  O   UNL     1      -9.177  18.032  65.708  1.00  0.00    -0.486 OA 
BRANCH   3   4
HETATM    4  C   UNL     1      -9.061  16.747  66.129  1.00  0.00    -0.253 C  
HETATM    5  O   UNL     1      -8.011  16.213  66.462  1.00  0.00    -0.261 OA 
HETATM    6  N   UNL     1     -10.324  16.241  66.249  1.00  0.00    -0.316 N  
HETATM    7  H   UNL     1     -11.066  16.625  65.664  1.00  0.00     0.000 HD 
BRANCH   6   8
HETATM    8  C   UNL     1     -10.636  15.204  67.155  1.00  0.00    -0.295 A  
HETATM    9  C   UNL     1     -11.414  14.083  66.819  1.00  0.00    -0.363 A  
HETATM   10  C   UNL     1     -11.675  13.133  67.820  1.00  0.00    -0.401 A  
HETATM   11  N   UNL     1     -12.163  14.032  65.623  1.00  0.00    -0.418 NA 
HETATM   12  H2  UNL     1     -11.526  14.215  64.847  1.00  0.00     0.000 HD 
HETATM   13  C   UNL     1     -11.136  13.245  69.111  1.00  0.00    -0.209 A  
HETATM   14  H1  UNL     1     -12.729  13.218  65.379  1.00  0.00     0.000 HD 
HETATM   15  C   UNL     1     -10.090  15.325  68.436  1.00  0.00    -0.220 A  
HETATM   16  C   UNL     1     -10.307  14.332  69.390  1.00  0.00     0.007 A  
BRANCH  13  17
HETATM   17  N   UNL     1     -11.411  12.224  70.036  1.00  0.00    -0.528 NA 
HETATM   18  H   UNL     1     -10.725  11.501  70.251  1.00  0.00     0.000 HD 
BRANCH  17  19
HETATM   19  C   UNL     1     -12.723  12.244  70.676  1.00  0.00    -0.056 C  
BRANCH  19  20
HETATM   20  C   UNL     1     -12.893  13.447  71.577  1.00  0.00    -0.427 A  
HETATM   21  C   UNL     1     -13.727  14.501  71.159  1.00  0.00    -0.333 A  
HETATM   22  C   UNL     1     -13.961  15.594  71.993  1.00  0.00    -0.515 A  
HETATM   23  C   UNL     1     -13.370  15.636  73.251  1.00  0.00    -0.514 A  
HETATM   24  C   UNL     1     -12.561  14.599  73.693  1.00  0.00    -0.393 A  
HETATM   25  F   UNL     1     -13.598  16.687  74.050  1.00  0.00    -0.181 F  
HETATM   26  C   UNL     1     -12.330  13.500  72.865  1.00  0.00     0.806 A  
ENDBRANCH  19  20
ENDBRANCH  17  19
ENDBRANCH  13  17
ENDBRANCH   6   8
ENDBRANCH   3   4
ENDBRANCH   2   3
TORSDOF 6
ENDMDL
MODEL      128
REMARK 921   NORMALIZED FREE ENERGY PREDICTED BY IDOCK:   -4.44 KCAL/MOL
REMARK 922        TOTAL FREE ENERGY PREDICTED BY IDOCK:   -6.70 KCAL/MOL
REMARK 923 INTER-LIGAND FREE ENERGY PREDICTED BY IDOCK:   -6.26 KCAL/MOL
REMARK 924 INTRA-LIGAND FREE ENERGY PREDICTED BY IDOCK:   -0.44 KCAL/MOL
REMARK 927      BINDING AFFINITY PREDICTED BY RF-SCORE:    0.00 PKD
ROOT
HETATM    1  C   UNL     1      -7.276   5.113  62.882  1.00  0.00    -0.043 C  
HETATM    2  C   UNL     1      -7.853   6.370  63.513  1.00  0.00    -0.110 C  
ENDROOT
BRANCH   2   3
HETATM    3  O   UNL     1      -7.318   6.479  64.838  1.00  0.00    -0.067 OA 
BRANCH   3   4
HETATM    4  C   UNL     1      -8.217   6.768  65.814  1.00  0.00    -0.135 C  
HETATM    5  O   UNL     1      -8.364   6.121  66.842  1.00  0.00    -0.106 OA 
HETATM    6  N   UNL     1      -8.791   7.967  65.498  1.00  0.00    -0.349 N  
HETATM    7  H   UNL     1      -8.846   8.244  64.518  1.00  0.00     0.000 HD 
BRANCH   6   8
HETATM    8  C   UNL     1      -9.310   8.834  66.483  1.00  0.00    -0.203 A  
HETATM    9  C   UNL     1     -10.408   8.517  67.302  1.00  0.00    -0.302 A  
HETATM   10  C   UNL     1     -10.844   9.479  68.228  1.00  0.00    -0.194 A  
HETATM   11  N   UNL     1     -11.241   7.410  67.029  1.00  0.00    -0.440 NA 
HETATM   12  H2  UNL     1     -10.649   6.582  66.964  1.00  0.00     0.000 HD 
HETATM   13  C   UNL     1     -10.185  10.707  68.392  1.00  0.00    -0.173 A  
HETATM   14  H1  UNL     1     -12.037   7.179  67.624  1.00  0.00     0.000 HD 
HETATM   15  C   UNL     1      -8.644  10.053  66.640  1.00  0.00    -0.130 A  
HETATM   16  C   UNL     1      -9.055  10.961  67.614  1.00  0.00    -0.148 A  
BRANCH  13  17
HETATM   17  N   UNL     1     -10.663  11.591  69.373  1.00  0.00    -0.427 NA 
HETATM   18  H   UNL     1     -10.430  11.468  70.359  1.00  0.00     0.000 HD 
BRANCH  17  19
HETATM   19  C   UNL     1     -11.507  12.692  68.921  1.00  0.00    -0.306 C  
BRANCH  19  20
HETATM   20  C   UNL     1     -12.194  13.387  70.075  1.00  0.00    -0.367 A  
HETATM   21  C   UNL     1     -12.298  14.790  70.064  1.00  0.00    -0.365 A  
HETATM   22  C   UNL     1     -12.985  15.459  71.077  1.00  0.00    -0.556 A  
HETATM   23  C   UNL     1     -13.577  14.729  72.101  1.00  0.00    -0.415 A  
HETATM   24  C   UNL     1     -13.507  13.343  72.122  1.00  0.00    -0.646 A  
HETATM   25  F   UNL     1     -14.238  15.375  73.072  1.00  0.00    -0.469 F  
HETATM   26  C   UNL     1     -12.827  12.670  71.107  1.00  0.00    -0.311 A  
ENDBRANCH  19  20
ENDBRANCH  17  19
ENDBRANCH  13  17
ENDBRANCH   6   8
ENDBRANCH   3   4
ENDBRANCH   2   3
TORSDOF 6
ENDMDL
MODEL      129
REMARK 921   NORMALIZED FREE ENERGY PREDICTED BY IDOCK:   -4.42 KCAL/MOL
REMARK 922        TOTAL FREE ENERGY PREDICTED BY IDOCK:   -6.68 KCAL/MOL
REMARK 923 INTER-LIGAND FREE ENERGY PREDICTED BY IDOCK:   -5.99 KCAL/MOL
REMARK 924 INTRA-LIGAND FREE ENERGY PREDICTED BY IDOCK:   -0.69 KCAL/MOL
REMARK 927      BINDING AFFINITY PREDICTED BY RF-SCORE:    0.00 PKD
ROOT
HETATM    1  C   UNL     1      -7.417   6.668  66.620  1.00  0.00    -0.079 C  
HETATM    2  C   UNL     1      -7.117   7.204  65.230  1.00  0.00    -0.060 C  
ENDROOT
BRANCH   2   3
HETATM    3  O   UNL     1      -8.296   7.865  64.752  1.00  0.00    -0.136 OA 
BRANCH   3   4
HETATM    4  C   UNL     1      -8.555   9.079  65.301  1.00  0.00    -0.174 C  
HETATM    5  O   UNL     1      -7.703   9.900  65.613  1.00  0.00    -0.111 OA 
HETATM    6  N   UNL     1      -9.910   9.252  65.289  1.00  0.00    -0.424 N  
HETATM    7  H   UNL     1     -10.512   8.429  65.320  1.00  0.00     0.000 HD 
BRANCH   6   8
HETATM    8  C   UNL     1     -10.504  10.531  65.236  1.00  0.00    -0.162 A  
HETATM    9  C   UNL     1     -11.009  11.204  66.362  1.00  0.00    -0.186 A  
HETATM   10  C   UNL     1     -11.601  12.464  66.172  1.00  0.00    -0.452 A  
HETATM   11  N   UNL     1     -11.198  10.545  67.597  1.00  0.00    -0.396 NA 
HETATM   12  H2  UNL     1     -10.311  10.115  67.861  1.00  0.00     0.000 HD 
HETATM   13  C   UNL     1     -11.646  13.082  64.913  1.00  0.00    -0.326 A  
HETATM   14  H1  UNL     1     -11.564  11.033  68.415  1.00  0.00     0.000 HD 
HETATM   15  C   UNL     1     -10.540  11.139  63.978  1.00  0.00    -0.436 A  
HETATM   16  C   UNL     1     -11.070  12.420  63.829  1.00  0.00    -0.506 A  
BRANCH  13  17
HETATM   17  N   UNL     1     -12.216  14.363  64.823  1.00  0.00    -0.441 NA 
HETATM   18  H   UNL     1     -13.225  14.492  64.752  1.00  0.00     0.000 HD 
BRANCH  17  19
HETATM   19  C   UNL     1     -11.300  15.499  64.835  1.00  0.00    -0.335 C  
BRANCH  19  20
HETATM   20  C   UNL     1     -10.496  15.563  66.114  1.00  0.00    -0.323 A  
HETATM   21  C   UNL     1     -11.173  15.673  67.343  1.00  0.00    -0.219 A  
HETATM   22  C   UNL     1     -10.467  15.666  68.546  1.00  0.00    -0.236 A  
HETATM   23  C   UNL     1      -9.083  15.541  68.527  1.00  0.00    -0.196 A  
HETATM   24  C   UNL     1      -8.395  15.410  67.329  1.00  0.00    -0.224 A  
HETATM   25  F   UNL     1      -8.408  15.533  69.684  1.00  0.00    -0.232 F  
HETATM   26  C   UNL     1      -9.098  15.410  66.124  1.00  0.00    -0.339 A  
ENDBRANCH  19  20
ENDBRANCH  17  19
ENDBRANCH  13  17
ENDBRANCH   6   8
ENDBRANCH   3   4
ENDBRANCH   2   3
TORSDOF 6
ENDMDL
MODEL      130
REMARK 921   NORMALIZED FREE ENERGY PREDICTED BY IDOCK:   -4.38 KCAL/MOL
REMARK 922        TOTAL FREE ENERGY PREDICTED BY IDOCK:   -6.62 KCAL/MOL
REMARK 923 INTER-LIGAND FREE ENERGY PREDICTED BY IDOCK:   -5.99 KCAL/MOL
REMARK 924 INTRA-LIGAND FREE ENERGY PREDICTED BY IDOCK:   -0.63 KCAL/MOL
REMARK 927      BINDING AFFINITY PREDICTED BY RF-SCORE:    0.00 PKD
ROOT
HETATM    1  C   UNL     1      -9.702   3.813  64.648  1.00  0.00    -0.183 C  
HETATM    2  C   UNL     1     -10.242   4.546  65.864  1.00  0.00    -0.263 C  
ENDROOT
BRANCH   2   3
HETATM    3  O   UNL     1      -9.255   4.461  66.900  1.00  0.00    -0.123 OA 
BRANCH   3   4
HETATM    4  C   UNL     1      -8.988   5.620  67.554  1.00  0.00    -0.107 C  
HETATM    5  O   UNL     1      -7.868   6.081  67.730  1.00  0.00    -0.102 OA 
HETATM    6  N   UNL     1     -10.184   6.220  67.827  1.00  0.00    -0.151 N  
HETATM    7  H   UNL     1     -11.015   5.637  67.936  1.00  0.00     0.000 HD 
BRANCH   6   8
HETATM    8  C   UNL     1     -10.310   7.619  67.963  1.00  0.00    -0.205 A  
HETATM    9  C   UNL     1     -10.171   8.523  66.895  1.00  0.00    -0.305 A  
HETATM   10  C   UNL     1     -10.294   9.895  67.168  1.00  0.00    -0.304 A  
HETATM   11  N   UNL     1      -9.637   8.123  65.651  1.00  0.00    -0.397 NA 
HETATM   12  H2  UNL     1     -10.182   7.327  65.318  1.00  0.00     0.000 HD 
HETATM   13  C   UNL     1     -10.606  10.375  68.449  1.00  0.00    -0.208 A  
HETATM   14  H1  UNL     1      -9.536   8.778  64.875  1.00  0.00     0.000 HD 
HETATM   15  C   UNL     1     -10.625   8.085  69.243  1.00  0.00    -0.193 A  
HETATM   16  C   UNL     1     -10.810   9.448  69.471  1.00  0.00    -0.231 A  
BRANCH  13  17
HETATM   17  N   UNL     1     -10.755  11.761  68.621  1.00  0.00    -0.213 NA 
HETATM   18  H   UNL     1     -11.458  12.146  69.251  1.00  0.00     0.000 HD 
BRANCH  17  19
HETATM   19  C   UNL     1      -9.859  12.625  67.858  1.00  0.00    -0.218 C  
BRANCH  19  20
HETATM   20  C   UNL     1     -10.610  13.467  66.851  1.00  0.00    -0.270 A  
HETATM   21  C   UNL     1      -9.917  14.466  66.143  1.00  0.00    -0.328 A  
HETATM   22  C   UNL     1     -10.561  15.215  65.158  1.00  0.00    -0.447 A  
HETATM   23  C   UNL     1     -11.897  14.965  64.872  1.00  0.00    -0.337 A  
HETATM   24  C   UNL     1     -12.597  13.971  65.542  1.00  0.00    -0.543 A  
HETATM   25  F   UNL     1     -12.513  15.686  63.925  1.00  0.00    -0.398 F  
HETATM   26  C   UNL     1     -11.954  13.215  66.522  1.00  0.00    -0.459 A  
ENDBRANCH  19  20
ENDBRANCH  17  19
ENDBRANCH  13  17
ENDBRANCH   6   8
ENDBRANCH   3   4
ENDBRANCH   2   3
TORSDOF 6
ENDMDL
MODEL      131
REMARK 921   NORMALIZED FREE ENERGY PREDICTED BY IDOCK:   -4.37 KCAL/MOL
REMARK 922        TOTAL FREE ENERGY PREDICTED BY IDOCK:   -6.61 KCAL/MOL
REMARK 923 INTER-LIGAND FREE ENERGY PREDICTED BY IDOCK:   -5.90 KCAL/MOL
REMARK 924 INTRA-LIGAND FREE ENERGY PREDICTED BY IDOCK:   -0.71 KCAL/MOL
REMARK 927      BINDING AFFINITY PREDICTED BY RF-SCORE:    0.00 PKD
ROOT
HETATM    1  C   UNL     1     -12.244  13.142  63.462  1.00  0.00    -0.552 C  
HETATM    2  C   UNL     1     -12.177  14.320  64.419  1.00  0.00    -0.447 C  
ENDROOT
BRANCH   2   3
HETATM    3  O   UNL     1     -10.796  14.670  64.586  1.00  0.00    -0.385 OA 
BRANCH   3   4
HETATM    4  C   UNL     1     -10.255  14.365  65.793  1.00  0.00    -0.337 C  
HETATM    5  O   UNL     1     -10.235  15.115  66.760  1.00  0.00    -0.255 OA 
HETATM    6  N   UNL     1      -9.891  13.049  65.757  1.00  0.00    -0.403 N  
HETATM    7  H   UNL     1      -9.652  12.628  64.859  1.00  0.00     0.000 HD 
BRANCH   6   8
HETATM    8  C   UNL     1      -9.835  12.252  66.921  1.00  0.00    -0.209 A  
HETATM    9  C   UNL     1      -8.636  11.792  67.493  1.00  0.00    -0.157 A  
HETATM   10  C   UNL     1      -8.717  10.983  68.639  1.00  0.00    -0.161 A  
HETATM   11  N   UNL     1      -7.406  11.872  66.804  1.00  0.00    -0.346 NA 
HETATM   12  H2  UNL     1      -7.267  12.844  66.526  1.00  0.00     0.000 HD 
HETATM   13  C   UNL     1      -9.943  10.677  69.250  1.00  0.00    -0.193 A  
HETATM   14  H1  UNL     1      -6.536  11.538  67.220  1.00  0.00     0.000 HD 
HETATM   15  C   UNL     1     -11.061  11.957  67.522  1.00  0.00    -0.332 A  
HETATM   16  C   UNL     1     -11.108  11.211  68.699  1.00  0.00    -0.293 A  
BRANCH  13  17
HETATM   17  N   UNL     1      -9.926   9.900  70.419  1.00  0.00    -0.373 NA 
HETATM   18  H   UNL     1      -9.267  10.089  71.175  1.00  0.00     0.000 HD 
BRANCH  17  19
HETATM   19  C   UNL     1     -10.892   8.809  70.505  1.00  0.00    -0.233 C  
BRANCH  19  20
HETATM   20  C   UNL     1     -10.352   7.528  69.910  1.00  0.00    -0.224 A  
HETATM   21  C   UNL     1      -9.035   7.135  70.212  1.00  0.00    -0.152 A  
HETATM   22  C   UNL     1      -8.528   5.926  69.736  1.00  0.00    -0.125 A  
HETATM   23  C   UNL     1      -9.336   5.101  68.963  1.00  0.00    -0.121 A  
HETATM   24  C   UNL     1     -10.645   5.456  68.670  1.00  0.00    -0.167 A  
HETATM   25  F   UNL     1      -8.846   3.940  68.509  1.00  0.00    -0.103 F  
HETATM   26  C   UNL     1     -11.159   6.661  69.150  1.00  0.00    -0.332 A  
ENDBRANCH  19  20
ENDBRANCH  17  19
ENDBRANCH  13  17
ENDBRANCH   6   8
ENDBRANCH   3   4
ENDBRANCH   2   3
TORSDOF 6
ENDMDL
MODEL      132
REMARK 921   NORMALIZED FREE ENERGY PREDICTED BY IDOCK:   -4.37 KCAL/MOL
REMARK 922        TOTAL FREE ENERGY PREDICTED BY IDOCK:   -6.61 KCAL/MOL
REMARK 923 INTER-LIGAND FREE ENERGY PREDICTED BY IDOCK:   -5.81 KCAL/MOL
REMARK 924 INTRA-LIGAND FREE ENERGY PREDICTED BY IDOCK:   -0.80 KCAL/MOL
REMARK 927      BINDING AFFINITY PREDICTED BY RF-SCORE:    0.00 PKD
ROOT
HETATM    1  C   UNL     1      -9.865   3.559  64.210  1.00  0.00    -0.179 C  
HETATM    2  C   UNL     1      -8.822   3.589  65.315  1.00  0.00    -0.124 C  
ENDROOT
BRANCH   2   3
HETATM    3  O   UNL     1      -7.731   4.403  64.864  1.00  0.00    -0.079 OA 
BRANCH   3   4
HETATM    4  C   UNL     1      -7.902   5.743  65.001  1.00  0.00    -0.107 C  
HETATM    5  O   UNL     1      -7.976   6.536  64.073  1.00  0.00    -0.114 OA 
HETATM    6  N   UNL     1      -8.120   5.993  66.326  1.00  0.00    -0.109 N  
HETATM    7  H   UNL     1      -7.729   5.355  67.020  1.00  0.00     0.000 HD 
BRANCH   6   8
HETATM    8  C   UNL     1      -8.869   7.105  66.768  1.00  0.00    -0.130 A  
HETATM    9  C   UNL     1     -10.259   7.077  66.973  1.00  0.00    -0.260 A  
HETATM   10  C   UNL     1     -10.892   8.260  67.390  1.00  0.00    -0.105 A  
HETATM   11  N   UNL     1     -11.057   6.009  66.505  1.00  0.00    -0.761 NA 
HETATM   12  H2  UNL     1     -10.668   5.143  66.877  1.00  0.00     0.000 HD 
HETATM   13  C   UNL     1     -10.172   9.434  67.659  1.00  0.00    -0.227 A  
HETATM   14  H1  UNL     1     -12.066   5.989  66.654  1.00  0.00     0.000 HD 
HETATM   15  C   UNL     1      -8.141   8.267  67.037  1.00  0.00    -0.104 A  
HETATM   16  C   UNL     1      -8.785   9.407  67.517  1.00  0.00    -0.123 A  
BRANCH  13  17
HETATM   17  N   UNL     1     -10.881  10.557  68.117  1.00  0.00    -0.233 NA 
HETATM   18  H   UNL     1     -11.722  10.460  68.685  1.00  0.00     0.000 HD 
BRANCH  17  19
HETATM   19  C   UNL     1     -10.361  11.868  67.742  1.00  0.00    -0.198 C  
BRANCH  19  20
HETATM   20  C   UNL     1     -10.910  12.335  66.413  1.00  0.00    -0.299 A  
HETATM   21  C   UNL     1     -10.360  11.816  65.226  1.00  0.00    -0.317 A  
HETATM   22  C   UNL     1     -10.887  12.173  63.984  1.00  0.00    -0.436 A  
HETATM   23  C   UNL     1     -11.970  13.042  63.924  1.00  0.00    -0.485 A  
HETATM   24  C   UNL     1     -12.543  13.550  65.081  1.00  0.00    -0.485 A  
HETATM   25  F   UNL     1     -12.474  13.381  62.730  1.00  0.00    -0.462 F  
HETATM   26  C   UNL     1     -12.023  13.191  66.325  1.00  0.00    -0.473 A  
ENDBRANCH  19  20
ENDBRANCH  17  19
ENDBRANCH  13  17
ENDBRANCH   6   8
ENDBRANCH   3   4
ENDBRANCH   2   3
TORSDOF 6
ENDMDL
MODEL      133
REMARK 921   NORMALIZED FREE ENERGY PREDICTED BY IDOCK:   -4.36 KCAL/MOL
REMARK 922        TOTAL FREE ENERGY PREDICTED BY IDOCK:   -6.60 KCAL/MOL
REMARK 923 INTER-LIGAND FREE ENERGY PREDICTED BY IDOCK:   -5.99 KCAL/MOL
REMARK 924 INTRA-LIGAND FREE ENERGY PREDICTED BY IDOCK:   -0.61 KCAL/MOL
REMARK 927      BINDING AFFINITY PREDICTED BY RF-SCORE:    0.00 PKD
ROOT
HETATM    1  C   UNL     1     -11.928  12.566  63.471  1.00  0.00    -0.629 C  
HETATM    2  C   UNL     1     -11.082  13.519  64.297  1.00  0.00    -0.351 C  
ENDROOT
BRANCH   2   3
HETATM    3  O   UNL     1     -11.598  13.515  65.635  1.00  0.00    -0.312 OA 
BRANCH   3   4
HETATM    4  C   UNL     1     -10.883  12.798  66.539  1.00  0.00    -0.256 C  
HETATM    5  O   UNL     1      -9.856  13.183  67.082  1.00  0.00    -0.226 OA 
HETATM    6  N   UNL     1     -11.599  11.670  66.825  1.00  0.00    -0.237 N  
HETATM    7  H   UNL     1     -12.235  11.298  66.118  1.00  0.00     0.000 HD 
BRANCH   6   8
HETATM    8  C   UNL     1     -11.488  11.002  68.063  1.00  0.00    -0.290 A  
HETATM    9  C   UNL     1     -10.850   9.760  68.225  1.00  0.00    -0.210 A  
HETATM   10  C   UNL     1     -10.830   9.188  69.508  1.00  0.00    -0.194 A  
HETATM   11  N   UNL     1     -10.495   8.959  67.118  1.00  0.00    -0.283 NA 
HETATM   12  H2  UNL     1      -9.922   9.526  66.492  1.00  0.00     0.000 HD 
HETATM   13  C   UNL     1     -11.373   9.843  70.624  1.00  0.00    -0.339 A  
HETATM   14  H1  UNL     1     -10.031   8.058  67.235  1.00  0.00     0.000 HD 
HETATM   15  C   UNL     1     -12.029  11.666  69.168  1.00  0.00    -0.378 A  
HETATM   16  C   UNL     1     -11.934  11.107  70.441  1.00  0.00    -0.469 A  
BRANCH  13  17
HETATM   17  N   UNL     1     -11.268   9.216  71.876  1.00  0.00    -0.370 NA 
HETATM   18  H   UNL     1     -11.192   9.758  72.738  1.00  0.00     0.000 HD 
BRANCH  17  19
HETATM   19  C   UNL     1     -11.272   7.757  71.892  1.00  0.00    -0.265 C  
BRANCH  19  20
HETATM   20  C   UNL     1     -10.019   7.196  72.527  1.00  0.00    -0.196 A  
HETATM   21  C   UNL     1      -9.273   8.007  73.401  1.00  0.00    -0.332 A  
HETATM   22  C   UNL     1      -8.151   7.500  74.057  1.00  0.00    -0.202 A  
HETATM   23  C   UNL     1      -7.774   6.178  73.848  1.00  0.00    -0.093 A  
HETATM   24  C   UNL     1      -8.506   5.352  73.006  1.00  0.00    -0.118 A  
HETATM   25  F   UNL     1      -6.697   5.694  74.480  1.00  0.00    -0.069 F  
HETATM   26  C   UNL     1      -9.633   5.854  72.354  1.00  0.00    -0.168 A  
ENDBRANCH  19  20
ENDBRANCH  17  19
ENDBRANCH  13  17
ENDBRANCH   6   8
ENDBRANCH   3   4
ENDBRANCH   2   3
TORSDOF 6
ENDMDL
MODEL      134
REMARK 921   NORMALIZED FREE ENERGY PREDICTED BY IDOCK:   -4.36 KCAL/MOL
REMARK 922        TOTAL FREE ENERGY PREDICTED BY IDOCK:   -6.59 KCAL/MOL
REMARK 923 INTER-LIGAND FREE ENERGY PREDICTED BY IDOCK:   -5.92 KCAL/MOL
REMARK 924 INTRA-LIGAND FREE ENERGY PREDICTED BY IDOCK:   -0.67 KCAL/MOL
REMARK 927      BINDING AFFINITY PREDICTED BY RF-SCORE:    0.00 PKD
ROOT
HETATM    1  C   UNL     1     -10.128   3.326  63.120  1.00  0.00    -0.141 C  
HETATM    2  C   UNL     1      -9.068   2.886  64.115  1.00  0.00    -0.109 C  
ENDROOT
BRANCH   2   3
HETATM    3  O   UNL     1      -7.925   3.734  63.940  1.00  0.00    -0.086 OA 
BRANCH   3   4
HETATM    4  C   UNL     1      -8.045   4.993  64.431  1.00  0.00    -0.117 C  
HETATM    5  O   UNL     1      -8.070   6.010  63.750  1.00  0.00    -0.118 OA 
HETATM    6  N   UNL     1      -8.281   4.888  65.773  1.00  0.00    -0.112 N  
HETATM    7  H   UNL     1      -7.929   4.071  66.272  1.00  0.00     0.000 HD 
BRANCH   6   8
HETATM    8  C   UNL     1      -8.995   5.871  66.491  1.00  0.00    -0.131 A  
HETATM    9  C   UNL     1     -10.396   5.888  66.607  1.00  0.00    -0.226 A  
HETATM   10  C   UNL     1     -10.988   6.938  67.329  1.00  0.00    -0.406 A  
HETATM   11  N   UNL     1     -11.217   5.072  65.799  1.00  0.00    -0.867 NA 
HETATM   12  H2  UNL     1     -10.905   4.107  65.911  1.00  0.00     0.000 HD 
HETATM   13  C   UNL     1     -10.224   7.920  67.976  1.00  0.00    -0.208 A  
HETATM   14  H1  UNL     1     -12.234   5.084  65.883  1.00  0.00     0.000 HD 
HETATM   15  C   UNL     1      -8.223   6.843  67.134  1.00  0.00    -0.118 A  
HETATM   16  C   UNL     1      -8.833   7.832  67.902  1.00  0.00    -0.123 A  
BRANCH  13  17
HETATM   17  N   UNL     1     -10.898   8.907  68.714  1.00  0.00    -0.423 NA 
HETATM   18  H   UNL     1     -11.838   8.750  69.078  1.00  0.00     0.000 HD 
BRANCH  17  19
HETATM   19  C   UNL     1     -10.195  10.166  68.937  1.00  0.00    -0.199 C  
BRANCH  19  20
HETATM   20  C   UNL     1     -10.869  11.322  68.231  1.00  0.00    -0.249 A  
HETATM   21  C   UNL     1     -11.316  12.419  68.989  1.00  0.00    -0.336 A  
HETATM   22  C   UNL     1     -11.880  13.531  68.364  1.00  0.00    -0.408 A  
HETATM   23  C   UNL     1     -11.991  13.555  66.979  1.00  0.00    -0.394 A  
HETATM   24  C   UNL     1     -11.538  12.494  66.208  1.00  0.00    -0.449 A  
HETATM   25  F   UNL     1     -12.532  14.626  66.381  1.00  0.00    -0.356 F  
HETATM   26  C   UNL     1     -10.968  11.383  66.829  1.00  0.00    -0.347 A  
ENDBRANCH  19  20
ENDBRANCH  17  19
ENDBRANCH  13  17
ENDBRANCH   6   8
ENDBRANCH   3   4
ENDBRANCH   2   3
TORSDOF 6
ENDMDL
MODEL      135
REMARK 921   NORMALIZED FREE ENERGY PREDICTED BY IDOCK:   -4.30 KCAL/MOL
REMARK 922        TOTAL FREE ENERGY PREDICTED BY IDOCK:   -6.52 KCAL/MOL
REMARK 923 INTER-LIGAND FREE ENERGY PREDICTED BY IDOCK:   -5.92 KCAL/MOL
REMARK 924 INTRA-LIGAND FREE ENERGY PREDICTED BY IDOCK:   -0.60 KCAL/MOL
REMARK 927      BINDING AFFINITY PREDICTED BY RF-SCORE:    0.00 PKD
ROOT
HETATM    1  C   UNL     1      -8.706  16.918  68.690  1.00  0.00    -0.267 C  
HETATM    2  C   UNL     1      -8.494  16.501  67.245  1.00  0.00    -0.180 C  
ENDROOT
BRANCH   2   3
HETATM    3  O   UNL     1      -9.526  15.567  66.903  1.00  0.00    -0.214 OA 
BRANCH   3   4
HETATM    4  C   UNL     1      -9.167  14.258  66.928  1.00  0.00    -0.254 C  
HETATM    5  O   UNL     1      -8.126  13.828  67.405  1.00  0.00    -0.171 OA 
HETATM    6  N   UNL     1     -10.232  13.534  66.472  1.00  0.00    -0.277 N  
HETATM    7  H   UNL     1     -10.886  13.973  65.824  1.00  0.00     0.000 HD 
BRANCH   6   8
HETATM    8  C   UNL     1     -10.458  12.198  66.868  1.00  0.00    -0.225 A  
HETATM    9  C   UNL     1     -11.261  11.835  67.964  1.00  0.00    -0.263 A  
HETATM   10  C   UNL     1     -11.385  10.469  68.270  1.00  0.00    -0.332 A  
HETATM   11  N   UNL     1     -11.696  12.786  68.913  1.00  0.00    -0.310 NA 
HETATM   12  H2  UNL     1     -12.173  13.534  68.409  1.00  0.00     0.000 HD 
HETATM   13  C   UNL     1     -10.784   9.473  67.486  1.00  0.00    -0.245 A  
HETATM   14  H1  UNL     1     -12.278  12.522  69.708  1.00  0.00     0.000 HD 
HETATM   15  C   UNL     1      -9.857  11.214  66.078  1.00  0.00    -0.270 A  
HETATM   16  C   UNL     1     -10.055   9.864  66.363  1.00  0.00    -0.308 A  
BRANCH  13  17
HETATM   17  N   UNL     1     -10.999   8.131  67.840  1.00  0.00    -0.478 NA 
HETATM   18  H   UNL     1     -11.871   7.653  67.613  1.00  0.00     0.000 HD 
BRANCH  17  19
HETATM   19  C   UNL     1      -9.919   7.449  68.546  1.00  0.00    -0.165 C  
BRANCH  19  20
HETATM   20  C   UNL     1     -10.397   6.820  69.836  1.00  0.00    -0.229 A  
HETATM   21  C   UNL     1      -9.503   6.034  70.586  1.00  0.00    -0.190 A  
HETATM   22  C   UNL     1      -9.889   5.495  71.814  1.00  0.00    -0.216 A  
HETATM   23  C   UNL     1     -11.166   5.745  72.300  1.00  0.00    -0.278 A  
HETATM   24  C   UNL     1     -12.059   6.535  71.589  1.00  0.00    -0.381 A  
HETATM   25  F   UNL     1     -11.533   5.227  73.480  1.00  0.00    -0.339 F  
HETATM   26  C   UNL     1     -11.675   7.081  70.364  1.00  0.00    -0.326 A  
ENDBRANCH  19  20
ENDBRANCH  17  19
ENDBRANCH  13  17
ENDBRANCH   6   8
ENDBRANCH   3   4
ENDBRANCH   2   3
TORSDOF 6
ENDMDL
MODEL      136
REMARK 921   NORMALIZED FREE ENERGY PREDICTED BY IDOCK:   -4.29 KCAL/MOL
REMARK 922        TOTAL FREE ENERGY PREDICTED BY IDOCK:   -6.51 KCAL/MOL
REMARK 923 INTER-LIGAND FREE ENERGY PREDICTED BY IDOCK:   -5.79 KCAL/MOL
REMARK 924 INTRA-LIGAND FREE ENERGY PREDICTED BY IDOCK:   -0.72 KCAL/MOL
REMARK 927      BINDING AFFINITY PREDICTED BY RF-SCORE:    0.00 PKD
ROOT
HETATM    1  C   UNL     1      -9.158   8.196  66.712  1.00  0.00    -0.191 C  
HETATM    2  C   UNL     1     -10.231   9.242  66.460  1.00  0.00    -0.246 C  
ENDROOT
BRANCH   2   3
HETATM    3  O   UNL     1     -10.970   9.413  67.676  1.00  0.00    -0.223 OA 
BRANCH   3   4
HETATM    4  C   UNL     1     -10.718  10.556  68.362  1.00  0.00    -0.224 C  
HETATM    5  O   UNL     1      -9.668  10.810  68.936  1.00  0.00    -0.188 OA 
HETATM    6  N   UNL     1     -11.776  11.397  68.159  1.00  0.00    -0.307 N  
HETATM    7  H   UNL     1     -12.693  10.995  67.960  1.00  0.00     0.000 HD 
BRANCH   6   8
HETATM    8  C   UNL     1     -11.643  12.800  68.214  1.00  0.00    -0.334 A  
HETATM    9  C   UNL     1     -11.696  13.542  69.407  1.00  0.00    -0.325 A  
HETATM   10  C   UNL     1     -11.575  14.940  69.325  1.00  0.00    -0.330 A  
HETATM   11  N   UNL     1     -12.144  12.970  70.617  1.00  0.00    -0.508 NA 
HETATM   12  H2  UNL     1     -11.587  12.133  70.793  1.00  0.00     0.000 HD 
HETATM   13  C   UNL     1     -11.350  15.596  68.105  1.00  0.00    -0.340 A  
HETATM   14  H1  UNL     1     -12.182  13.508  71.484  1.00  0.00     0.000 HD 
HETATM   15  C   UNL     1     -11.415  13.444  66.994  1.00  0.00    -0.372 A  
HETATM   16  C   UNL     1     -11.229  14.824  66.950  1.00  0.00    -0.347 A  
BRANCH  13  17
HETATM   17  N   UNL     1     -11.196  16.992  68.122  1.00  0.00    -0.172 NA 
HETATM   18  H   UNL     1     -11.859  17.607  67.649  1.00  0.00     0.000 HD 
BRANCH  17  19
HETATM   19  C   UNL     1     -10.047  17.526  68.847  1.00  0.00    -0.346 C  
BRANCH  19  20
HETATM   20  C   UNL     1      -8.776  16.771  68.525  1.00  0.00    -0.245 A  
HETATM   21  C   UNL     1      -8.293  15.823  69.444  1.00  0.00    -0.215 A  
HETATM   22  C   UNL     1      -7.162  15.060  69.150  1.00  0.00    -0.159 A  
HETATM   23  C   UNL     1      -6.516  15.236  67.932  1.00  0.00    -0.156 A  
HETATM   24  C   UNL     1      -6.986  16.150  67.000  1.00  0.00    -0.234 A  
HETATM   25  F   UNL     1      -5.431  14.501  67.652  1.00  0.00    -0.120 F  
HETATM   26  C   UNL     1      -8.120  16.910  67.288  1.00  0.00    -0.207 A  
ENDBRANCH  19  20
ENDBRANCH  17  19
ENDBRANCH  13  17
ENDBRANCH   6   8
ENDBRANCH   3   4
ENDBRANCH   2   3
TORSDOF 6
ENDMDL
MODEL      137
REMARK 921   NORMALIZED FREE ENERGY PREDICTED BY IDOCK:   -4.26 KCAL/MOL
REMARK 922        TOTAL FREE ENERGY PREDICTED BY IDOCK:   -6.46 KCAL/MOL
REMARK 923 INTER-LIGAND FREE ENERGY PREDICTED BY IDOCK:   -6.00 KCAL/MOL
REMARK 924 INTRA-LIGAND FREE ENERGY PREDICTED BY IDOCK:   -0.46 KCAL/MOL
REMARK 927      BINDING AFFINITY PREDICTED BY RF-SCORE:    0.00 PKD
ROOT
HETATM    1  C   UNL     1     -13.756  15.729  72.813  1.00  0.00    -0.639 C  
HETATM    2  C   UNL     1     -14.191  14.973  71.569  1.00  0.00    -0.540 C  
ENDROOT
BRANCH   2   3
HETATM    3  O   UNL     1     -13.607  15.625  70.434  1.00  0.00    -0.236 OA 
BRANCH   3   4
HETATM    4  C   UNL     1     -12.409  15.135  70.026  1.00  0.00    -0.315 C  
HETATM    5  O   UNL     1     -11.625  14.523  70.738  1.00  0.00    -0.275 OA 
HETATM    6  N   UNL     1     -12.331  15.319  68.674  1.00  0.00    -0.560 N  
HETATM    7  H   UNL     1     -12.849  16.090  68.251  1.00  0.00     0.000 HD 
BRANCH   6   8
HETATM    8  C   UNL     1     -11.557  14.481  67.844  1.00  0.00    -0.344 A  
HETATM    9  C   UNL     1     -10.244  14.779  67.440  1.00  0.00    -0.236 A  
HETATM   10  C   UNL     1      -9.590  13.872  66.590  1.00  0.00    -0.297 A  
HETATM   11  N   UNL     1      -9.687  16.064  67.621  1.00  0.00    -0.223 NA 
HETATM   12  H2  UNL     1      -9.774  16.307  68.608  1.00  0.00     0.000 HD 
HETATM   13  C   UNL     1     -10.185  12.667  66.188  1.00  0.00    -0.258 A  
HETATM   14  H1  UNL     1      -8.733  16.281  67.328  1.00  0.00     0.000 HD 
HETATM   15  C   UNL     1     -12.159  13.281  67.453  1.00  0.00    -0.327 A  
HETATM   16  C   UNL     1     -11.460  12.367  66.666  1.00  0.00    -0.429 A  
BRANCH  13  17
HETATM   17  N   UNL     1      -9.440  11.798  65.374  1.00  0.00    -0.366 NA 
HETATM   18  H   UNL     1      -9.674  11.657  64.391  1.00  0.00     0.000 HD 
BRANCH  17  19
HETATM   19  C   UNL     1      -8.315  11.106  65.995  1.00  0.00    -0.115 C  
BRANCH  19  20
HETATM   20  C   UNL     1      -8.274   9.643  65.618  1.00  0.00    -0.121 A  
HETATM   21  C   UNL     1      -7.996   9.288  64.285  1.00  0.00    -0.135 A  
HETATM   22  C   UNL     1      -7.883   7.947  63.916  1.00  0.00    -0.141 A  
HETATM   23  C   UNL     1      -8.040   6.956  64.877  1.00  0.00    -0.109 A  
HETATM   24  C   UNL     1      -8.294   7.282  66.202  1.00  0.00    -0.133 A  
HETATM   25  F   UNL     1      -7.929   5.670  64.520  1.00  0.00    -0.095 F  
HETATM   26  C   UNL     1      -8.401   8.621  66.577  1.00  0.00    -0.108 A  
ENDBRANCH  19  20
ENDBRANCH  17  19
ENDBRANCH  13  17
ENDBRANCH   6   8
ENDBRANCH   3   4
ENDBRANCH   2   3
TORSDOF 6
ENDMDL
MODEL      138
REMARK 921   NORMALIZED FREE ENERGY PREDICTED BY IDOCK:   -4.25 KCAL/MOL
REMARK 922        TOTAL FREE ENERGY PREDICTED BY IDOCK:   -6.45 KCAL/MOL
REMARK 923 INTER-LIGAND FREE ENERGY PREDICTED BY IDOCK:   -6.18 KCAL/MOL
REMARK 924 INTRA-LIGAND FREE ENERGY PREDICTED BY IDOCK:   -0.27 KCAL/MOL
REMARK 927      BINDING AFFINITY PREDICTED BY RF-SCORE:    0.00 PKD
ROOT
HETATM    1  C   UNL     1      -7.258  20.609  67.438  1.00  0.00    -0.391 C  
HETATM    2  C   UNL     1      -7.640  19.928  66.135  1.00  0.00    -0.324 C  
ENDROOT
BRANCH   2   3
HETATM    3  O   UNL     1      -9.071  19.903  66.057  1.00  0.00    -0.374 OA 
BRANCH   3   4
HETATM    4  C   UNL     1      -9.670  18.810  66.594  1.00  0.00    -0.344 C  
HETATM    5  O   UNL     1     -10.785  18.801  67.099  1.00  0.00    -0.429 OA 
HETATM    6  N   UNL     1      -8.873  17.733  66.326  1.00  0.00    -0.216 N  
HETATM    7  H   UNL     1      -7.870  17.881  66.206  1.00  0.00     0.000 HD 
BRANCH   6   8
HETATM    8  C   UNL     1      -9.389  16.425  66.211  1.00  0.00    -0.315 A  
HETATM    9  C   UNL     1      -8.706  15.276  66.648  1.00  0.00    -0.291 A  
HETATM   10  C   UNL     1      -9.319  14.027  66.452  1.00  0.00    -0.242 A  
HETATM   11  N   UNL     1      -7.340  15.315  67.002  1.00  0.00    -0.233 NA 
HETATM   12  H2  UNL     1      -7.221  16.038  67.711  1.00  0.00     0.000 HD 
HETATM   13  C   UNL     1     -10.599  13.905  65.891  1.00  0.00    -0.293 A  
HETATM   14  H1  UNL     1      -6.845  14.481  67.320  1.00  0.00     0.000 HD 
HETATM   15  C   UNL     1     -10.666  16.316  65.655  1.00  0.00    -0.297 A  
HETATM   16  C   UNL     1     -11.280  15.070  65.536  1.00  0.00    -0.344 A  
BRANCH  13  17
HETATM   17  N   UNL     1     -11.153  12.620  65.774  1.00  0.00    -0.288 NA 
HETATM   18  H   UNL     1     -11.065  12.079  64.914  1.00  0.00     0.000 HD 
BRANCH  17  19
HETATM   19  C   UNL     1     -11.859  12.093  66.938  1.00  0.00    -0.222 C  
BRANCH  19  20
HETATM   20  C   UNL     1     -11.069  11.008  67.634  1.00  0.00    -0.363 A  
HETATM   21  C   UNL     1     -10.677   9.871  66.904  1.00  0.00    -0.195 A  
HETATM   22  C   UNL     1      -9.890   8.883  67.496  1.00  0.00    -0.237 A  
HETATM   23  C   UNL     1      -9.484   9.031  68.817  1.00  0.00    -0.148 A  
HETATM   24  C   UNL     1      -9.840  10.153  69.552  1.00  0.00    -0.255 A  
HETATM   25  F   UNL     1      -8.727   8.081  69.382  1.00  0.00    -0.131 F  
HETATM   26  C   UNL     1     -10.622  11.147  68.961  1.00  0.00    -0.251 A  
ENDBRANCH  19  20
ENDBRANCH  17  19
ENDBRANCH  13  17
ENDBRANCH   6   8
ENDBRANCH   3   4
ENDBRANCH   2   3
TORSDOF 6
ENDMDL
MODEL      139
REMARK 921   NORMALIZED FREE ENERGY PREDICTED BY IDOCK:   -4.25 KCAL/MOL
REMARK 922        TOTAL FREE ENERGY PREDICTED BY IDOCK:   -6.45 KCAL/MOL
REMARK 923 INTER-LIGAND FREE ENERGY PREDICTED BY IDOCK:   -5.68 KCAL/MOL
REMARK 924 INTRA-LIGAND FREE ENERGY PREDICTED BY IDOCK:   -0.76 KCAL/MOL
REMARK 927      BINDING AFFINITY PREDICTED BY RF-SCORE:    0.00 PKD
ROOT
HETATM    1  C   UNL     1      -7.864  20.652  67.006  1.00  0.00    -0.307 C  
HETATM    2  C   UNL     1      -8.682  19.790  66.058  1.00  0.00    -0.265 C  
ENDROOT
BRANCH   2   3
HETATM    3  O   UNL     1      -9.921  19.480  66.708  1.00  0.00    -0.338 OA 
BRANCH   3   4
HETATM    4  C   UNL     1     -10.060  18.197  67.128  1.00  0.00    -0.351 C  
HETATM    5  O   UNL     1     -10.799  17.834  68.033  1.00  0.00    -0.354 OA 
HETATM    6  N   UNL     1      -9.353  17.406  66.268  1.00  0.00    -0.246 N  
HETATM    7  H   UNL     1      -8.549  17.804  65.780  1.00  0.00     0.000 HD 
BRANCH   6   8
HETATM    8  C   UNL     1      -9.696  16.058  66.030  1.00  0.00    -0.344 A  
HETATM    9  C   UNL     1      -9.169  14.979  66.761  1.00  0.00    -0.257 A  
HETATM   10  C   UNL     1      -9.573  13.680  66.408  1.00  0.00    -0.280 A  
HETATM   11  N   UNL     1      -8.058  15.135  67.618  1.00  0.00    -0.149 NA 
HETATM   12  H2  UNL     1      -8.275  15.883  68.277  1.00  0.00     0.000 HD 
HETATM   13  C   UNL     1     -10.518  13.442  65.399  1.00  0.00    -0.302 A  
HETATM   14  H1  UNL     1      -7.676  14.352  68.149  1.00  0.00     0.000 HD 
HETATM   15  C   UNL     1     -10.641  15.834  65.025  1.00  0.00    -0.397 A  
HETATM   16  C   UNL     1     -11.077  14.540  64.743  1.00  0.00    -0.400 A  
BRANCH  13  17
HETATM   17  N   UNL     1     -10.897  12.114  65.144  1.00  0.00    -0.291 NA 
HETATM   18  H   UNL     1     -11.622  11.889  64.462  1.00  0.00     0.000 HD 
BRANCH  17  19
HETATM   19  C   UNL     1     -10.209  11.071  65.898  1.00  0.00    -0.254 C  
BRANCH  19  20
HETATM   20  C   UNL     1      -9.057  10.478  65.118  1.00  0.00    -0.227 A  
HETATM   21  C   UNL     1      -9.291   9.980  63.823  1.00  0.00    -0.307 A  
HETATM   22  C   UNL     1      -8.239   9.489  63.050  1.00  0.00    -0.161 A  
HETATM   23  C   UNL     1      -6.948   9.501  63.564  1.00  0.00    -0.103 A  
HETATM   24  C   UNL     1      -6.688  10.006  64.830  1.00  0.00    -0.126 A  
HETATM   25  F   UNL     1      -5.939   9.030  62.818  1.00  0.00    -0.087 F  
HETATM   26  C   UNL     1      -7.736  10.504  65.604  1.00  0.00    -0.139 A  
ENDBRANCH  19  20
ENDBRANCH  17  19
ENDBRANCH  13  17
ENDBRANCH   6   8
ENDBRANCH   3   4
ENDBRANCH   2   3
TORSDOF 6
ENDMDL
MODEL      140
REMARK 921   NORMALIZED FREE ENERGY PREDICTED BY IDOCK:   -4.25 KCAL/MOL
REMARK 922        TOTAL FREE ENERGY PREDICTED BY IDOCK:   -6.44 KCAL/MOL
REMARK 923 INTER-LIGAND FREE ENERGY PREDICTED BY IDOCK:   -5.61 KCAL/MOL
REMARK 924 INTRA-LIGAND FREE ENERGY PREDICTED BY IDOCK:   -0.83 KCAL/MOL
REMARK 927      BINDING AFFINITY PREDICTED BY RF-SCORE:    0.00 PKD
ROOT
HETATM    1  C   UNL     1      -8.407   5.059  73.782  1.00  0.00    -0.105 C  
HETATM    2  C   UNL     1      -9.488   5.764  72.980  1.00  0.00    -0.150 C  
ENDROOT
BRANCH   2   3
HETATM    3  O   UNL     1      -9.339   5.374  71.608  1.00  0.00    -0.144 OA 
BRANCH   3   4
HETATM    4  C   UNL     1     -10.019   6.127  70.706  1.00  0.00    -0.189 C  
HETATM    5  O   UNL     1     -11.019   5.761  70.103  1.00  0.00    -0.326 OA 
HETATM    6  N   UNL     1      -9.474   7.379  70.724  1.00  0.00    -0.167 N  
HETATM    7  H   UNL     1      -8.495   7.486  70.992  1.00  0.00     0.000 HD 
BRANCH   6   8
HETATM    8  C   UNL     1     -10.218   8.529  70.386  1.00  0.00    -0.195 A  
HETATM    9  C   UNL     1     -10.273   9.068  69.089  1.00  0.00    -0.205 A  
HETATM   10  C   UNL     1     -11.031  10.234  68.887  1.00  0.00    -0.279 A  
HETATM   11  N   UNL     1      -9.382   8.655  68.075  1.00  0.00    -0.136 NA 
HETATM   12  H2  UNL     1      -9.449   7.640  67.995  1.00  0.00     0.000 HD 
HETATM   13  C   UNL     1     -11.770  10.830  69.921  1.00  0.00    -0.333 A  
HETATM   14  H1  UNL     1      -9.422   9.046  67.133  1.00  0.00     0.000 HD 
HETATM   15  C   UNL     1     -10.952   9.112  71.423  1.00  0.00    -0.414 A  
HETATM   16  C   UNL     1     -11.752  10.227  71.179  1.00  0.00    -0.430 A  
BRANCH  13  17
HETATM   17  N   UNL     1     -12.536  11.967  69.619  1.00  0.00     0.015 NA 
HETATM   18  H   UNL     1     -13.469  11.888  69.214  1.00  0.00     0.000 HD 
BRANCH  17  19
HETATM   19  C   UNL     1     -11.939  13.267  69.909  1.00  0.00    -0.330 C  
BRANCH  19  20
HETATM   20  C   UNL     1     -11.431  13.947  68.658  1.00  0.00    -0.333 A  
HETATM   21  C   UNL     1     -12.064  13.683  67.430  1.00  0.00    -0.375 A  
HETATM   22  C   UNL     1     -11.665  14.344  66.268  1.00  0.00    -0.394 A  
HETATM   23  C   UNL     1     -10.638  15.278  66.330  1.00  0.00    -0.308 A  
HETATM   24  C   UNL     1     -10.012  15.572  67.533  1.00  0.00    -0.230 A  
HETATM   25  F   UNL     1     -10.259  15.912  65.212  1.00  0.00    -0.345 F  
HETATM   26  C   UNL     1     -10.412  14.918  68.699  1.00  0.00    -0.242 A  
ENDBRANCH  19  20
ENDBRANCH  17  19
ENDBRANCH  13  17
ENDBRANCH   6   8
ENDBRANCH   3   4
ENDBRANCH   2   3
TORSDOF 6
ENDMDL
MODEL      141
REMARK 921   NORMALIZED FREE ENERGY PREDICTED BY IDOCK:   -4.24 KCAL/MOL
REMARK 922        TOTAL FREE ENERGY PREDICTED BY IDOCK:   -6.43 KCAL/MOL
REMARK 923 INTER-LIGAND FREE ENERGY PREDICTED BY IDOCK:   -5.70 KCAL/MOL
REMARK 924 INTRA-LIGAND FREE ENERGY PREDICTED BY IDOCK:   -0.73 KCAL/MOL
REMARK 927      BINDING AFFINITY PREDICTED BY RF-SCORE:    0.00 PKD
ROOT
HETATM    1  C   UNL     1      -8.210  10.306  65.845  1.00  0.00    -0.148 C  
HETATM    2  C   UNL     1      -9.623  10.387  65.292  1.00  0.00    -0.259 C  
ENDROOT
BRANCH   2   3
HETATM    3  O   UNL     1     -10.487  10.808  66.356  1.00  0.00    -0.245 OA 
BRANCH   3   4
HETATM    4  C   UNL     1     -10.759   9.870  67.298  1.00  0.00    -0.238 C  
HETATM    5  O   UNL     1     -10.784   8.663  67.096  1.00  0.00    -0.270 OA 
HETATM    6  N   UNL     1     -10.843  10.512  68.501  1.00  0.00    -0.217 N  
HETATM    7  H   UNL     1     -11.126  11.492  68.518  1.00  0.00     0.000 HD 
BRANCH   6   8
HETATM    8  C   UNL     1     -10.552   9.864  69.721  1.00  0.00    -0.264 A  
HETATM    9  C   UNL     1     -11.527   9.521  70.674  1.00  0.00    -0.297 A  
HETATM   10  C   UNL     1     -11.104   8.901  71.861  1.00  0.00    -0.442 A  
HETATM   11  N   UNL     1     -12.843  10.028  70.605  1.00  0.00    -0.539 NA 
HETATM   12  H2  UNL     1     -13.215   9.805  69.681  1.00  0.00     0.000 HD 
HETATM   13  C   UNL     1      -9.759   8.569  72.090  1.00  0.00    -0.317 A  
HETATM   14  H1  UNL     1     -13.551   9.779  71.296  1.00  0.00     0.000 HD 
HETATM   15  C   UNL     1      -9.210   9.535  69.936  1.00  0.00    -0.242 A  
HETATM   16  C   UNL     1      -8.828   8.857  71.092  1.00  0.00    -0.297 A  
BRANCH  13  17
HETATM   17  N   UNL     1      -9.433   7.909  73.286  1.00  0.00    -0.279 NA 
HETATM   18  H   UNL     1      -8.543   8.072  73.757  1.00  0.00     0.000 HD 
BRANCH  17  19
HETATM   19  C   UNL     1     -10.422   6.981  73.824  1.00  0.00    -0.354 C  
BRANCH  19  20
HETATM   20  C   UNL     1     -10.171   5.561  73.368  1.00  0.00    -0.222 A  
HETATM   21  C   UNL     1      -8.889   5.207  72.910  1.00  0.00    -0.117 A  
HETATM   22  C   UNL     1      -8.603   3.890  72.546  1.00  0.00    -0.104 A  
HETATM   23  C   UNL     1      -9.595   2.922  72.645  1.00  0.00    -0.112 A  
HETATM   24  C   UNL     1     -10.861   3.243  73.114  1.00  0.00    -0.241 A  
HETATM   25  F   UNL     1      -9.318   1.659  72.296  1.00  0.00    -0.093 F  
HETATM   26  C   UNL     1     -11.149   4.557  73.485  1.00  0.00    -0.398 A  
ENDBRANCH  19  20
ENDBRANCH  17  19
ENDBRANCH  13  17
ENDBRANCH   6   8
ENDBRANCH   3   4
ENDBRANCH   2   3
TORSDOF 6
ENDMDL
MODEL      142
REMARK 921   NORMALIZED FREE ENERGY PREDICTED BY IDOCK:   -4.23 KCAL/MOL
REMARK 922        TOTAL FREE ENERGY PREDICTED BY IDOCK:   -6.42 KCAL/MOL
REMARK 923 INTER-LIGAND FREE ENERGY PREDICTED BY IDOCK:   -5.92 KCAL/MOL
REMARK 924 INTRA-LIGAND FREE ENERGY PREDICTED BY IDOCK:   -0.50 KCAL/MOL
REMARK 927      BINDING AFFINITY PREDICTED BY RF-SCORE:    0.00 PKD
ROOT
HETATM    1  C   UNL     1      -9.388   4.164  65.009  1.00  0.00    -0.165 C  
HETATM    2  C   UNL     1      -8.939   4.803  66.312  1.00  0.00    -0.119 C  
ENDROOT
BRANCH   2   3
HETATM    3  O   UNL     1      -8.255   6.021  65.990  1.00  0.00    -0.114 OA 
BRANCH   3   4
HETATM    4  C   UNL     1      -8.589   7.100  66.744  1.00  0.00    -0.124 C  
HETATM    5  O   UNL     1      -7.945   7.510  67.700  1.00  0.00    -0.114 OA 
HETATM    6  N   UNL     1      -9.659   7.701  66.145  1.00  0.00    -0.422 N  
HETATM    7  H   UNL     1     -10.292   7.133  65.581  1.00  0.00     0.000 HD 
BRANCH   6   8
HETATM    8  C   UNL     1      -9.919   9.082  66.279  1.00  0.00    -0.281 A  
HETATM    9  C   UNL     1     -10.563   9.649  67.393  1.00  0.00    -0.268 A  
HETATM   10  C   UNL     1     -10.785  11.036  67.394  1.00  0.00    -0.303 A  
HETATM   11  N   UNL     1     -11.233   8.853  68.347  1.00  0.00    -0.292 NA 
HETATM   12  H2  UNL     1     -10.573   8.154  68.690  1.00  0.00     0.000 HD 
HETATM   13  C   UNL     1     -10.335  11.863  66.353  1.00  0.00    -0.219 A  
HETATM   14  H1  UNL     1     -11.700   9.265  69.156  1.00  0.00     0.000 HD 
HETATM   15  C   UNL     1      -9.463   9.896  65.238  1.00  0.00    -0.331 A  
HETATM   16  C   UNL     1      -9.635  11.278  65.298  1.00  0.00    -0.265 A  
BRANCH  13  17
HETATM   17  N   UNL     1     -10.561  13.245  66.459  1.00  0.00    -0.283 NA 
HETATM   18  H   UNL     1     -11.491  13.644  66.329  1.00  0.00     0.000 HD 
BRANCH  17  19
HETATM   19  C   UNL     1      -9.407  14.086  66.762  1.00  0.00    -0.277 C  
BRANCH  19  20
HETATM   20  C   UNL     1      -9.791  15.541  66.909  1.00  0.00    -0.245 A  
HETATM   21  C   UNL     1     -10.193  16.261  65.770  1.00  0.00    -0.390 A  
HETATM   22  C   UNL     1     -10.619  17.585  65.879  1.00  0.00    -0.203 A  
HETATM   23  C   UNL     1     -10.653  18.192  67.129  1.00  0.00    -0.344 A  
HETATM   24  C   UNL     1     -10.283  17.496  68.271  1.00  0.00    -0.365 A  
HETATM   25  F   UNL     1     -11.064  19.463  67.231  1.00  0.00    -0.566 F  
HETATM   26  C   UNL     1      -9.862  16.170  68.166  1.00  0.00    -0.227 A  
ENDBRANCH  19  20
ENDBRANCH  17  19
ENDBRANCH  13  17
ENDBRANCH   6   8
ENDBRANCH   3   4
ENDBRANCH   2   3
TORSDOF 6
ENDMDL
MODEL      143
REMARK 921   NORMALIZED FREE ENERGY PREDICTED BY IDOCK:   -4.23 KCAL/MOL
REMARK 922        TOTAL FREE ENERGY PREDICTED BY IDOCK:   -6.41 KCAL/MOL
REMARK 923 INTER-LIGAND FREE ENERGY PREDICTED BY IDOCK:   -5.80 KCAL/MOL
REMARK 924 INTRA-LIGAND FREE ENERGY PREDICTED BY IDOCK:   -0.61 KCAL/MOL
REMARK 927      BINDING AFFINITY PREDICTED BY RF-SCORE:    0.00 PKD
ROOT
HETATM    1  C   UNL     1      -8.459   6.954  72.663  1.00  0.00    -0.125 C  
HETATM    2  C   UNL     1      -8.297   7.279  71.188  1.00  0.00    -0.112 C  
ENDROOT
BRANCH   2   3
HETATM    3  O   UNL     1      -9.505   6.891  70.520  1.00  0.00    -0.168 OA 
BRANCH   3   4
HETATM    4  C   UNL     1      -9.941   7.738  69.553  1.00  0.00    -0.187 C  
HETATM    5  O   UNL     1     -10.679   7.423  68.629  1.00  0.00    -0.183 OA 
HETATM    6  N   UNL     1      -9.529   8.995  69.895  1.00  0.00    -0.168 N  
HETATM    7  H   UNL     1      -8.688   9.100  70.463  1.00  0.00     0.000 HD 
BRANCH   6   8
HETATM    8  C   UNL     1     -10.228  10.151  69.488  1.00  0.00    -0.236 A  
HETATM    9  C   UNL     1     -11.497  10.508  69.978  1.00  0.00    -0.316 A  
HETATM   10  C   UNL     1     -12.098  11.674  69.473  1.00  0.00    -0.336 A  
HETATM   11  N   UNL     1     -12.287   9.604  70.720  1.00  0.00    -0.451 NA 
HETATM   12  H2  UNL     1     -11.728   9.275  71.508  1.00  0.00     0.000 HD 
HETATM   13  C   UNL     1     -11.447  12.507  68.550  1.00  0.00    -0.305 A  
HETATM   14  H1  UNL     1     -13.208   9.863  71.075  1.00  0.00     0.000 HD 
HETATM   15  C   UNL     1      -9.569  10.976  68.572  1.00  0.00    -0.187 A  
HETATM   16  C   UNL     1     -10.159  12.163  68.141  1.00  0.00    -0.206 A  
BRANCH  13  17
HETATM   17  N   UNL     1     -12.104  13.676  68.134  1.00  0.00    -0.379 NA 
HETATM   18  H   UNL     1     -12.661  13.699  67.279  1.00  0.00     0.000 HD 
BRANCH  17  19
HETATM   19  C   UNL     1     -11.956  14.858  68.978  1.00  0.00    -0.272 C  
BRANCH  19  20
HETATM   20  C   UNL     1     -11.143  15.938  68.300  1.00  0.00    -0.345 A  
HETATM   21  C   UNL     1     -10.769  17.076  69.037  1.00  0.00    -0.271 A  
HETATM   22  C   UNL     1      -9.962  18.060  68.464  1.00  0.00    -0.395 A  
HETATM   23  C   UNL     1      -9.519  17.905  67.156  1.00  0.00    -0.263 A  
HETATM   24  C   UNL     1      -9.856  16.781  66.416  1.00  0.00    -0.312 A  
HETATM   25  F   UNL     1      -8.742  18.851  66.610  1.00  0.00    -0.270 F  
HETATM   26  C   UNL     1     -10.658  15.792  66.988  1.00  0.00    -0.316 A  
ENDBRANCH  19  20
ENDBRANCH  17  19
ENDBRANCH  13  17
ENDBRANCH   6   8
ENDBRANCH   3   4
ENDBRANCH   2   3
TORSDOF 6
ENDMDL
MODEL      144
REMARK 921   NORMALIZED FREE ENERGY PREDICTED BY IDOCK:   -4.21 KCAL/MOL
REMARK 922        TOTAL FREE ENERGY PREDICTED BY IDOCK:   -6.40 KCAL/MOL
REMARK 923 INTER-LIGAND FREE ENERGY PREDICTED BY IDOCK:   -5.63 KCAL/MOL
REMARK 924 INTRA-LIGAND FREE ENERGY PREDICTED BY IDOCK:   -0.77 KCAL/MOL
REMARK 927      BINDING AFFINITY PREDICTED BY RF-SCORE:    0.00 PKD
ROOT
HETATM    1  C   UNL     1      -6.424   9.909  63.509  1.00  0.00    -0.124 C  
HETATM    2  C   UNL     1      -7.830   9.444  63.171  1.00  0.00    -0.132 C  
ENDROOT
BRANCH   2   3
HETATM    3  O   UNL     1      -8.080   8.237  63.903  1.00  0.00    -0.151 OA 
BRANCH   3   4
HETATM    4  C   UNL     1      -8.476   8.401  65.191  1.00  0.00    -0.160 C  
HETATM    5  O   UNL     1      -7.830   8.055  66.171  1.00  0.00    -0.088 OA 
HETATM    6  N   UNL     1      -9.624   9.142  65.174  1.00  0.00    -0.446 N  
HETATM    7  H   UNL     1     -10.227   9.097  64.352  1.00  0.00     0.000 HD 
BRANCH   6   8
HETATM    8  C   UNL     1     -10.003   9.967  66.255  1.00  0.00    -0.256 A  
HETATM    9  C   UNL     1     -10.497   9.475  67.475  1.00  0.00    -0.275 A  
HETATM   10  C   UNL     1     -10.864  10.403  68.464  1.00  0.00    -0.278 A  
HETATM   11  N   UNL     1     -10.898   8.130  67.625  1.00  0.00    -0.507 NA 
HETATM   12  H2  UNL     1     -10.117   7.537  67.342  1.00  0.00     0.000 HD 
HETATM   13  C   UNL     1     -10.697  11.785  68.286  1.00  0.00    -0.214 A  
HETATM   14  H1  UNL     1     -11.257   7.772  68.511  1.00  0.00     0.000 HD 
HETATM   15  C   UNL     1      -9.829  11.341  66.068  1.00  0.00    -0.267 A  
HETATM   16  C   UNL     1     -10.135  12.236  67.092  1.00  0.00    -0.218 A  
BRANCH  13  17
HETATM   17  N   UNL     1     -11.048  12.638  69.346  1.00  0.00    -0.447 NA 
HETATM   18  H   UNL     1     -10.722  12.467  70.297  1.00  0.00     0.000 HD 
BRANCH  17  19
HETATM   19  C   UNL     1     -11.901  13.778  69.026  1.00  0.00    -0.357 C  
BRANCH  19  20
HETATM   20  C   UNL     1     -11.093  15.022  68.731  1.00  0.00    -0.269 A  
HETATM   21  C   UNL     1     -10.006  15.346  69.564  1.00  0.00    -0.266 A  
HETATM   22  C   UNL     1      -9.198  16.447  69.282  1.00  0.00    -0.155 A  
HETATM   23  C   UNL     1      -9.467  17.225  68.162  1.00  0.00    -0.278 A  
HETATM   24  C   UNL     1     -10.520  16.914  67.313  1.00  0.00    -0.301 A  
HETATM   25  F   UNL     1      -8.688  18.281  67.893  1.00  0.00    -0.248 F  
HETATM   26  C   UNL     1     -11.326  15.809  67.588  1.00  0.00    -0.194 A  
ENDBRANCH  19  20
ENDBRANCH  17  19
ENDBRANCH  13  17
ENDBRANCH   6   8
ENDBRANCH   3   4
ENDBRANCH   2   3
TORSDOF 6
ENDMDL
MODEL      145
REMARK 921   NORMALIZED FREE ENERGY PREDICTED BY IDOCK:   -4.21 KCAL/MOL
REMARK 922        TOTAL FREE ENERGY PREDICTED BY IDOCK:   -6.39 KCAL/MOL
REMARK 923 INTER-LIGAND FREE ENERGY PREDICTED BY IDOCK:   -6.83 KCAL/MOL
REMARK 924 INTRA-LIGAND FREE ENERGY PREDICTED BY IDOCK:    0.44 KCAL/MOL
REMARK 927      BINDING AFFINITY PREDICTED BY RF-SCORE:    0.00 PKD
ROOT
HETATM    1  C   UNL     1     -10.856  13.952  66.394  1.00  0.00    -0.291 C  
HETATM    2  C   UNL     1     -12.119  13.842  67.231  1.00  0.00    -0.357 C  
ENDROOT
BRANCH   2   3
HETATM    3  O   UNL     1     -11.917  14.602  68.430  1.00  0.00    -0.311 OA 
BRANCH   3   4
HETATM    4  C   UNL     1     -12.008  13.905  69.591  1.00  0.00    -0.342 C  
HETATM    5  O   UNL     1     -12.732  14.205  70.530  1.00  0.00    -0.340 OA 
HETATM    6  N   UNL     1     -11.275  12.762  69.440  1.00  0.00    -0.430 N  
HETATM    7  H   UNL     1     -10.487  12.764  68.791  1.00  0.00     0.000 HD 
BRANCH   6   8
HETATM    8  C   UNL     1     -11.570  11.580  70.151  1.00  0.00    -0.249 A  
HETATM    9  C   UNL     1     -10.735  10.449  70.165  1.00  0.00    -0.233 A  
HETATM   10  C   UNL     1     -11.156   9.323  70.893  1.00  0.00    -0.374 A  
HETATM   11  N   UNL     1      -9.660  10.310  69.260  1.00  0.00    -0.216 NA 
HETATM   12  H2  UNL     1      -9.069  11.137  69.348  1.00  0.00     0.000 HD 
HETATM   13  C   UNL     1     -12.343   9.322  71.641  1.00  0.00    -0.372 A  
HETATM   14  H1  UNL     1      -9.054   9.489  69.271  1.00  0.00     0.000 HD 
HETATM   15  C   UNL     1     -12.753  11.591  70.896  1.00  0.00    -0.372 A  
HETATM   16  C   UNL     1     -13.112  10.485  71.665  1.00  0.00    -0.551 A  
BRANCH  13  17
HETATM   17  N   UNL     1     -12.663   8.168  72.375  1.00  0.00    -0.552 NA 
HETATM   18  H   UNL     1     -13.045   8.227  73.319  1.00  0.00     0.000 HD 
BRANCH  17  19
HETATM   19  C   UNL     1     -12.425   6.882  71.729  1.00  0.00    -0.356 C  
BRANCH  19  20
HETATM   20  C   UNL     1     -11.362   6.078  72.444  1.00  0.00    -0.349 A  
HETATM   21  C   UNL     1     -10.069   6.617  72.575  1.00  0.00    -0.189 A  
HETATM   22  C   UNL     1      -9.084   5.934  73.288  1.00  0.00    -0.133 A  
HETATM   23  C   UNL     1      -9.388   4.714  73.879  1.00  0.00    -0.117 A  
HETATM   24  C   UNL     1     -10.661   4.171  73.782  1.00  0.00    -0.321 A  
HETATM   25  F   UNL     1      -8.439   4.061  74.564  1.00  0.00    -0.089 F  
HETATM   26  C   UNL     1     -11.652   4.854  73.076  1.00  0.00    -0.284 A  
ENDBRANCH  19  20
ENDBRANCH  17  19
ENDBRANCH  13  17
ENDBRANCH   6   8
ENDBRANCH   3   4
ENDBRANCH   2   3
TORSDOF 6
ENDMDL
MODEL      146
REMARK 921   NORMALIZED FREE ENERGY PREDICTED BY IDOCK:   -4.14 KCAL/MOL
REMARK 922        TOTAL FREE ENERGY PREDICTED BY IDOCK:   -6.30 KCAL/MOL
REMARK 923 INTER-LIGAND FREE ENERGY PREDICTED BY IDOCK:   -5.59 KCAL/MOL
REMARK 924 INTRA-LIGAND FREE ENERGY PREDICTED BY IDOCK:   -0.71 KCAL/MOL
REMARK 927      BINDING AFFINITY PREDICTED BY RF-SCORE:    0.00 PKD
ROOT
HETATM    1  C   UNL     1      -7.903   5.581  63.673  1.00  0.00    -0.096 C  
HETATM    2  C   UNL     1      -7.965   7.061  64.011  1.00  0.00    -0.075 C  
ENDROOT
BRANCH   2   3
HETATM    3  O   UNL     1      -7.376   7.239  65.306  1.00  0.00    -0.073 OA 
BRANCH   3   4
HETATM    4  C   UNL     1      -7.758   8.355  65.978  1.00  0.00    -0.090 C  
HETATM    5  O   UNL     1      -7.006   9.260  66.315  1.00  0.00    -0.084 OA 
HETATM    6  N   UNL     1      -9.121   8.335  66.061  1.00  0.00    -0.230 N  
HETATM    7  H   UNL     1      -9.602   7.435  66.051  1.00  0.00     0.000 HD 
BRANCH   6   8
HETATM    8  C   UNL     1      -9.886   9.516  66.160  1.00  0.00    -0.272 A  
HETATM    9  C   UNL     1     -10.144  10.371  65.074  1.00  0.00    -0.309 A  
HETATM   10  C   UNL     1     -10.900  11.532  65.310  1.00  0.00    -0.319 A  
HETATM   11  N   UNL     1      -9.443  10.253  63.854  1.00  0.00    -0.289 NA 
HETATM   12  H2  UNL     1      -9.545   9.292  63.527  1.00  0.00     0.000 HD 
HETATM   13  C   UNL     1     -11.443  11.824  66.570  1.00  0.00    -0.255 A  
HETATM   14  H1  UNL     1      -9.631  10.874  63.066  1.00  0.00     0.000 HD 
HETATM   15  C   UNL     1     -10.425   9.795  67.419  1.00  0.00    -0.319 A  
HETATM   16  C   UNL     1     -11.229  10.917  67.609  1.00  0.00    -0.379 A  
BRANCH  13  17
HETATM   17  N   UNL     1     -12.224  12.984  66.704  1.00  0.00    -0.407 NA 
HETATM   18  H   UNL     1     -12.917  13.076  67.447  1.00  0.00     0.000 HD 
BRANCH  17  19
HETATM   19  C   UNL     1     -12.000  14.051  65.734  1.00  0.00    -0.404 C  
BRANCH  19  20
HETATM   20  C   UNL     1     -11.328  15.252  66.361  1.00  0.00    -0.161 A  
HETATM   21  C   UNL     1     -11.221  15.322  67.762  1.00  0.00    -0.327 A  
HETATM   22  C   UNL     1     -10.547  16.382  68.370  1.00  0.00    -0.311 A  
HETATM   23  C   UNL     1      -9.972  17.371  67.582  1.00  0.00    -0.300 A  
HETATM   24  C   UNL     1     -10.045  17.312  66.197  1.00  0.00    -0.312 A  
HETATM   25  F   UNL     1      -9.324  18.386  68.169  1.00  0.00    -0.282 F  
HETATM   26  C   UNL     1     -10.712  16.251  65.584  1.00  0.00    -0.297 A  
ENDBRANCH  19  20
ENDBRANCH  17  19
ENDBRANCH  13  17
ENDBRANCH   6   8
ENDBRANCH   3   4
ENDBRANCH   2   3
TORSDOF 6
ENDMDL
MODEL      147
REMARK 921   NORMALIZED FREE ENERGY PREDICTED BY IDOCK:   -4.10 KCAL/MOL
REMARK 922        TOTAL FREE ENERGY PREDICTED BY IDOCK:   -6.25 KCAL/MOL
REMARK 923 INTER-LIGAND FREE ENERGY PREDICTED BY IDOCK:   -5.49 KCAL/MOL
REMARK 924 INTRA-LIGAND FREE ENERGY PREDICTED BY IDOCK:   -0.76 KCAL/MOL
REMARK 927      BINDING AFFINITY PREDICTED BY RF-SCORE:    0.00 PKD
ROOT
HETATM    1  C   UNL     1      -7.174   3.735  73.553  1.00  0.00    -0.063 C  
HETATM    2  C   UNL     1      -8.240   4.319  72.641  1.00  0.00    -0.097 C  
ENDROOT
BRANCH   2   3
HETATM    3  O   UNL     1      -7.838   4.075  71.287  1.00  0.00    -0.067 OA 
BRANCH   3   4
HETATM    4  C   UNL     1      -8.287   4.969  70.370  1.00  0.00    -0.100 C  
HETATM    5  O   UNL     1      -9.221   4.775  69.603  1.00  0.00    -0.106 OA 
HETATM    6  N   UNL     1      -7.613   6.139  70.576  1.00  0.00    -0.093 N  
HETATM    7  H   UNL     1      -6.680   6.104  70.986  1.00  0.00     0.000 HD 
BRANCH   6   8
HETATM    8  C   UNL     1      -8.165   7.394  70.242  1.00  0.00    -0.132 A  
HETATM    9  C   UNL     1      -7.852   8.095  69.064  1.00  0.00    -0.108 A  
HETATM   10  C   UNL     1      -8.451   9.349  68.859  1.00  0.00    -0.122 A  
HETATM   11  N   UNL     1      -6.764   7.720  68.245  1.00  0.00    -0.064 NA 
HETATM   12  H2  UNL     1      -6.880   6.736  68.003  1.00  0.00     0.000 HD 
HETATM   13  C   UNL     1      -9.383   9.884  69.761  1.00  0.00    -0.221 A  
HETATM   14  H1  UNL     1      -6.537   8.229  67.390  1.00  0.00     0.000 HD 
HETATM   15  C   UNL     1      -9.096   7.916  71.145  1.00  0.00    -0.160 A  
HETATM   16  C   UNL     1      -9.727   9.131  70.883  1.00  0.00    -0.352 A  
BRANCH  13  17
HETATM   17  N   UNL     1      -9.966  11.125  69.454  1.00  0.00    -0.428 NA 
HETATM   18  H   UNL     1      -9.405  11.973  69.378  1.00  0.00     0.000 HD 
BRANCH  17  19
HETATM   19  C   UNL     1     -11.411  11.147  69.249  1.00  0.00    -0.294 C  
BRANCH  19  20
HETATM   20  C   UNL     1     -12.105  12.076  70.219  1.00  0.00    -0.395 A  
HETATM   21  C   UNL     1     -12.809  11.528  71.307  1.00  0.00    -0.463 A  
HETATM   22  C   UNL     1     -13.403  12.356  72.259  1.00  0.00    -0.427 A  
HETATM   23  C   UNL     1     -13.290  13.736  72.133  1.00  0.00    -0.476 A  
HETATM   24  C   UNL     1     -12.583  14.300  71.081  1.00  0.00    -0.432 A  
HETATM   25  F   UNL     1     -13.861  14.529  73.050  1.00  0.00    -0.489 F  
HETATM   26  C   UNL     1     -11.982  13.475  70.130  1.00  0.00    -0.399 A  
ENDBRANCH  19  20
ENDBRANCH  17  19
ENDBRANCH  13  17
ENDBRANCH   6   8
ENDBRANCH   3   4
ENDBRANCH   2   3
TORSDOF 6
ENDMDL
MODEL      148
REMARK 921   NORMALIZED FREE ENERGY PREDICTED BY IDOCK:   -4.10 KCAL/MOL
REMARK 922        TOTAL FREE ENERGY PREDICTED BY IDOCK:   -6.24 KCAL/MOL
REMARK 923 INTER-LIGAND FREE ENERGY PREDICTED BY IDOCK:   -5.64 KCAL/MOL
REMARK 924 INTRA-LIGAND FREE ENERGY PREDICTED BY IDOCK:   -0.60 KCAL/MOL
REMARK 927      BINDING AFFINITY PREDICTED BY RF-SCORE:    0.00 PKD
ROOT
HETATM    1  C   UNL     1      -7.711   3.823  68.765  1.00  0.00    -0.053 C  
HETATM    2  C   UNL     1      -9.214   4.015  68.886  1.00  0.00    -0.148 C  
ENDROOT
BRANCH   2   3
HETATM    3  O   UNL     1      -9.443   5.258  69.561  1.00  0.00    -0.122 OA 
BRANCH   3   4
HETATM    4  C   UNL     1     -10.076   6.214  68.835  1.00  0.00    -0.173 C  
HETATM    5  O   UNL     1     -11.080   6.029  68.161  1.00  0.00    -0.306 OA 
HETATM    6  N   UNL     1      -9.478   7.409  69.122  1.00  0.00    -0.150 N  
HETATM    7  H   UNL     1      -8.500   7.413  69.413  1.00  0.00     0.000 HD 
BRANCH   6   8
HETATM    8  C   UNL     1     -10.168   8.636  69.030  1.00  0.00    -0.207 A  
HETATM    9  C   UNL     1     -10.589   9.205  67.815  1.00  0.00    -0.227 A  
HETATM   10  C   UNL     1     -11.246  10.447  67.857  1.00  0.00    -0.332 A  
HETATM   11  N   UNL     1     -10.129   8.722  66.571  1.00  0.00    -0.289 NA 
HETATM   12  H2  UNL     1     -10.324   7.721  66.533  1.00  0.00     0.000 HD 
HETATM   13  C   UNL     1     -11.537  11.094  69.067  1.00  0.00    -0.324 A  
HETATM   14  H1  UNL     1     -10.435   9.134  65.689  1.00  0.00     0.000 HD 
HETATM   15  C   UNL     1     -10.456   9.270  70.242  1.00  0.00    -0.271 A  
HETATM   16  C   UNL     1     -11.170  10.467  70.259  1.00  0.00    -0.391 A  
BRANCH  13  17
HETATM   17  N   UNL     1     -12.237  12.311  69.017  1.00  0.00    -0.113 NA 
HETATM   18  H   UNL     1     -13.255  12.342  69.065  1.00  0.00     0.000 HD 
BRANCH  17  19
HETATM   19  C   UNL     1     -11.443  13.529  68.893  1.00  0.00    -0.306 C  
BRANCH  19  20
HETATM   20  C   UNL     1     -11.447  14.065  67.479  1.00  0.00    -0.369 A  
HETATM   21  C   UNL     1     -12.400  13.578  66.566  1.00  0.00    -0.382 A  
HETATM   22  C   UNL     1     -12.476  14.098  65.274  1.00  0.00    -0.474 A  
HETATM   23  C   UNL     1     -11.607  15.112  64.891  1.00  0.00    -0.336 A  
HETATM   24  C   UNL     1     -10.672  15.624  65.780  1.00  0.00    -0.350 A  
HETATM   25  F   UNL     1     -11.684  15.610  63.650  1.00  0.00    -0.012 F  
HETATM   26  C   UNL     1     -10.597  15.111  67.076  1.00  0.00    -0.300 A  
ENDBRANCH  19  20
ENDBRANCH  17  19
ENDBRANCH  13  17
ENDBRANCH   6   8
ENDBRANCH   3   4
ENDBRANCH   2   3
TORSDOF 6
ENDMDL
MODEL      149
REMARK 921   NORMALIZED FREE ENERGY PREDICTED BY IDOCK:   -4.09 KCAL/MOL
REMARK 922        TOTAL FREE ENERGY PREDICTED BY IDOCK:   -6.23 KCAL/MOL
REMARK 923 INTER-LIGAND FREE ENERGY PREDICTED BY IDOCK:   -6.19 KCAL/MOL
REMARK 924 INTRA-LIGAND FREE ENERGY PREDICTED BY IDOCK:   -0.04 KCAL/MOL
REMARK 927      BINDING AFFINITY PREDICTED BY RF-SCORE:    0.00 PKD
ROOT
HETATM    1  C   UNL     1     -11.214   6.715  70.001  1.00  0.00    -0.425 C  
HETATM    2  C   UNL     1     -10.811   6.149  68.650  1.00  0.00    -0.332 C  
ENDROOT
BRANCH   2   3
HETATM    3  O   UNL     1      -9.651   6.863  68.204  1.00  0.00    -0.126 OA 
BRANCH   3   4
HETATM    4  C   UNL     1      -9.893   7.961  67.443  1.00  0.00    -0.181 C  
HETATM    5  O   UNL     1     -10.954   8.204  66.884  1.00  0.00    -0.127 OA 
HETATM    6  N   UNL     1      -8.805   8.781  67.551  1.00  0.00    -0.134 N  
HETATM    7  H   UNL     1      -7.894   8.367  67.751  1.00  0.00     0.000 HD 
BRANCH   6   8
HETATM    8  C   UNL     1      -8.900  10.180  67.395  1.00  0.00    -0.131 A  
HETATM    9  C   UNL     1      -8.367  11.104  68.311  1.00  0.00    -0.143 A  
HETATM   10  C   UNL     1      -8.551  12.473  68.054  1.00  0.00    -0.185 A  
HETATM   11  N   UNL     1      -7.921  10.708  69.590  1.00  0.00    -0.365 NA 
HETATM   12  H2  UNL     1      -7.237   9.961  69.465  1.00  0.00     0.000 HD 
HETATM   13  C   UNL     1      -9.194  12.933  66.894  1.00  0.00    -0.234 A  
HETATM   14  H1  UNL     1      -7.533  11.379  70.255  1.00  0.00     0.000 HD 
HETATM   15  C   UNL     1      -9.539  10.626  66.235  1.00  0.00    -0.228 A  
HETATM   16  C   UNL     1      -9.646  11.991  65.970  1.00  0.00    -0.247 A  
BRANCH  13  17
HETATM   17  N   UNL     1      -9.293  14.320  66.696  1.00  0.00    -0.280 NA 
HETATM   18  H   UNL     1      -8.600  14.831  66.149  1.00  0.00     0.000 HD 
BRANCH  17  19
HETATM   19  C   UNL     1     -10.431  14.998  67.308  1.00  0.00    -0.265 C  
BRANCH  19  20
HETATM   20  C   UNL     1     -10.254  16.500  67.320  1.00  0.00    -0.287 A  
HETATM   21  C   UNL     1     -10.344  17.209  66.108  1.00  0.00    -0.327 A  
HETATM   22  C   UNL     1     -10.253  18.601  66.091  1.00  0.00    -0.450 A  
HETATM   23  C   UNL     1     -10.081  19.290  67.285  1.00  0.00    -0.384 A  
HETATM   24  C   UNL     1     -10.011  18.615  68.495  1.00  0.00    -0.430 A  
HETATM   25  F   UNL     1      -9.996  20.628  67.265  1.00  0.00    -0.568 F  
HETATM   26  C   UNL     1     -10.108  17.224  68.518  1.00  0.00    -0.341 A  
ENDBRANCH  19  20
ENDBRANCH  17  19
ENDBRANCH  13  17
ENDBRANCH   6   8
ENDBRANCH   3   4
ENDBRANCH   2   3
TORSDOF 6
ENDMDL
MODEL      150
REMARK 921   NORMALIZED FREE ENERGY PREDICTED BY IDOCK:   -4.08 KCAL/MOL
REMARK 922        TOTAL FREE ENERGY PREDICTED BY IDOCK:   -6.22 KCAL/MOL
REMARK 923 INTER-LIGAND FREE ENERGY PREDICTED BY IDOCK:   -5.49 KCAL/MOL
REMARK 924 INTRA-LIGAND FREE ENERGY PREDICTED BY IDOCK:   -0.73 KCAL/MOL
REMARK 927      BINDING AFFINITY PREDICTED BY RF-SCORE:    0.00 PKD
ROOT
HETATM    1  C   UNL     1      -6.586  15.236  69.286  1.00  0.00    -0.141 C  
HETATM    2  C   UNL     1      -6.370  14.897  67.821  1.00  0.00    -0.155 C  
ENDROOT
BRANCH   2   3
HETATM    3  O   UNL     1      -7.589  14.335  67.318  1.00  0.00    -0.183 OA 
BRANCH   3   4
HETATM    4  C   UNL     1      -7.597  12.986  67.168  1.00  0.00    -0.012 C  
HETATM    5  O   UNL     1      -6.703  12.237  67.536  1.00  0.00    -0.108 OA 
HETATM    6  N   UNL     1      -8.826  12.636  66.686  1.00  0.00    -0.375 N  
HETATM    7  H   UNL     1      -9.348  13.313  66.129  1.00  0.00     0.000 HD 
BRANCH   6   8
HETATM    8  C   UNL     1      -9.398  11.369  66.931  1.00  0.00    -0.181 A  
HETATM    9  C   UNL     1     -10.178  11.071  68.062  1.00  0.00    -0.179 A  
HETATM   10  C   UNL     1     -10.669   9.762  68.203  1.00  0.00    -0.280 A  
HETATM   11  N   UNL     1     -10.236  11.941  69.173  1.00  0.00    -0.417 NA 
HETATM   12  H2  UNL     1     -10.514  12.862  68.834  1.00  0.00     0.000 HD 
HETATM   13  C   UNL     1     -10.452   8.777  67.228  1.00  0.00    -0.283 A  
HETATM   14  H1  UNL     1     -10.802  11.725  69.994  1.00  0.00     0.000 HD 
HETATM   15  C   UNL     1      -9.178  10.397  65.951  1.00  0.00    -0.205 A  
HETATM   16  C   UNL     1      -9.736   9.126  66.082  1.00  0.00    -0.357 A  
BRANCH  13  17
HETATM   17  N   UNL     1     -11.018   7.508  67.429  1.00  0.00    -0.555 NA 
HETATM   18  H   UNL     1     -11.996   7.321  67.207  1.00  0.00     0.000 HD 
BRANCH  17  19
HETATM   19  C   UNL     1     -10.147   6.470  67.969  1.00  0.00    -0.150 C  
BRANCH  19  20
HETATM   20  C   UNL     1     -10.298   6.329  69.467  1.00  0.00    -0.263 A  
HETATM   21  C   UNL     1     -11.553   6.572  70.054  1.00  0.00    -0.455 A  
HETATM   22  C   UNL     1     -11.745   6.386  71.424  1.00  0.00    -0.364 A  
HETATM   23  C   UNL     1     -10.686   5.950  72.210  1.00  0.00    -0.234 A  
HETATM   24  C   UNL     1      -9.444   5.684  71.652  1.00  0.00    -0.173 A  
HETATM   25  F   UNL     1     -10.874   5.771  73.525  1.00  0.00    -0.250 F  
HETATM   26  C   UNL     1      -9.250   5.862  70.282  1.00  0.00    -0.170 A  
ENDBRANCH  19  20
ENDBRANCH  17  19
ENDBRANCH  13  17
ENDBRANCH   6   8
ENDBRANCH   3   4
ENDBRANCH   2   3
TORSDOF 6
ENDMDL
MODEL      151
REMARK 921   NORMALIZED FREE ENERGY PREDICTED BY IDOCK:   -4.07 KCAL/MOL
REMARK 922        TOTAL FREE ENERGY PREDICTED BY IDOCK:   -6.21 KCAL/MOL
REMARK 923 INTER-LIGAND FREE ENERGY PREDICTED BY IDOCK:   -5.79 KCAL/MOL
REMARK 924 INTRA-LIGAND FREE ENERGY PREDICTED BY IDOCK:   -0.42 KCAL/MOL
REMARK 927      BINDING AFFINITY PREDICTED BY RF-SCORE:    0.00 PKD
ROOT
HETATM    1  C   UNL     1      -8.401   5.821  62.365  1.00  0.00    -0.091 C  
HETATM    2  C   UNL     1      -8.196   7.198  62.974  1.00  0.00     0.053 C  
ENDROOT
BRANCH   2   3
HETATM    3  O   UNL     1      -7.634   7.020  64.280  1.00  0.00    -0.097 OA 
BRANCH   3   4
HETATM    4  C   UNL     1      -7.803   8.056  65.140  1.00  0.00    -0.116 C  
HETATM    5  O   UNL     1      -6.895   8.649  65.707  1.00  0.00    -0.066 OA 
HETATM    6  N   UNL     1      -9.127   8.390  65.122  1.00  0.00    -0.417 N  
HETATM    7  H   UNL     1      -9.814   7.671  64.894  1.00  0.00     0.000 HD 
BRANCH   6   8
HETATM    8  C   UNL     1      -9.578   9.697  65.409  1.00  0.00    -0.291 A  
HETATM    9  C   UNL     1      -9.391  10.793  64.549  1.00  0.00    -0.236 A  
HETATM   10  C   UNL     1      -9.865  12.049  64.963  1.00  0.00    -0.210 A  
HETATM   11  N   UNL     1      -8.511  10.729  63.446  1.00  0.00    -0.340 NA 
HETATM   12  H2  UNL     1      -8.781   9.926  62.877  1.00  0.00     0.000 HD 
HETATM   13  C   UNL     1     -10.560  12.221  66.169  1.00  0.00    -0.249 A  
HETATM   14  H1  UNL     1      -8.376  11.524  62.821  1.00  0.00     0.000 HD 
HETATM   15  C   UNL     1     -10.272   9.856  66.612  1.00  0.00    -0.293 A  
HETATM   16  C   UNL     1     -10.793  11.100  66.966  1.00  0.00    -0.338 A  
BRANCH  13  17
HETATM   17  N   UNL     1     -11.038  13.504  66.482  1.00  0.00    -0.297 NA 
HETATM   18  H   UNL     1     -11.837  13.909  65.993  1.00  0.00     0.000 HD 
BRANCH  17  19
HETATM   19  C   UNL     1     -10.342  14.233  67.538  1.00  0.00    -0.248 C  
BRANCH  19  20
HETATM   20  C   UNL     1     -11.148  14.283  68.816  1.00  0.00    -0.276 A  
HETATM   21  C   UNL     1     -11.553  15.532  69.321  1.00  0.00    -0.369 A  
HETATM   22  C   UNL     1     -12.355  15.611  70.460  1.00  0.00    -0.443 A  
HETATM   23  C   UNL     1     -12.761  14.443  71.094  1.00  0.00    -0.352 A  
HETATM   24  C   UNL     1     -12.393  13.199  70.603  1.00  0.00    -0.405 A  
HETATM   25  F   UNL     1     -13.532  14.523  72.187  1.00  0.00    -0.361 F  
HETATM   26  C   UNL     1     -11.596  13.115  69.460  1.00  0.00    -0.347 A  
ENDBRANCH  19  20
ENDBRANCH  17  19
ENDBRANCH  13  17
ENDBRANCH   6   8
ENDBRANCH   3   4
ENDBRANCH   2   3
TORSDOF 6
ENDMDL
MODEL      152
REMARK 921   NORMALIZED FREE ENERGY PREDICTED BY IDOCK:   -4.06 KCAL/MOL
REMARK 922        TOTAL FREE ENERGY PREDICTED BY IDOCK:   -6.19 KCAL/MOL
REMARK 923 INTER-LIGAND FREE ENERGY PREDICTED BY IDOCK:   -5.41 KCAL/MOL
REMARK 924 INTRA-LIGAND FREE ENERGY PREDICTED BY IDOCK:   -0.78 KCAL/MOL
REMARK 927      BINDING AFFINITY PREDICTED BY RF-SCORE:    0.00 PKD
ROOT
HETATM    1  C   UNL     1     -11.567  12.489  63.427  1.00  0.00    -0.547 C  
HETATM    2  C   UNL     1     -12.950  12.197  63.983  1.00  0.00    -0.179 C  
ENDROOT
BRANCH   2   3
HETATM    3  O   UNL     1     -13.268  13.228  64.928  1.00  0.00    -0.703 OA 
BRANCH   3   4
HETATM    4  C   UNL     1     -12.504  13.254  66.049  1.00  0.00    -0.321 C  
HETATM    5  O   UNL     1     -12.156  12.266  66.681  1.00  0.00    -0.612 OA 
HETATM    6  N   UNL     1     -12.091  14.543  66.232  1.00  0.00    -0.345 N  
HETATM    7  H   UNL     1     -12.670  15.303  65.872  1.00  0.00     0.000 HD 
BRANCH   6   8
HETATM    8  C   UNL     1     -10.890  14.860  66.902  1.00  0.00    -0.319 A  
HETATM    9  C   UNL     1     -10.796  15.035  68.294  1.00  0.00    -0.259 A  
HETATM   10  C   UNL     1      -9.545  15.375  68.836  1.00  0.00    -0.220 A  
HETATM   11  N   UNL     1     -11.945  15.164  69.104  1.00  0.00    -0.468 NA 
HETATM   12  H2  UNL     1     -12.542  14.355  68.930  1.00  0.00     0.000 HD 
HETATM   13  C   UNL     1      -8.394  15.485  68.041  1.00  0.00    -0.142 A  
HETATM   14  H1  UNL     1     -11.877  15.290  70.115  1.00  0.00     0.000 HD 
HETATM   15  C   UNL     1      -9.749  14.964  66.101  1.00  0.00    -0.333 A  
HETATM   16  C   UNL     1      -8.508  15.233  66.674  1.00  0.00    -0.264 A  
BRANCH  13  17
HETATM   17  N   UNL     1      -7.177  15.784  68.674  1.00  0.00    -0.129 NA 
HETATM   18  H   UNL     1      -6.648  16.624  68.441  1.00  0.00     0.000 HD 
BRANCH  17  19
HETATM   19  C   UNL     1      -6.702  14.839  69.680  1.00  0.00    -0.166 C  
BRANCH  19  20
HETATM   20  C   UNL     1      -6.443  13.470  69.092  1.00  0.00    -0.108 A  
HETATM   21  C   UNL     1      -5.805  13.372  67.842  1.00  0.00    -0.135 A  
HETATM   22  C   UNL     1      -5.490  12.125  67.301  1.00  0.00    -0.124 A  
HETATM   23  C   UNL     1      -5.803  10.972  68.010  1.00  0.00    -0.042 A  
HETATM   24  C   UNL     1      -6.414  11.043  69.255  1.00  0.00    -0.079 A  
HETATM   25  F   UNL     1      -5.498   9.776  67.489  1.00  0.00    -0.036 F  
HETATM   26  C   UNL     1      -6.725  12.288  69.802  1.00  0.00     0.118 A  
ENDBRANCH  19  20
ENDBRANCH  17  19
ENDBRANCH  13  17
ENDBRANCH   6   8
ENDBRANCH   3   4
ENDBRANCH   2   3
TORSDOF 6
ENDMDL
MODEL      153
REMARK 921   NORMALIZED FREE ENERGY PREDICTED BY IDOCK:   -4.06 KCAL/MOL
REMARK 922        TOTAL FREE ENERGY PREDICTED BY IDOCK:   -6.18 KCAL/MOL
REMARK 923 INTER-LIGAND FREE ENERGY PREDICTED BY IDOCK:   -5.62 KCAL/MOL
REMARK 924 INTRA-LIGAND FREE ENERGY PREDICTED BY IDOCK:   -0.56 KCAL/MOL
REMARK 927      BINDING AFFINITY PREDICTED BY RF-SCORE:    0.00 PKD
ROOT
HETATM    1  C   UNL     1      -9.839  19.674  69.193  1.00  0.00    -0.408 C  
HETATM    2  C   UNL     1     -10.534  19.178  67.936  1.00  0.00    -0.399 C  
ENDROOT
BRANCH   2   3
HETATM    3  O   UNL     1      -9.722  18.142  67.368  1.00  0.00    -0.284 OA 
BRANCH   3   4
HETATM    4  C   UNL     1      -9.563  17.033  68.133  1.00  0.00    -0.266 C  
HETATM    5  O   UNL     1     -10.365  16.639  68.970  1.00  0.00    -0.276 OA 
HETATM    6  N   UNL     1      -8.445  16.386  67.688  1.00  0.00    -0.168 N  
HETATM    7  H   UNL     1      -7.705  16.930  67.243  1.00  0.00     0.000 HD 
BRANCH   6   8
HETATM    8  C   UNL     1      -8.279  14.991  67.823  1.00  0.00    -0.153 A  
HETATM    9  C   UNL     1      -8.711  14.058  66.864  1.00  0.00    -0.164 A  
HETATM   10  C   UNL     1      -8.509  12.693  67.129  1.00  0.00    -0.186 A  
HETATM   11  N   UNL     1      -9.577  14.424  65.810  1.00  0.00    -0.512 NA 
HETATM   12  H2  UNL     1      -9.153  15.208  65.315  1.00  0.00     0.000 HD 
HETATM   13  C   UNL     1      -7.845  12.250  68.282  1.00  0.00    -0.153 A  
HETATM   14  H1  UNL     1      -9.891  13.747  65.114  1.00  0.00     0.000 HD 
HETATM   15  C   UNL     1      -7.613  14.561  68.974  1.00  0.00    -0.124 A  
HETATM   16  C   UNL     1      -7.363  13.205  69.178  1.00  0.00     0.131 A  
BRANCH  13  17
HETATM   17  N   UNL     1      -7.646  10.869  68.444  1.00  0.00    -0.098 NA 
HETATM   18  H   UNL     1      -6.764  10.495  68.795  1.00  0.00     0.000 HD 
BRANCH  17  19
HETATM   19  C   UNL     1      -8.757   9.992  68.089  1.00  0.00    -0.122 C  
BRANCH  19  20
HETATM   20  C   UNL     1      -9.845  10.004  69.139  1.00  0.00    -0.213 A  
HETATM   21  C   UNL     1      -9.668   9.252  70.315  1.00  0.00    -0.274 A  
HETATM   22  C   UNL     1     -10.620   9.294  71.335  1.00  0.00    -0.417 A  
HETATM   23  C   UNL     1     -11.747  10.093  71.187  1.00  0.00    -0.366 A  
HETATM   24  C   UNL     1     -11.933  10.860  70.046  1.00  0.00    -0.429 A  
HETATM   25  F   UNL     1     -12.658  10.132  72.169  1.00  0.00    -0.453 F  
HETATM   26  C   UNL     1     -10.981  10.826  69.027  1.00  0.00    -0.289 A  
ENDBRANCH  19  20
ENDBRANCH  17  19
ENDBRANCH  13  17
ENDBRANCH   6   8
ENDBRANCH   3   4
ENDBRANCH   2   3
TORSDOF 6
ENDMDL
MODEL      154
REMARK 921   NORMALIZED FREE ENERGY PREDICTED BY IDOCK:   -4.05 KCAL/MOL
REMARK 922        TOTAL FREE ENERGY PREDICTED BY IDOCK:   -6.17 KCAL/MOL
REMARK 923 INTER-LIGAND FREE ENERGY PREDICTED BY IDOCK:   -5.42 KCAL/MOL
REMARK 924 INTRA-LIGAND FREE ENERGY PREDICTED BY IDOCK:   -0.75 KCAL/MOL
REMARK 927      BINDING AFFINITY PREDICTED BY RF-SCORE:    0.00 PKD
ROOT
HETATM    1  C   UNL     1      -6.709   6.453  72.871  1.00  0.00    -0.069 C  
HETATM    2  C   UNL     1      -8.171   6.110  73.100  1.00  0.00    -0.114 C  
ENDROOT
BRANCH   2   3
HETATM    3  O   UNL     1      -8.492   4.986  72.270  1.00  0.00    -0.121 OA 
BRANCH   3   4
HETATM    4  C   UNL     1      -9.300   5.249  71.211  1.00  0.00    -0.148 C  
HETATM    5  O   UNL     1     -10.493   5.510  71.290  1.00  0.00    -0.225 OA 
HETATM    6  N   UNL     1      -8.509   5.314  70.100  1.00  0.00    -0.107 N  
HETATM    7  H   UNL     1      -7.637   4.784  70.083  1.00  0.00     0.000 HD 
BRANCH   6   8
HETATM    8  C   UNL     1      -8.856   6.090  68.973  1.00  0.00    -0.121 A  
HETATM    9  C   UNL     1      -9.574   5.589  67.873  1.00  0.00    -0.124 A  
HETATM   10  C   UNL     1      -9.835   6.459  66.800  1.00  0.00    -0.209 A  
HETATM   11  N   UNL     1      -9.779   4.204  67.689  1.00  0.00    -0.156 NA 
HETATM   12  H2  UNL     1     -10.211   3.837  68.537  1.00  0.00     0.000 HD 
HETATM   13  C   UNL     1      -9.453   7.809  66.827  1.00  0.00    -0.197 A  
HETATM   14  H1  UNL     1     -10.300   3.841  66.890  1.00  0.00     0.000 HD 
HETATM   15  C   UNL     1      -8.474   7.434  69.012  1.00  0.00    -0.129 A  
HETATM   16  C   UNL     1      -8.808   8.292  67.966  1.00  0.00    -0.135 A  
BRANCH  13  17
HETATM   17  N   UNL     1      -9.795   8.617  65.731  1.00  0.00    -0.447 NA 
HETATM   18  H   UNL     1     -10.434   8.289  65.006  1.00  0.00     0.000 HD 
BRANCH  17  19
HETATM   19  C   UNL     1      -9.197   9.947  65.674  1.00  0.00    -0.194 C  
BRANCH  19  20
HETATM   20  C   UNL     1     -10.246  11.036  65.629  1.00  0.00    -0.318 A  
HETATM   21  C   UNL     1     -10.832  11.370  64.395  1.00  0.00    -0.397 A  
HETATM   22  C   UNL     1     -11.850  12.322  64.326  1.00  0.00    -0.482 A  
HETATM   23  C   UNL     1     -12.292  12.937  65.492  1.00  0.00    -0.461 A  
HETATM   24  C   UNL     1     -11.744  12.609  66.724  1.00  0.00    -0.460 A  
HETATM   25  F   UNL     1     -13.271  13.849  65.423  1.00  0.00    -0.510 F  
HETATM   26  C   UNL     1     -10.730  11.653  66.797  1.00  0.00    -0.299 A  
ENDBRANCH  19  20
ENDBRANCH  17  19
ENDBRANCH  13  17
ENDBRANCH   6   8
ENDBRANCH   3   4
ENDBRANCH   2   3
TORSDOF 6
ENDMDL
MODEL      155
REMARK 921   NORMALIZED FREE ENERGY PREDICTED BY IDOCK:   -4.04 KCAL/MOL
REMARK 922        TOTAL FREE ENERGY PREDICTED BY IDOCK:   -6.16 KCAL/MOL
REMARK 923 INTER-LIGAND FREE ENERGY PREDICTED BY IDOCK:   -5.61 KCAL/MOL
REMARK 924 INTRA-LIGAND FREE ENERGY PREDICTED BY IDOCK:   -0.56 KCAL/MOL
REMARK 927      BINDING AFFINITY PREDICTED BY RF-SCORE:    0.00 PKD
ROOT
HETATM    1  C   UNL     1      -7.774   2.087  66.698  1.00  0.00    -0.067 C  
HETATM    2  C   UNL     1      -7.920   3.503  67.231  1.00  0.00    -0.082 C  
ENDROOT
BRANCH   2   3
HETATM    3  O   UNL     1      -7.538   4.405  66.184  1.00  0.00    -0.084 OA 
BRANCH   3   4
HETATM    4  C   UNL     1      -8.414   5.409  65.925  1.00  0.00    -0.127 C  
HETATM    5  O   UNL     1      -9.390   5.314  65.192  1.00  0.00    -0.081 OA 
HETATM    6  N   UNL     1      -8.086   6.457  66.737  1.00  0.00    -0.108 N  
HETATM    7  H   UNL     1      -7.118   6.558  67.045  1.00  0.00     0.000 HD 
BRANCH   6   8
HETATM    8  C   UNL     1      -9.040   7.406  67.163  1.00  0.00    -0.130 A  
HETATM    9  C   UNL     1      -9.568   7.449  68.465  1.00  0.00    -0.146 A  
HETATM   10  C   UNL     1     -10.533   8.428  68.757  1.00  0.00    -0.202 A  
HETATM   11  N   UNL     1      -9.382   6.387  69.377  1.00  0.00    -0.142 NA 
HETATM   12  H2  UNL     1      -8.379   6.212  69.452  1.00  0.00     0.000 HD 
HETATM   13  C   UNL     1     -10.931   9.385  67.811  1.00  0.00    -0.055 A  
HETATM   14  H1  UNL     1      -9.765   6.419  70.322  1.00  0.00     0.000 HD 
HETATM   15  C   UNL     1      -9.427   8.356  66.214  1.00  0.00    -0.292 A  
HETATM   16  C   UNL     1     -10.333   9.360  66.551  1.00  0.00    -0.268 A  
BRANCH  13  17
HETATM   17  N   UNL     1     -11.868  10.356  68.204  1.00  0.00    -0.738 NA 
HETATM   18  H   UNL     1     -12.844  10.115  68.374  1.00  0.00     0.000 HD 
BRANCH  17  19
HETATM   19  C   UNL     1     -11.382  11.724  68.357  1.00  0.00    -0.270 C  
BRANCH  19  20
HETATM   20  C   UNL     1     -11.855  12.349  69.650  1.00  0.00    -0.380 A  
HETATM   21  C   UNL     1     -11.754  13.743  69.812  1.00  0.00    -0.367 A  
HETATM   22  C   UNL     1     -12.242  14.361  70.963  1.00  0.00    -0.422 A  
HETATM   23  C   UNL     1     -12.840  13.591  71.953  1.00  0.00    -0.272 A  
HETATM   24  C   UNL     1     -12.970  12.217  71.807  1.00  0.00    -0.437 A  
HETATM   25  F   UNL     1     -13.309  14.188  73.057  1.00  0.00    -0.555 F  
HETATM   26  C   UNL     1     -12.489  11.596  70.654  1.00  0.00    -0.386 A  
ENDBRANCH  19  20
ENDBRANCH  17  19
ENDBRANCH  13  17
ENDBRANCH   6   8
ENDBRANCH   3   4
ENDBRANCH   2   3
TORSDOF 6
ENDMDL
MODEL      156
REMARK 921   NORMALIZED FREE ENERGY PREDICTED BY IDOCK:   -4.01 KCAL/MOL
REMARK 922        TOTAL FREE ENERGY PREDICTED BY IDOCK:   -6.13 KCAL/MOL
REMARK 923 INTER-LIGAND FREE ENERGY PREDICTED BY IDOCK:   -5.43 KCAL/MOL
REMARK 924 INTRA-LIGAND FREE ENERGY PREDICTED BY IDOCK:   -0.70 KCAL/MOL
REMARK 927      BINDING AFFINITY PREDICTED BY RF-SCORE:    0.00 PKD
ROOT
HETATM    1  C   UNL     1      -6.274   3.932  71.575  1.00  0.00    -0.014 C  
HETATM    2  C   UNL     1      -7.634   4.574  71.797  1.00  0.00    -0.075 C  
ENDROOT
BRANCH   2   3
HETATM    3  O   UNL     1      -7.510   5.492  72.891  1.00  0.00    -0.093 OA 
BRANCH   3   4
HETATM    4  C   UNL     1      -8.092   6.705  72.710  1.00  0.00    -0.107 C  
HETATM    5  O   UNL     1      -7.522   7.780  72.836  1.00  0.00    -0.090 OA 
HETATM    6  N   UNL     1      -9.351   6.485  72.227  1.00  0.00    -0.139 N  
HETATM    7  H   UNL     1      -9.824   5.612  72.462  1.00  0.00     0.000 HD 
BRANCH   6   8
HETATM    8  C   UNL     1     -10.020   7.426  71.415  1.00  0.00    -0.186 A  
HETATM    9  C   UNL     1      -9.892   7.478  70.016  1.00  0.00    -0.180 A  
HETATM   10  C   UNL     1     -10.592   8.481  69.324  1.00  0.00    -0.193 A  
HETATM   11  N   UNL     1      -8.884   6.761  69.336  1.00  0.00    -0.135 NA 
HETATM   12  H2  UNL     1      -8.962   5.780  69.606  1.00  0.00     0.000 HD 
HETATM   13  C   UNL     1     -11.447   9.380  69.979  1.00  0.00    -0.077 A  
HETATM   14  H1  UNL     1      -8.791   6.799  68.320  1.00  0.00     0.000 HD 
HETATM   15  C   UNL     1     -10.871   8.314  72.078  1.00  0.00    -0.370 A  
HETATM   16  C   UNL     1     -11.608   9.254  71.359  1.00  0.00    -0.437 A  
BRANCH  13  17
HETATM   17  N   UNL     1     -12.142  10.321  69.202  1.00  0.00    -0.612 NA 
HETATM   18  H   UNL     1     -13.120  10.545  69.387  1.00  0.00     0.000 HD 
BRANCH  17  19
HETATM   19  C   UNL     1     -11.404  10.964  68.120  1.00  0.00    -0.315 C  
BRANCH  19  20
HETATM   20  C   UNL     1     -11.374  12.468  68.272  1.00  0.00    -0.331 A  
HETATM   21  C   UNL     1     -11.107  13.265  67.144  1.00  0.00    -0.308 A  
HETATM   22  C   UNL     1     -11.139  14.657  67.233  1.00  0.00    -0.331 A  
HETATM   23  C   UNL     1     -11.445  15.258  68.448  1.00  0.00    -0.345 A  
HETATM   24  C   UNL     1     -11.733  14.494  69.570  1.00  0.00    -0.361 A  
HETATM   25  F   UNL     1     -11.476  16.595  68.530  1.00  0.00    -0.350 F  
HETATM   26  C   UNL     1     -11.709  13.102  69.483  1.00  0.00    -0.382 A  
ENDBRANCH  19  20
ENDBRANCH  17  19
ENDBRANCH  13  17
ENDBRANCH   6   8
ENDBRANCH   3   4
ENDBRANCH   2   3
TORSDOF 6
ENDMDL
MODEL      157
REMARK 921   NORMALIZED FREE ENERGY PREDICTED BY IDOCK:   -4.00 KCAL/MOL
REMARK 922        TOTAL FREE ENERGY PREDICTED BY IDOCK:   -6.11 KCAL/MOL
REMARK 923 INTER-LIGAND FREE ENERGY PREDICTED BY IDOCK:   -5.58 KCAL/MOL
REMARK 924 INTRA-LIGAND FREE ENERGY PREDICTED BY IDOCK:   -0.53 KCAL/MOL
REMARK 927      BINDING AFFINITY PREDICTED BY RF-SCORE:    0.00 PKD
ROOT
HETATM    1  C   UNL     1      -9.829  17.002  68.840  1.00  0.00    -0.272 C  
HETATM    2  C   UNL     1     -10.226  17.146  67.381  1.00  0.00    -0.321 C  
ENDROOT
BRANCH   2   3
HETATM    3  O   UNL     1     -10.952  15.968  67.006  1.00  0.00    -0.273 OA 
BRANCH   3   4
HETATM    4  C   UNL     1     -10.214  14.974  66.450  1.00  0.00    -0.277 C  
HETATM    5  O   UNL     1      -8.991  14.944  66.423  1.00  0.00    -0.270 OA 
HETATM    6  N   UNL     1     -11.076  13.980  66.083  1.00  0.00    -0.299 N  
HETATM    7  H   UNL     1     -12.040  14.225  65.852  1.00  0.00     0.000 HD 
BRANCH   6   8
HETATM    8  C   UNL     1     -10.679  12.628  66.011  1.00  0.00    -0.269 A  
HETATM    9  C   UNL     1     -10.028  12.064  64.900  1.00  0.00    -0.227 A  
HETATM   10  C   UNL     1      -9.708  10.697  64.942  1.00  0.00    -0.341 A  
HETATM   11  N   UNL     1      -9.951  12.742  63.663  1.00  0.00    -0.715 NA 
HETATM   12  H2  UNL     1      -9.540  13.659  63.835  1.00  0.00     0.000 HD 
HETATM   13  C   UNL     1      -9.967   9.907  66.072  1.00  0.00    -0.268 A  
HETATM   14  H1  UNL     1      -9.478  12.333  62.856  1.00  0.00     0.000 HD 
HETATM   15  C   UNL     1     -10.939  11.851  67.144  1.00  0.00    -0.319 A  
HETATM   16  C   UNL     1     -10.548  10.514  67.186  1.00  0.00    -0.319 A  
BRANCH  13  17
HETATM   17  N   UNL     1      -9.572   8.559  66.045  1.00  0.00    -0.416 NA 
HETATM   18  H   UNL     1     -10.069   7.871  65.479  1.00  0.00     0.000 HD 
BRANCH  17  19
HETATM   19  C   UNL     1      -8.420   8.188  66.860  1.00  0.00    -0.119 C  
BRANCH  19  20
HETATM   20  C   UNL     1      -8.622   6.857  67.549  1.00  0.00    -0.121 A  
HETATM   21  C   UNL     1      -7.501   6.165  68.042  1.00  0.00    -0.089 A  
HETATM   22  C   UNL     1      -7.656   4.968  68.742  1.00  0.00    -0.077 A  
HETATM   23  C   UNL     1      -8.932   4.462  68.960  1.00  0.00    -0.108 A  
HETATM   24  C   UNL     1     -10.055   5.137  68.502  1.00  0.00    -0.214 A  
HETATM   25  F   UNL     1      -9.077   3.313  69.634  1.00  0.00    -0.136 F  
HETATM   26  C   UNL     1      -9.904   6.337  67.807  1.00  0.00    -0.130 A  
ENDBRANCH  19  20
ENDBRANCH  17  19
ENDBRANCH  13  17
ENDBRANCH   6   8
ENDBRANCH   3   4
ENDBRANCH   2   3
TORSDOF 6
ENDMDL
MODEL      158
REMARK 921   NORMALIZED FREE ENERGY PREDICTED BY IDOCK:   -3.96 KCAL/MOL
REMARK 922        TOTAL FREE ENERGY PREDICTED BY IDOCK:   -6.06 KCAL/MOL
REMARK 923 INTER-LIGAND FREE ENERGY PREDICTED BY IDOCK:   -5.45 KCAL/MOL
REMARK 924 INTRA-LIGAND FREE ENERGY PREDICTED BY IDOCK:   -0.60 KCAL/MOL
REMARK 927      BINDING AFFINITY PREDICTED BY RF-SCORE:    0.00 PKD
ROOT
HETATM    1  C   UNL     1     -11.525  15.154  67.342  1.00  0.00    -0.284 C  
HETATM    2  C   UNL     1     -10.988  14.241  66.253  1.00  0.00    -0.317 C  
ENDROOT
BRANCH   2   3
HETATM    3  O   UNL     1     -10.363  13.119  66.891  1.00  0.00    -0.244 OA 
BRANCH   3   4
HETATM    4  C   UNL     1     -11.191  12.310  67.601  1.00  0.00    -0.290 C  
HETATM    5  O   UNL     1     -12.138  11.694  67.131  1.00  0.00    -0.575 OA 
HETATM    6  N   UNL     1     -10.677  12.205  68.862  1.00  0.00    -0.325 N  
HETATM    7  H   UNL     1     -10.112  12.971  69.230  1.00  0.00     0.000 HD 
BRANCH   6   8
HETATM    8  C   UNL     1     -10.900  11.072  69.674  1.00  0.00    -0.183 A  
HETATM    9  C   UNL     1     -11.901  11.004  70.659  1.00  0.00    -0.333 A  
HETATM   10  C   UNL     1     -12.005   9.827  71.418  1.00  0.00    -0.493 A  
HETATM   11  N   UNL     1     -12.594  12.155  71.093  1.00  0.00    -0.330 NA 
HETATM   12  H2  UNL     1     -12.994  12.608  70.270  1.00  0.00     0.000 HD 
HETATM   13  C   UNL     1     -11.183   8.714  71.182  1.00  0.00    -0.272 A  
HETATM   14  H1  UNL     1     -13.321  12.106  71.807  1.00  0.00     0.000 HD 
HETATM   15  C   UNL     1     -10.079   9.969  69.427  1.00  0.00    -0.235 A  
HETATM   16  C   UNL     1     -10.249   8.788  70.148  1.00  0.00    -0.207 A  
BRANCH  13  17
HETATM   17  N   UNL     1     -11.387   7.562  71.959  1.00  0.00    -0.262 NA 
HETATM   18  H   UNL     1     -12.322   7.188  72.122  1.00  0.00     0.000 HD 
BRANCH  17  19
HETATM   19  C   UNL     1     -10.202   6.924  72.523  1.00  0.00    -0.183 C  
BRANCH  19  20
HETATM   20  C   UNL     1      -9.612   5.896  71.583  1.00  0.00    -0.173 A  
HETATM   21  C   UNL     1     -10.474   5.137  70.772  1.00  0.00    -0.263 A  
HETATM   22  C   UNL     1      -9.962   4.229  69.845  1.00  0.00    -0.179 A  
HETATM   23  C   UNL     1      -8.586   4.083  69.718  1.00  0.00    -0.061 A  
HETATM   24  C   UNL     1      -7.714   4.836  70.492  1.00  0.00    -0.058 A  
HETATM   25  F   UNL     1      -8.097   3.211  68.826  1.00  0.00    -0.059 F  
HETATM   26  C   UNL     1      -8.223   5.749  71.416  1.00  0.00    -0.126 A  
ENDBRANCH  19  20
ENDBRANCH  17  19
ENDBRANCH  13  17
ENDBRANCH   6   8
ENDBRANCH   3   4
ENDBRANCH   2   3
TORSDOF 6
ENDMDL
MODEL      159
REMARK 921   NORMALIZED FREE ENERGY PREDICTED BY IDOCK:   -3.93 KCAL/MOL
REMARK 922        TOTAL FREE ENERGY PREDICTED BY IDOCK:   -6.01 KCAL/MOL
REMARK 923 INTER-LIGAND FREE ENERGY PREDICTED BY IDOCK:   -5.31 KCAL/MOL
REMARK 924 INTRA-LIGAND FREE ENERGY PREDICTED BY IDOCK:   -0.70 KCAL/MOL
REMARK 927      BINDING AFFINITY PREDICTED BY RF-SCORE:    0.00 PKD
ROOT
HETATM    1  C   UNL     1      -9.386   5.213  66.571  1.00  0.00    -0.142 C  
HETATM    2  C   UNL     1      -9.058   6.308  67.573  1.00  0.00    -0.110 C  
ENDROOT
BRANCH   2   3
HETATM    3  O   UNL     1      -9.632   5.935  68.832  1.00  0.00    -0.127 OA 
BRANCH   3   4
HETATM    4  C   UNL     1      -9.888   6.957  69.688  1.00  0.00    -0.166 C  
HETATM    5  O   UNL     1      -9.211   7.232  70.670  1.00  0.00    -0.157 OA 
HETATM    6  N   UNL     1     -10.920   7.680  69.163  1.00  0.00    -0.429 N  
HETATM    7  H   UNL     1     -11.594   7.210  68.557  1.00  0.00     0.000 HD 
BRANCH   6   8
HETATM    8  C   UNL     1     -11.087   9.056  69.429  1.00  0.00     0.018 A  
HETATM    9  C   UNL     1     -10.551  10.077  68.625  1.00  0.00    -0.212 A  
HETATM   10  C   UNL     1     -10.767  11.410  69.014  1.00  0.00    -0.245 A  
HETATM   11  N   UNL     1      -9.584   9.808  67.632  1.00  0.00    -0.143 NA 
HETATM   12  H2  UNL     1      -9.963   9.089  67.014  1.00  0.00     0.000 HD 
HETATM   13  C   UNL     1     -11.542  11.741  70.136  1.00  0.00    -0.195 A  
HETATM   14  H1  UNL     1      -9.195  10.549  67.047  1.00  0.00     0.000 HD 
HETATM   15  C   UNL     1     -11.864   9.375  70.547  1.00  0.00    -0.207 A  
HETATM   16  C   UNL     1     -12.121  10.706  70.870  1.00  0.00    -0.489 A  
BRANCH  13  17
HETATM   17  N   UNL     1     -11.743  13.101  70.424  1.00  0.00    -0.545 NA 
HETATM   18  H   UNL     1     -11.396  13.519  71.288  1.00  0.00     0.000 HD 
BRANCH  17  19
HETATM   19  C   UNL     1     -12.472  13.889  69.435  1.00  0.00    -0.046 C  
BRANCH  19  20
HETATM   20  C   UNL     1     -11.625  15.008  68.870  1.00  0.00    -0.349 A  
HETATM   21  C   UNL     1     -11.157  16.015  69.734  1.00  0.00    -0.337 A  
HETATM   22  C   UNL     1     -10.318  17.024  69.260  1.00  0.00    -0.276 A  
HETATM   23  C   UNL     1      -9.937  17.026  67.924  1.00  0.00    -0.281 A  
HETATM   24  C   UNL     1     -10.369  16.032  67.057  1.00  0.00    -0.292 A  
HETATM   25  F   UNL     1      -9.130  17.996  67.472  1.00  0.00    -0.247 F  
HETATM   26  C   UNL     1     -11.202  15.018  67.528  1.00  0.00    -0.333 A  
ENDBRANCH  19  20
ENDBRANCH  17  19
ENDBRANCH  13  17
ENDBRANCH   6   8
ENDBRANCH   3   4
ENDBRANCH   2   3
TORSDOF 6
ENDMDL
MODEL      160
REMARK 921   NORMALIZED FREE ENERGY PREDICTED BY IDOCK:   -3.91 KCAL/MOL
REMARK 922        TOTAL FREE ENERGY PREDICTED BY IDOCK:   -5.99 KCAL/MOL
REMARK 923 INTER-LIGAND FREE ENERGY PREDICTED BY IDOCK:   -5.35 KCAL/MOL
REMARK 924 INTRA-LIGAND FREE ENERGY PREDICTED BY IDOCK:   -0.64 KCAL/MOL
REMARK 927      BINDING AFFINITY PREDICTED BY RF-SCORE:    0.00 PKD
ROOT
HETATM    1  C   UNL     1     -10.587  16.590  67.854  1.00  0.00    -0.329 C  
HETATM    2  C   UNL     1     -11.553  15.624  68.518  1.00  0.00    -0.370 C  
ENDROOT
BRANCH   2   3
HETATM    3  O   UNL     1     -11.816  14.562  67.592  1.00  0.00    -0.371 OA 
BRANCH   3   4
HETATM    4  C   UNL     1     -11.545  13.310  68.040  1.00  0.00    -0.336 C  
HETATM    5  O   UNL     1     -12.304  12.630  68.717  1.00  0.00    -0.051 OA 
HETATM    6  N   UNL     1     -10.365  12.920  67.473  1.00  0.00    -0.222 N  
HETATM    7  H   UNL     1      -9.684  13.633  67.211  1.00  0.00     0.000 HD 
BRANCH   6   8
HETATM    8  C   UNL     1     -10.056  11.563  67.237  1.00  0.00    -0.199 A  
HETATM    9  C   UNL     1      -9.750  10.644  68.257  1.00  0.00    -0.161 A  
HETATM   10  C   UNL     1      -9.434   9.326  67.888  1.00  0.00    -0.154 A  
HETATM   11  N   UNL     1      -9.474  11.065  69.576  1.00  0.00    -0.379 NA 
HETATM   12  H2  UNL     1     -10.259  11.635  69.893  1.00  0.00     0.000 HD 
HETATM   13  C   UNL     1      -9.472   8.897  66.553  1.00  0.00    -0.211 A  
HETATM   14  H1  UNL     1      -9.253  10.398  70.316  1.00  0.00     0.000 HD 
HETATM   15  C   UNL     1     -10.100  11.146  65.904  1.00  0.00    -0.296 A  
HETATM   16  C   UNL     1      -9.851   9.815  65.573  1.00  0.00    -0.378 A  
BRANCH  13  17
HETATM   17  N   UNL     1      -9.186   7.549  66.280  1.00  0.00    -0.262 NA 
HETATM   18  H   UNL     1      -8.282   7.263  65.905  1.00  0.00     0.000 HD 
BRANCH  17  19
HETATM   19  C   UNL     1     -10.239   6.577  66.557  1.00  0.00    -0.065 C  
BRANCH  19  20
HETATM   20  C   UNL     1      -9.986   5.821  67.841  1.00  0.00    -0.164 A  
HETATM   21  C   UNL     1     -10.734   6.147  68.986  1.00  0.00    -0.377 A  
HETATM   22  C   UNL     1     -10.575   5.425  70.169  1.00  0.00    -0.344 A  
HETATM   23  C   UNL     1      -9.673   4.368  70.210  1.00  0.00    -0.211 A  
HETATM   24  C   UNL     1      -8.939   4.013  69.087  1.00  0.00    -0.167 A  
HETATM   25  F   UNL     1      -9.524   3.675  71.347  1.00  0.00    -0.171 F  
HETATM   26  C   UNL     1      -9.100   4.729  67.901  1.00  0.00    -0.133 A  
ENDBRANCH  19  20
ENDBRANCH  17  19
ENDBRANCH  13  17
ENDBRANCH   6   8
ENDBRANCH   3   4
ENDBRANCH   2   3
TORSDOF 6
ENDMDL
MODEL      161
REMARK 921   NORMALIZED FREE ENERGY PREDICTED BY IDOCK:   -3.91 KCAL/MOL
REMARK 922        TOTAL FREE ENERGY PREDICTED BY IDOCK:   -5.98 KCAL/MOL
REMARK 923 INTER-LIGAND FREE ENERGY PREDICTED BY IDOCK:   -5.25 KCAL/MOL
REMARK 924 INTRA-LIGAND FREE ENERGY PREDICTED BY IDOCK:   -0.73 KCAL/MOL
REMARK 927      BINDING AFFINITY PREDICTED BY RF-SCORE:    0.00 PKD
ROOT
HETATM    1  C   UNL     1     -12.449  13.959  65.963  1.00  0.00    -0.501 C  
HETATM    2  C   UNL     1     -11.884  12.820  66.795  1.00  0.00    -0.382 C  
ENDROOT
BRANCH   2   3
HETATM    3  O   UNL     1     -10.455  12.936  66.781  1.00  0.00    -0.251 OA 
BRANCH   3   4
HETATM    4  C   UNL     1      -9.807  12.330  67.808  1.00  0.00    -0.201 C  
HETATM    5  O   UNL     1      -9.040  12.892  68.579  1.00  0.00    -0.155 OA 
HETATM    6  N   UNL     1     -10.285  11.054  67.898  1.00  0.00    -0.178 N  
HETATM    7  H   UNL     1     -10.649  10.603  67.057  1.00  0.00     0.000 HD 
BRANCH   6   8
HETATM    8  C   UNL     1     -10.294  10.337  69.114  1.00  0.00    -0.223 A  
HETATM    9  C   UNL     1      -9.142   9.784  69.701  1.00  0.00    -0.220 A  
HETATM   10  C   UNL     1      -9.288   9.070  70.902  1.00  0.00    -0.326 A  
HETATM   11  N   UNL     1      -7.926   9.677  68.991  1.00  0.00    -0.084 NA 
HETATM   12  H2  UNL     1      -7.685  10.606  68.643  1.00  0.00     0.000 HD 
HETATM   13  C   UNL     1     -10.528   8.947  71.549  1.00  0.00    -0.323 A  
HETATM   14  H1  UNL     1      -7.090   9.276  69.418  1.00  0.00     0.000 HD 
HETATM   15  C   UNL     1     -11.533  10.224  69.751  1.00  0.00    -0.320 A  
HETATM   16  C   UNL     1     -11.637   9.570  70.977  1.00  0.00    -0.419 A  
BRANCH  13  17
HETATM   17  N   UNL     1     -10.573   8.254  72.769  1.00  0.00    -0.317 NA 
HETATM   18  H   UNL     1     -11.397   8.286  73.370  1.00  0.00     0.000 HD 
BRANCH  17  19
HETATM   19  C   UNL     1      -9.390   7.486  73.142  1.00  0.00    -0.206 C  
BRANCH  19  20
HETATM   20  C   UNL     1      -9.578   6.005  72.900  1.00  0.00    -0.158 A  
HETATM   21  C   UNL     1      -8.448   5.199  72.671  1.00  0.00    -0.117 A  
HETATM   22  C   UNL     1      -8.579   3.820  72.512  1.00  0.00    -0.100 A  
HETATM   23  C   UNL     1      -9.839   3.238  72.589  1.00  0.00    -0.143 A  
HETATM   24  C   UNL     1     -10.967   4.008  72.835  1.00  0.00    -0.145 A  
HETATM   25  F   UNL     1      -9.961   1.913  72.437  1.00  0.00    -0.156 F  
HETATM   26  C   UNL     1     -10.839   5.388  73.001  1.00  0.00    -0.323 A  
ENDBRANCH  19  20
ENDBRANCH  17  19
ENDBRANCH  13  17
ENDBRANCH   6   8
ENDBRANCH   3   4
ENDBRANCH   2   3
TORSDOF 6
ENDMDL
MODEL      162
REMARK 921   NORMALIZED FREE ENERGY PREDICTED BY IDOCK:   -3.89 KCAL/MOL
REMARK 922        TOTAL FREE ENERGY PREDICTED BY IDOCK:   -5.96 KCAL/MOL
REMARK 923 INTER-LIGAND FREE ENERGY PREDICTED BY IDOCK:   -5.48 KCAL/MOL
REMARK 924 INTRA-LIGAND FREE ENERGY PREDICTED BY IDOCK:   -0.48 KCAL/MOL
REMARK 927      BINDING AFFINITY PREDICTED BY RF-SCORE:    0.00 PKD
ROOT
HETATM    1  C   UNL     1      -5.716   3.014  73.071  1.00  0.00    -0.004 C  
HETATM    2  C   UNL     1      -6.995   3.481  72.396  1.00  0.00    -0.042 C  
ENDROOT
BRANCH   2   3
HETATM    3  O   UNL     1      -8.034   3.484  73.383  1.00  0.00    -0.072 OA 
BRANCH   3   4
HETATM    4  C   UNL     1      -8.607   4.689  73.630  1.00  0.00    -0.104 C  
HETATM    5  O   UNL     1      -8.273   5.452  74.526  1.00  0.00    -0.103 OA 
HETATM    6  N   UNL     1      -9.493   4.935  72.619  1.00  0.00    -0.136 N  
HETATM    7  H   UNL     1      -9.921   4.145  72.135  1.00  0.00     0.000 HD 
BRANCH   6   8
HETATM    8  C   UNL     1      -9.835   6.245  72.221  1.00  0.00    -0.161 A  
HETATM    9  C   UNL     1     -11.137   6.770  72.302  1.00  0.00    -0.251 A  
HETATM   10  C   UNL     1     -11.352   8.082  71.849  1.00  0.00    -0.336 A  
HETATM   11  N   UNL     1     -12.256   5.943  72.545  1.00  0.00    -0.495 NA 
HETATM   12  H2  UNL     1     -12.076   5.418  73.400  1.00  0.00     0.000 HD 
HETATM   13  C   UNL     1     -10.304   8.889  71.380  1.00  0.00    -0.307 A  
HETATM   14  H1  UNL     1     -13.201   6.324  72.604  1.00  0.00     0.000 HD 
HETATM   15  C   UNL     1      -8.783   7.041  71.759  1.00  0.00    -0.122 A  
HETATM   16  C   UNL     1      -9.012   8.363  71.382  1.00  0.00    -0.237 A  
BRANCH  13  17
HETATM   17  N   UNL     1     -10.603  10.205  70.990  1.00  0.00    -0.229 NA 
HETATM   18  H   UNL     1     -10.172  11.007  71.449  1.00  0.00     0.000 HD 
BRANCH  17  19
HETATM   19  C   UNL     1     -11.557  10.374  69.899  1.00  0.00    -0.284 C  
BRANCH  19  20
HETATM   20  C   UNL     1     -11.769  11.831  69.554  1.00  0.00    -0.408 A  
HETATM   21  C   UNL     1     -12.047  12.744  70.587  1.00  0.00    -0.316 A  
HETATM   22  C   UNL     1     -12.181  14.106  70.314  1.00  0.00    -0.416 A  
HETATM   23  C   UNL     1     -12.028  14.561  69.009  1.00  0.00    -0.299 A  
HETATM   24  C   UNL     1     -11.732  13.682  67.977  1.00  0.00    -0.387 A  
HETATM   25  F   UNL     1     -12.155  15.870  68.751  1.00  0.00    -0.388 F  
HETATM   26  C   UNL     1     -11.592  12.321  68.247  1.00  0.00    -0.385 A  
ENDBRANCH  19  20
ENDBRANCH  17  19
ENDBRANCH  13  17
ENDBRANCH   6   8
ENDBRANCH   3   4
ENDBRANCH   2   3
TORSDOF 6
ENDMDL
MODEL      163
REMARK 921   NORMALIZED FREE ENERGY PREDICTED BY IDOCK:   -3.88 KCAL/MOL
REMARK 922        TOTAL FREE ENERGY PREDICTED BY IDOCK:   -5.95 KCAL/MOL
REMARK 923 INTER-LIGAND FREE ENERGY PREDICTED BY IDOCK:   -5.54 KCAL/MOL
REMARK 924 INTRA-LIGAND FREE ENERGY PREDICTED BY IDOCK:   -0.41 KCAL/MOL
REMARK 927      BINDING AFFINITY PREDICTED BY RF-SCORE:    0.00 PKD
ROOT
HETATM    1  C   UNL     1      -9.301   3.662  64.717  1.00  0.00    -0.153 C  
HETATM    2  C   UNL     1      -9.114   3.318  66.185  1.00  0.00    -0.153 C  
ENDROOT
BRANCH   2   3
HETATM    3  O   UNL     1     -10.085   4.059  66.936  1.00  0.00    -0.123 OA 
BRANCH   3   4
HETATM    4  C   UNL     1      -9.601   5.107  67.650  1.00  0.00    -0.140 C  
HETATM    5  O   UNL     1      -8.439   5.491  67.628  1.00  0.00    -0.104 OA 
HETATM    6  N   UNL     1     -10.664   5.717  68.252  1.00  0.00    -0.230 N  
HETATM    7  H   UNL     1     -11.492   5.162  68.471  1.00  0.00     0.000 HD 
BRANCH   6   8
HETATM    8  C   UNL     1     -10.657   7.089  68.582  1.00  0.00    -0.210 A  
HETATM    9  C   UNL     1     -10.747   7.575  69.898  1.00  0.00    -0.246 A  
HETATM   10  C   UNL     1     -10.754   8.967  70.092  1.00  0.00    -0.245 A  
HETATM   11  N   UNL     1     -11.113   6.738  70.975  1.00  0.00    -0.260 NA 
HETATM   12  H2  UNL     1     -10.479   5.939  70.979  1.00  0.00     0.000 HD 
HETATM   13  C   UNL     1     -10.618   9.868  69.025  1.00  0.00    -0.220 A  
HETATM   14  H1  UNL     1     -11.178   7.091  71.930  1.00  0.00     0.000 HD 
HETATM   15  C   UNL     1     -10.517   7.977  67.511  1.00  0.00    -0.331 A  
HETATM   16  C   UNL     1     -10.457   9.351  67.739  1.00  0.00    -0.310 A  
BRANCH  13  17
HETATM   17  N   UNL     1     -10.590  11.241  69.315  1.00  0.00    -0.369 NA 
HETATM   18  H   UNL     1      -9.994  11.618  70.053  1.00  0.00     0.000 HD 
BRANCH  17  19
HETATM   19  C   UNL     1     -11.451  12.107  68.516  1.00  0.00    -0.300 C  
BRANCH  19  20
HETATM   20  C   UNL     1     -11.188  13.571  68.787  1.00  0.00    -0.311 A  
HETATM   21  C   UNL     1     -10.343  14.286  67.918  1.00  0.00    -0.233 A  
HETATM   22  C   UNL     1     -10.132  15.654  68.098  1.00  0.00    -0.222 A  
HETATM   23  C   UNL     1     -10.770  16.313  69.142  1.00  0.00    -0.305 A  
HETATM   24  C   UNL     1     -11.624  15.634  69.999  1.00  0.00    -0.360 A  
HETATM   25  F   UNL     1     -10.566  17.627  69.311  1.00  0.00    -0.337 F  
HETATM   26  C   UNL     1     -11.843  14.268  69.818  1.00  0.00    -0.380 A  
ENDBRANCH  19  20
ENDBRANCH  17  19
ENDBRANCH  13  17
ENDBRANCH   6   8
ENDBRANCH   3   4
ENDBRANCH   2   3
TORSDOF 6
ENDMDL
MODEL      164
REMARK 921   NORMALIZED FREE ENERGY PREDICTED BY IDOCK:   -3.87 KCAL/MOL
REMARK 922        TOTAL FREE ENERGY PREDICTED BY IDOCK:   -5.94 KCAL/MOL
REMARK 923 INTER-LIGAND FREE ENERGY PREDICTED BY IDOCK:   -5.44 KCAL/MOL
REMARK 924 INTRA-LIGAND FREE ENERGY PREDICTED BY IDOCK:   -0.50 KCAL/MOL
REMARK 927      BINDING AFFINITY PREDICTED BY RF-SCORE:    0.00 PKD
ROOT
HETATM    1  C   UNL     1      -8.198   3.983  68.363  1.00  0.00    -0.088 C  
HETATM    2  C   UNL     1      -9.424   4.407  69.153  1.00  0.00    -0.170 C  
ENDROOT
BRANCH   2   3
HETATM    3  O   UNL     1     -10.366   4.971  68.231  1.00  0.00    -0.116 OA 
BRANCH   3   4
HETATM    4  C   UNL     1     -10.845   6.199  68.556  1.00  0.00    -0.314 C  
HETATM    5  O   UNL     1     -11.504   6.450  69.555  1.00  0.00    -0.407 OA 
HETATM    6  N   UNL     1     -10.329   7.089  67.657  1.00  0.00    -0.191 N  
HETATM    7  H   UNL     1     -10.081   6.759  66.724  1.00  0.00     0.000 HD 
BRANCH   6   8
HETATM    8  C   UNL     1     -10.127   8.449  67.976  1.00  0.00    -0.199 A  
HETATM    9  C   UNL     1      -9.217   8.894  68.950  1.00  0.00    -0.140 A  
HETATM   10  C   UNL     1      -9.129  10.276  69.192  1.00  0.00    -0.199 A  
HETATM   11  N   UNL     1      -8.619   8.005  69.870  1.00  0.00    -0.133 NA 
HETATM   12  H2  UNL     1      -8.168   7.261  69.336  1.00  0.00     0.000 HD 
HETATM   13  C   UNL     1      -9.873  11.209  68.456  1.00  0.00    -0.198 A  
HETATM   14  H1  UNL     1      -7.958   8.328  70.577  1.00  0.00     0.000 HD 
HETATM   15  C   UNL     1     -10.871   9.370  67.234  1.00  0.00    -0.165 A  
HETATM   16  C   UNL     1     -10.713  10.738  67.446  1.00  0.00    -0.317 A  
BRANCH  13  17
HETATM   17  N   UNL     1      -9.688  12.574  68.734  1.00  0.00    -0.416 NA 
HETATM   18  H   UNL     1     -10.009  12.987  69.610  1.00  0.00     0.000 HD 
BRANCH  17  19
HETATM   19  C   UNL     1      -9.017  13.374  67.715  1.00  0.00    -0.205 C  
BRANCH  19  20
HETATM   20  C   UNL     1      -9.480  14.814  67.732  1.00  0.00    -0.204 A  
HETATM   21  C   UNL     1      -9.333  15.593  66.570  1.00  0.00    -0.305 A  
HETATM   22  C   UNL     1      -9.811  16.903  66.528  1.00  0.00    -0.307 A  
HETATM   23  C   UNL     1     -10.444  17.437  67.644  1.00  0.00    -0.368 A  
HETATM   24  C   UNL     1     -10.620  16.681  68.794  1.00  0.00    -0.340 A  
HETATM   25  F   UNL     1     -10.903  18.695  67.600  1.00  0.00    -0.440 F  
HETATM   26  C   UNL     1     -10.149  15.368  68.838  1.00  0.00    -0.219 A  
ENDBRANCH  19  20
ENDBRANCH  17  19
ENDBRANCH  13  17
ENDBRANCH   6   8
ENDBRANCH   3   4
ENDBRANCH   2   3
TORSDOF 6
ENDMDL
MODEL      165
REMARK 921   NORMALIZED FREE ENERGY PREDICTED BY IDOCK:   -3.83 KCAL/MOL
REMARK 922        TOTAL FREE ENERGY PREDICTED BY IDOCK:   -5.88 KCAL/MOL
REMARK 923 INTER-LIGAND FREE ENERGY PREDICTED BY IDOCK:   -5.22 KCAL/MOL
REMARK 924 INTRA-LIGAND FREE ENERGY PREDICTED BY IDOCK:   -0.66 KCAL/MOL
REMARK 927      BINDING AFFINITY PREDICTED BY RF-SCORE:    0.00 PKD
ROOT
HETATM    1  C   UNL     1     -10.162  10.679  63.871  1.00  0.00    -0.306 C  
HETATM    2  C   UNL     1     -10.317  11.820  64.861  1.00  0.00    -0.289 C  
ENDROOT
BRANCH   2   3
HETATM    3  O   UNL     1      -9.198  11.778  65.756  1.00  0.00    -0.216 OA 
BRANCH   3   4
HETATM    4  C   UNL     1      -9.380  11.059  66.893  1.00  0.00    -0.173 C  
HETATM    5  O   UNL     1     -10.158  11.354  67.790  1.00  0.00    -0.176 OA 
HETATM    6  N   UNL     1      -8.663   9.903  66.764  1.00  0.00    -0.128 N  
HETATM    7  H   UNL     1      -7.834   9.901  66.169  1.00  0.00     0.000 HD 
BRANCH   6   8
HETATM    8  C   UNL     1      -9.029   8.713  67.428  1.00  0.00    -0.133 A  
HETATM    9  C   UNL     1      -8.206   8.053  68.357  1.00  0.00    -0.123 A  
HETATM   10  C   UNL     1      -8.677   6.859  68.929  1.00  0.00    -0.130 A  
HETATM   11  N   UNL     1      -6.842   8.386  68.507  1.00  0.00    -0.063 NA 
HETATM   12  H2  UNL     1      -6.783   9.387  68.693  1.00  0.00     0.000 HD 
HETATM   13  C   UNL     1      -9.953   6.350  68.644  1.00  0.00    -0.146 A  
HETATM   14  H1  UNL     1      -6.244   7.907  69.182  1.00  0.00     0.000 HD 
HETATM   15  C   UNL     1     -10.303   8.217  67.139  1.00  0.00    -0.391 A  
HETATM   16  C   UNL     1     -10.773   7.069  67.774  1.00  0.00    -0.300 A  
BRANCH  13  17
HETATM   17  N   UNL     1     -10.359   5.175  69.297  1.00  0.00    -0.212 NA 
HETATM   18  H   UNL     1     -10.661   4.353  68.775  1.00  0.00     0.000 HD 
BRANCH  17  19
HETATM   19  C   UNL     1     -10.332   5.182  70.756  1.00  0.00    -0.224 C  
BRANCH  19  20
HETATM   20  C   UNL     1     -11.051   6.383  71.329  1.00  0.00    -0.334 A  
HETATM   21  C   UNL     1     -10.322   7.324  72.079  1.00  0.00    -0.217 A  
HETATM   22  C   UNL     1     -10.938   8.477  72.564  1.00  0.00    -0.323 A  
HETATM   23  C   UNL     1     -12.284   8.699  72.296  1.00  0.00    -0.378 A  
HETATM   24  C   UNL     1     -13.019   7.797  71.541  1.00  0.00    -0.357 A  
HETATM   25  F   UNL     1     -12.872   9.809  72.762  1.00  0.00    -0.314 F  
HETATM   26  C   UNL     1     -12.404   6.645  71.048  1.00  0.00    -0.289 A  
ENDBRANCH  19  20
ENDBRANCH  17  19
ENDBRANCH  13  17
ENDBRANCH   6   8
ENDBRANCH   3   4
ENDBRANCH   2   3
TORSDOF 6
ENDMDL
MODEL      166
REMARK 921   NORMALIZED FREE ENERGY PREDICTED BY IDOCK:   -3.81 KCAL/MOL
REMARK 922        TOTAL FREE ENERGY PREDICTED BY IDOCK:   -5.86 KCAL/MOL
REMARK 923 INTER-LIGAND FREE ENERGY PREDICTED BY IDOCK:   -5.33 KCAL/MOL
REMARK 924 INTRA-LIGAND FREE ENERGY PREDICTED BY IDOCK:   -0.53 KCAL/MOL
REMARK 927      BINDING AFFINITY PREDICTED BY RF-SCORE:    0.00 PKD
ROOT
HETATM    1  C   UNL     1     -11.001  15.938  68.086  1.00  0.00    -0.335 C  
HETATM    2  C   UNL     1     -12.183  15.209  68.701  1.00  0.00    -0.032 C  
ENDROOT
BRANCH   2   3
HETATM    3  O   UNL     1     -12.044  13.815  68.398  1.00  0.00    -0.368 OA 
BRANCH   3   4
HETATM    4  C   UNL     1     -11.576  13.038  69.407  1.00  0.00    -0.299 C  
HETATM    5  O   UNL     1     -11.847  13.191  70.591  1.00  0.00    -0.233 OA 
HETATM    6  N   UNL     1     -10.894  11.998  68.840  1.00  0.00    -0.266 N  
HETATM    7  H   UNL     1     -10.464  12.132  67.925  1.00  0.00     0.000 HD 
BRANCH   6   8
HETATM    8  C   UNL     1     -10.766  10.746  69.478  1.00  0.00    -0.226 A  
HETATM    9  C   UNL     1     -11.860   9.968  69.896  1.00  0.00    -0.074 A  
HETATM   10  C   UNL     1     -11.597   8.749  70.543  1.00  0.00    -0.170 A  
HETATM   11  N   UNL     1     -13.169  10.496  69.947  1.00  0.00    -0.420 NA 
HETATM   12  H2  UNL     1     -13.389  10.875  69.025  1.00  0.00     0.000 HD 
HETATM   13  C   UNL     1     -10.291   8.270  70.727  1.00  0.00    -0.193 A  
HETATM   14  H1  UNL     1     -13.963   9.931  70.250  1.00  0.00     0.000 HD 
HETATM   15  C   UNL     1      -9.461  10.277  69.651  1.00  0.00    -0.180 A  
HETATM   16  C   UNL     1      -9.231   9.031  70.234  1.00  0.00    -0.229 A  
BRANCH  13  17
HETATM   17  N   UNL     1     -10.124   7.019  71.343  1.00  0.00    -0.189 NA 
HETATM   18  H   UNL     1      -9.458   6.886  72.105  1.00  0.00     0.000 HD 
BRANCH  17  19
HETATM   19  C   UNL     1     -10.944   5.919  70.847  1.00  0.00    -0.265 C  
BRANCH  19  20
HETATM   20  C   UNL     1     -10.459   5.412  69.507  1.00  0.00    -0.343 A  
HETATM   21  C   UNL     1      -9.619   4.284  69.465  1.00  0.00    -0.274 A  
HETATM   22  C   UNL     1      -9.208   3.750  68.244  1.00  0.00    -0.215 A  
HETATM   23  C   UNL     1      -9.640   4.335  67.060  1.00  0.00    -0.203 A  
HETATM   24  C   UNL     1     -10.485   5.435  67.075  1.00  0.00    -0.319 A  
HETATM   25  F   UNL     1      -9.244   3.818  65.889  1.00  0.00    -0.130 F  
HETATM   26  C   UNL     1     -10.904   5.969  68.294  1.00  0.00    -0.366 A  
ENDBRANCH  19  20
ENDBRANCH  17  19
ENDBRANCH  13  17
ENDBRANCH   6   8
ENDBRANCH   3   4
ENDBRANCH   2   3
TORSDOF 6
ENDMDL
MODEL      167
REMARK 921   NORMALIZED FREE ENERGY PREDICTED BY IDOCK:   -3.80 KCAL/MOL
REMARK 922        TOTAL FREE ENERGY PREDICTED BY IDOCK:   -5.84 KCAL/MOL
REMARK 923 INTER-LIGAND FREE ENERGY PREDICTED BY IDOCK:   -5.13 KCAL/MOL
REMARK 924 INTRA-LIGAND FREE ENERGY PREDICTED BY IDOCK:   -0.71 KCAL/MOL
REMARK 927      BINDING AFFINITY PREDICTED BY RF-SCORE:    0.00 PKD
ROOT
HETATM    1  C   UNL     1      -9.773   3.621  67.172  1.00  0.00    -0.102 C  
HETATM    2  C   UNL     1      -8.944   3.976  68.396  1.00  0.00    -0.118 C  
ENDROOT
BRANCH   2   3
HETATM    3  O   UNL     1      -7.771   4.665  67.945  1.00  0.00    -0.081 OA 
BRANCH   3   4
HETATM    4  C   UNL     1      -7.901   6.006  67.785  1.00  0.00    -0.105 C  
HETATM    5  O   UNL     1      -7.891   6.587  66.708  1.00  0.00    -0.101 OA 
HETATM    6  N   UNL     1      -8.191   6.537  69.010  1.00  0.00    -0.115 N  
HETATM    7  H   UNL     1      -7.865   6.052  69.847  1.00  0.00     0.000 HD 
BRANCH   6   8
HETATM    8  C   UNL     1      -8.925   7.733  69.157  1.00  0.00    -0.145 A  
HETATM    9  C   UNL     1     -10.317   7.775  69.355  1.00  0.00    -0.219 A  
HETATM   10  C   UNL     1     -10.934   9.033  69.461  1.00  0.00    -0.118 A  
HETATM   11  N   UNL     1     -11.127   6.635  69.163  1.00  0.00    -0.448 NA 
HETATM   12  H2  UNL     1     -10.751   5.883  69.741  1.00  0.00     0.000 HD 
HETATM   13  C   UNL     1     -10.198  10.227  69.434  1.00  0.00    -0.235 A  
HETATM   14  H1  UNL     1     -12.137   6.665  69.306  1.00  0.00     0.000 HD 
HETATM   15  C   UNL     1      -8.182   8.917  69.132  1.00  0.00    -0.118 A  
HETATM   16  C   UNL     1      -8.811  10.148  69.310  1.00  0.00    -0.191 A  
BRANCH  13  17
HETATM   17  N   UNL     1     -10.892  11.438  69.593  1.00  0.00    -0.456 NA 
HETATM   18  H   UNL     1     -10.740  12.036  70.405  1.00  0.00     0.000 HD 
BRANCH  17  19
HETATM   19  C   UNL     1     -11.840  11.802  68.545  1.00  0.00    -0.303 C  
BRANCH  19  20
HETATM   20  C   UNL     1     -11.507  13.139  67.922  1.00  0.00    -0.346 A  
HETATM   21  C   UNL     1     -11.719  14.313  68.668  1.00  0.00    -0.380 A  
HETATM   22  C   UNL     1     -11.359  15.558  68.151  1.00  0.00    -0.348 A  
HETATM   23  C   UNL     1     -10.779  15.634  66.890  1.00  0.00    -0.307 A  
HETATM   24  C   UNL     1     -10.541  14.489  66.144  1.00  0.00    -0.308 A  
HETATM   25  F   UNL     1     -10.434  16.831  66.397  1.00  0.00    -0.303 F  
HETATM   26  C   UNL     1     -10.893  13.242  66.660  1.00  0.00    -0.289 A  
ENDBRANCH  19  20
ENDBRANCH  17  19
ENDBRANCH  13  17
ENDBRANCH   6   8
ENDBRANCH   3   4
ENDBRANCH   2   3
TORSDOF 6
ENDMDL
MODEL      168
REMARK 921   NORMALIZED FREE ENERGY PREDICTED BY IDOCK:   -3.79 KCAL/MOL
REMARK 922        TOTAL FREE ENERGY PREDICTED BY IDOCK:   -5.83 KCAL/MOL
REMARK 923 INTER-LIGAND FREE ENERGY PREDICTED BY IDOCK:   -5.16 KCAL/MOL
REMARK 924 INTRA-LIGAND FREE ENERGY PREDICTED BY IDOCK:   -0.67 KCAL/MOL
REMARK 927      BINDING AFFINITY PREDICTED BY RF-SCORE:    0.00 PKD
ROOT
HETATM    1  C   UNL     1      -7.456   2.285  67.863  1.00  0.00    -0.055 C  
HETATM    2  C   UNL     1      -8.665   3.065  67.374  1.00  0.00    -0.120 C  
ENDROOT
BRANCH   2   3
HETATM    3  O   UNL     1      -9.371   3.544  68.525  1.00  0.00    -0.153 OA 
BRANCH   3   4
HETATM    4  C   UNL     1      -9.554   4.888  68.586  1.00  0.00    -0.154 C  
HETATM    5  O   UNL     1      -9.252   5.592  69.539  1.00  0.00    -0.126 OA 
HETATM    6  N   UNL     1      -9.983   5.297  67.355  1.00  0.00    -0.160 N  
HETATM    7  H   UNL     1     -10.495   4.638  66.767  1.00  0.00     0.000 HD 
BRANCH   6   8
HETATM    8  C   UNL     1      -9.742   6.600  66.870  1.00  0.00    -0.164 A  
HETATM    9  C   UNL     1      -8.687   6.925  65.999  1.00  0.00    -0.141 A  
HETATM   10  C   UNL     1      -8.539   8.267  65.608  1.00  0.00    -0.189 A  
HETATM   11  N   UNL     1      -7.630   6.024  65.746  1.00  0.00    -0.081 NA 
HETATM   12  H2  UNL     1      -8.038   5.144  65.429  1.00  0.00     0.000 HD 
HETATM   13  C   UNL     1      -9.440   9.263  66.014  1.00  0.00    -0.247 A  
HETATM   14  H1  UNL     1      -6.864   6.260  65.114  1.00  0.00     0.000 HD 
HETATM   15  C   UNL     1     -10.648   7.584  67.277  1.00  0.00    -0.394 A  
HETATM   16  C   UNL     1     -10.519   8.894  66.818  1.00  0.00    -0.269 A  
BRANCH  13  17
HETATM   17  N   UNL     1      -9.242  10.570  65.538  1.00  0.00    -0.177 NA 
HETATM   18  H   UNL     1      -8.312  10.987  65.498  1.00  0.00     0.000 HD 
BRANCH  17  19
HETATM   19  C   UNL     1     -10.426  11.305  65.103  1.00  0.00    -0.291 C  
BRANCH  19  20
HETATM   20  C   UNL     1     -10.726  12.479  66.008  1.00  0.00    -0.292 A  
HETATM   21  C   UNL     1     -10.207  13.745  65.680  1.00  0.00    -0.326 A  
HETATM   22  C   UNL     1     -10.519  14.862  66.455  1.00  0.00    -0.301 A  
HETATM   23  C   UNL     1     -11.357  14.721  67.555  1.00  0.00    -0.344 A  
HETATM   24  C   UNL     1     -11.898  13.487  67.886  1.00  0.00    -0.397 A  
HETATM   25  F   UNL     1     -11.656  15.797  68.295  1.00  0.00    -0.342 F  
HETATM   26  C   UNL     1     -11.593  12.368  67.110  1.00  0.00    -0.435 A  
ENDBRANCH  19  20
ENDBRANCH  17  19
ENDBRANCH  13  17
ENDBRANCH   6   8
ENDBRANCH   3   4
ENDBRANCH   2   3
TORSDOF 6
ENDMDL
MODEL      169
REMARK 921   NORMALIZED FREE ENERGY PREDICTED BY IDOCK:   -3.76 KCAL/MOL
REMARK 922        TOTAL FREE ENERGY PREDICTED BY IDOCK:   -5.79 KCAL/MOL
REMARK 923 INTER-LIGAND FREE ENERGY PREDICTED BY IDOCK:   -4.88 KCAL/MOL
REMARK 924 INTRA-LIGAND FREE ENERGY PREDICTED BY IDOCK:   -0.91 KCAL/MOL
REMARK 927      BINDING AFFINITY PREDICTED BY RF-SCORE:    0.00 PKD
ROOT
HETATM    1  C   UNL     1     -10.290  10.795  64.490  1.00  0.00    -0.401 C  
HETATM    2  C   UNL     1      -9.315  10.586  63.344  1.00  0.00    -0.305 C  
ENDROOT
BRANCH   2   3
HETATM    3  O   UNL     1      -8.935   9.204  63.338  1.00  0.00    -0.144 OA 
BRANCH   3   4
HETATM    4  C   UNL     1      -8.106   8.817  64.340  1.00  0.00    -0.155 C  
HETATM    5  O   UNL     1      -6.992   9.281  64.543  1.00  0.00    -0.089 OA 
HETATM    6  N   UNL     1      -8.801   7.951  65.135  1.00  0.00    -0.386 N  
HETATM    7  H   UNL     1      -9.556   7.402  64.723  1.00  0.00     0.000 HD 
BRANCH   6   8
HETATM    8  C   UNL     1      -8.511   7.792  66.507  1.00  0.00    -0.132 A  
HETATM    9  C   UNL     1      -7.918   6.639  67.050  1.00  0.00    -0.109 A  
HETATM   10  C   UNL     1      -7.705   6.594  68.438  1.00  0.00    -0.105 A  
HETATM   11  N   UNL     1      -7.802   5.444  66.306  1.00  0.00    -0.099 NA 
HETATM   12  H2  UNL     1      -7.319   5.664  65.435  1.00  0.00     0.000 HD 
HETATM   13  C   UNL     1      -8.012   7.678  69.274  1.00  0.00    -0.126 A  
HETATM   14  H1  UNL     1      -7.371   4.607  66.700  1.00  0.00     0.000 HD 
HETATM   15  C   UNL     1      -8.818   8.880  67.330  1.00  0.00    -0.137 A  
HETATM   16  C   UNL     1      -8.531   8.835  68.693  1.00  0.00    -0.129 A  
BRANCH  13  17
HETATM   17  N   UNL     1      -7.723   7.563  70.643  1.00  0.00    -0.089 NA 
HETATM   18  H   UNL     1      -7.010   8.142  71.088  1.00  0.00     0.000 HD 
BRANCH  17  19
HETATM   19  C   UNL     1      -8.486   6.578  71.403  1.00  0.00    -0.125 C  
BRANCH  19  20
HETATM   20  C   UNL     1      -9.950   6.945  71.492  1.00  0.00    -0.185 A  
HETATM   21  C   UNL     1     -10.320   8.126  72.161  1.00  0.00    -0.342 A  
HETATM   22  C   UNL     1     -11.655   8.530  72.204  1.00  0.00    -0.447 A  
HETATM   23  C   UNL     1     -12.624   7.761  71.571  1.00  0.00    -0.333 A  
HETATM   24  C   UNL     1     -12.281   6.604  70.886  1.00  0.00    -0.324 A  
HETATM   25  F   UNL     1     -13.904   8.153  71.613  1.00  0.00    -0.356 F  
HETATM   26  C   UNL     1     -10.947   6.199  70.836  1.00  0.00    -0.359 A  
ENDBRANCH  19  20
ENDBRANCH  17  19
ENDBRANCH  13  17
ENDBRANCH   6   8
ENDBRANCH   3   4
ENDBRANCH   2   3
TORSDOF 6
ENDMDL
MODEL      170
REMARK 921   NORMALIZED FREE ENERGY PREDICTED BY IDOCK:   -3.74 KCAL/MOL
REMARK 922        TOTAL FREE ENERGY PREDICTED BY IDOCK:   -5.76 KCAL/MOL
REMARK 923 INTER-LIGAND FREE ENERGY PREDICTED BY IDOCK:   -4.96 KCAL/MOL
REMARK 924 INTRA-LIGAND FREE ENERGY PREDICTED BY IDOCK:   -0.81 KCAL/MOL
REMARK 927      BINDING AFFINITY PREDICTED BY RF-SCORE:    0.00 PKD
ROOT
HETATM    1  C   UNL     1      -6.786   4.831  73.553  1.00  0.00    -0.068 C  
HETATM    2  C   UNL     1      -8.146   4.964  74.217  1.00  0.00    -0.100 C  
ENDROOT
BRANCH   2   3
HETATM    3  O   UNL     1      -9.145   4.832  73.198  1.00  0.00    -0.117 OA 
BRANCH   3   4
HETATM    4  C   UNL     1      -9.971   5.898  73.043  1.00  0.00    -0.175 C  
HETATM    5  O   UNL     1     -10.425   6.570  73.960  1.00  0.00    -0.331 OA 
HETATM    6  N   UNL     1     -10.062   6.153  71.704  1.00  0.00    -0.185 N  
HETATM    7  H   UNL     1      -9.930   5.384  71.046  1.00  0.00     0.000 HD 
BRANCH   6   8
HETATM    8  C   UNL     1     -10.333   7.443  71.201  1.00  0.00    -0.201 A  
HETATM    9  C   UNL     1     -11.628   7.921  70.936  1.00  0.00    -0.273 A  
HETATM   10  C   UNL     1     -11.762   9.218  70.411  1.00  0.00    -0.157 A  
HETATM   11  N   UNL     1     -12.746   7.058  70.907  1.00  0.00    -0.555 NA 
HETATM   12  H2  UNL     1     -12.773   6.553  71.793  1.00  0.00     0.000 HD 
HETATM   13  C   UNL     1     -10.655  10.054  70.203  1.00  0.00    -0.296 A  
HETATM   14  H1  UNL     1     -13.686   7.405  70.715  1.00  0.00     0.000 HD 
HETATM   15  C   UNL     1      -9.223   8.269  71.001  1.00  0.00    -0.191 A  
HETATM   16  C   UNL     1      -9.390   9.576  70.545  1.00  0.00    -0.296 A  
BRANCH  13  17
HETATM   17  N   UNL     1     -10.886  11.352  69.718  1.00  0.00    -0.460 NA 
HETATM   18  H   UNL     1     -10.865  12.163  70.336  1.00  0.00     0.000 HD 
BRANCH  17  19
HETATM   19  C   UNL     1     -11.158  11.489  68.291  1.00  0.00    -0.239 C  
BRANCH  19  20
HETATM   20  C   UNL     1     -10.186  10.690  67.451  1.00  0.00    -0.243 A  
HETATM   21  C   UNL     1      -8.886  11.189  67.250  1.00  0.00    -0.144 A  
HETATM   22  C   UNL     1      -7.943  10.447  66.538  1.00  0.00    -0.123 A  
HETATM   23  C   UNL     1      -8.292   9.200  66.033  1.00  0.00    -0.121 A  
HETATM   24  C   UNL     1      -9.561   8.677  66.237  1.00  0.00    -0.322 A  
HETATM   25  F   UNL     1      -7.383   8.490  65.351  1.00  0.00    -0.078 F  
HETATM   26  C   UNL     1     -10.505   9.414  66.953  1.00  0.00    -0.281 A  
ENDBRANCH  19  20
ENDBRANCH  17  19
ENDBRANCH  13  17
ENDBRANCH   6   8
ENDBRANCH   3   4
ENDBRANCH   2   3
TORSDOF 6
ENDMDL
MODEL      171
REMARK 921   NORMALIZED FREE ENERGY PREDICTED BY IDOCK:   -3.74 KCAL/MOL
REMARK 922        TOTAL FREE ENERGY PREDICTED BY IDOCK:   -5.75 KCAL/MOL
REMARK 923 INTER-LIGAND FREE ENERGY PREDICTED BY IDOCK:   -5.39 KCAL/MOL
REMARK 924 INTRA-LIGAND FREE ENERGY PREDICTED BY IDOCK:   -0.36 KCAL/MOL
REMARK 927      BINDING AFFINITY PREDICTED BY RF-SCORE:    0.00 PKD
ROOT
HETATM    1  C   UNL     1      -5.916   8.821  64.003  1.00  0.00    -0.071 C  
HETATM    2  C   UNL     1      -7.423   8.883  63.818  1.00  0.00    -0.112 C  
ENDROOT
BRANCH   2   3
HETATM    3  O   UNL     1      -7.885   7.552  63.551  1.00  0.00    -0.121 OA 
BRANCH   3   4
HETATM    4  C   UNL     1      -8.117   6.780  64.643  1.00  0.00    -0.086 C  
HETATM    5  O   UNL     1      -7.424   5.833  64.989  1.00  0.00    -0.073 OA 
HETATM    6  N   UNL     1      -9.147   7.350  65.336  1.00  0.00    -0.364 N  
HETATM    7  H   UNL     1      -9.835   7.907  64.827  1.00  0.00     0.000 HD 
BRANCH   6   8
HETATM    8  C   UNL     1      -9.293   7.195  66.731  1.00  0.00    -0.161 A  
HETATM    9  C   UNL     1      -8.551   7.922  67.678  1.00  0.00    -0.127 A  
HETATM   10  C   UNL     1      -8.772   7.656  69.040  1.00  0.00    -0.136 A  
HETATM   11  N   UNL     1      -7.416   8.678  67.310  1.00  0.00    -0.088 NA 
HETATM   12  H2  UNL     1      -7.697   9.322  66.570  1.00  0.00     0.000 HD 
HETATM   13  C   UNL     1      -9.742   6.738  69.470  1.00  0.00    -0.150 A  
HETATM   14  H1  UNL     1      -6.878   9.206  67.997  1.00  0.00     0.000 HD 
HETATM   15  C   UNL     1     -10.265   6.281  67.148  1.00  0.00    -0.247 A  
HETATM   16  C   UNL     1     -10.513   6.088  68.506  1.00  0.00    -0.287 A  
BRANCH  13  17
HETATM   17  N   UNL     1      -9.928   6.568  70.852  1.00  0.00    -0.184 NA 
HETATM   18  H   UNL     1      -9.136   6.466  71.487  1.00  0.00     0.000 HD 
BRANCH  17  19
HETATM   19  C   UNL     1     -11.303   6.544  71.340  1.00  0.00    -0.294 C  
BRANCH  19  20
HETATM   20  C   UNL     1     -11.888   7.935  71.449  1.00  0.00    -0.328 A  
HETATM   21  C   UNL     1     -13.034   8.135  72.240  1.00  0.00    -0.232 A  
HETATM   22  C   UNL     1     -13.560   9.414  72.418  1.00  0.00    -0.498 A  
HETATM   23  C   UNL     1     -12.939  10.500  71.813  1.00  0.00    -0.476 A  
HETATM   24  C   UNL     1     -11.795  10.332  71.045  1.00  0.00    -0.472 A  
HETATM   25  F   UNL     1     -13.446  11.728  71.987  1.00  0.00    -0.539 F  
HETATM   26  C   UNL     1     -11.262   9.054  70.870  1.00  0.00    -0.348 A  
ENDBRANCH  19  20
ENDBRANCH  17  19
ENDBRANCH  13  17
ENDBRANCH   6   8
ENDBRANCH   3   4
ENDBRANCH   2   3
TORSDOF 6
ENDMDL
MODEL      172
REMARK 921   NORMALIZED FREE ENERGY PREDICTED BY IDOCK:   -3.72 KCAL/MOL
REMARK 922        TOTAL FREE ENERGY PREDICTED BY IDOCK:   -5.73 KCAL/MOL
REMARK 923 INTER-LIGAND FREE ENERGY PREDICTED BY IDOCK:   -5.43 KCAL/MOL
REMARK 924 INTRA-LIGAND FREE ENERGY PREDICTED BY IDOCK:   -0.30 KCAL/MOL
REMARK 927      BINDING AFFINITY PREDICTED BY RF-SCORE:    0.00 PKD
ROOT
HETATM    1  C   UNL     1     -12.548  12.086  63.585  1.00  0.00    -0.605 C  
HETATM    2  C   UNL     1     -11.957  12.304  64.967  1.00  0.00    -0.354 C  
ENDROOT
BRANCH   2   3
HETATM    3  O   UNL     1     -11.056  11.221  65.234  1.00  0.00    -0.196 OA 
BRANCH   3   4
HETATM    4  C   UNL     1      -9.949  11.540  65.952  1.00  0.00    -0.230 C  
HETATM    5  O   UNL     1      -8.798  11.395  65.564  1.00  0.00    -0.148 OA 
HETATM    6  N   UNL     1     -10.368  12.174  67.087  1.00  0.00    -0.213 N  
HETATM    7  H   UNL     1     -11.294  11.960  67.459  1.00  0.00     0.000 HD 
BRANCH   6   8
HETATM    8  C   UNL     1      -9.563  13.116  67.764  1.00  0.00    -0.208 A  
HETATM    9  C   UNL     1     -10.052  14.321  68.296  1.00  0.00    -0.238 A  
HETATM   10  C   UNL     1      -9.141  15.186  68.925  1.00  0.00    -0.206 A  
HETATM   11  N   UNL     1     -11.337  14.808  67.971  1.00  0.00    -0.302 NA 
HETATM   12  H2  UNL     1     -12.013  14.074  68.185  1.00  0.00     0.000 HD 
HETATM   13  C   UNL     1      -7.787  14.854  69.083  1.00  0.00    -0.171 A  
HETATM   14  H1  UNL     1     -11.693  15.683  68.358  1.00  0.00     0.000 HD 
HETATM   15  C   UNL     1      -8.216  12.773  67.918  1.00  0.00    -0.168 A  
HETATM   16  C   UNL     1      -7.349  13.618  68.608  1.00  0.00    -0.113 A  
BRANCH  13  17
HETATM   17  N   UNL     1      -6.957  15.759  69.765  1.00  0.00    -0.147 NA 
HETATM   18  H   UNL     1      -6.969  15.829  70.783  1.00  0.00     0.000 HD 
BRANCH  17  19
HETATM   19  C   UNL     1      -6.076  16.593  68.954  1.00  0.00    -0.154 C  
BRANCH  19  20
HETATM   20  C   UNL     1      -6.854  17.542  68.069  1.00  0.00    -0.190 A  
HETATM   21  C   UNL     1      -7.513  18.638  68.655  1.00  0.00    -0.332 A  
HETATM   22  C   UNL     1      -8.183  19.570  67.862  1.00  0.00    -0.345 A  
HETATM   23  C   UNL     1      -8.190  19.416  66.481  1.00  0.00    -0.314 A  
HETATM   24  C   UNL     1      -7.529  18.355  65.878  1.00  0.00    -0.208 A  
HETATM   25  F   UNL     1      -8.833  20.314  65.723  1.00  0.00    -0.316 F  
HETATM   26  C   UNL     1      -6.853  17.424  66.667  1.00  0.00    -0.268 A  
ENDBRANCH  19  20
ENDBRANCH  17  19
ENDBRANCH  13  17
ENDBRANCH   6   8
ENDBRANCH   3   4
ENDBRANCH   2   3
TORSDOF 6
ENDMDL
MODEL      173
REMARK 921   NORMALIZED FREE ENERGY PREDICTED BY IDOCK:   -3.72 KCAL/MOL
REMARK 922        TOTAL FREE ENERGY PREDICTED BY IDOCK:   -5.73 KCAL/MOL
REMARK 923 INTER-LIGAND FREE ENERGY PREDICTED BY IDOCK:   -5.18 KCAL/MOL
REMARK 924 INTRA-LIGAND FREE ENERGY PREDICTED BY IDOCK:   -0.55 KCAL/MOL
REMARK 927      BINDING AFFINITY PREDICTED BY RF-SCORE:    0.00 PKD
ROOT
HETATM    1  C   UNL     1     -10.422   1.965  72.901  1.00  0.00    -0.227 C  
HETATM    2  C   UNL     1     -10.619   3.435  73.234  1.00  0.00    -0.187 C  
ENDROOT
BRANCH   2   3
HETATM    3  O   UNL     1      -9.808   4.200  72.332  1.00  0.00    -0.146 OA 
BRANCH   3   4
HETATM    4  C   UNL     1     -10.439   5.219  71.695  1.00  0.00    -0.214 C  
HETATM    5  O   UNL     1     -11.400   5.832  72.138  1.00  0.00    -0.280 OA 
HETATM    6  N   UNL     1      -9.713   5.511  70.575  1.00  0.00    -0.175 N  
HETATM    7  H   UNL     1      -9.156   4.773  70.142  1.00  0.00     0.000 HD 
BRANCH   6   8
HETATM    8  C   UNL     1      -9.707   6.799  69.997  1.00  0.00    -0.163 A  
HETATM    9  C   UNL     1     -10.653   7.234  69.052  1.00  0.00    -0.201 A  
HETATM   10  C   UNL     1     -10.522   8.532  68.533  1.00  0.00    -0.205 A  
HETATM   11  N   UNL     1     -11.531   6.332  68.412  1.00  0.00    -0.436 NA 
HETATM   12  H2  UNL     1     -12.028   5.812  69.137  1.00  0.00     0.000 HD 
HETATM   13  C   UNL     1      -9.520   9.411  68.970  1.00  0.00    -0.160 A  
HETATM   14  H1  UNL     1     -12.218   6.647  67.727  1.00  0.00     0.000 HD 
HETATM   15  C   UNL     1      -8.707   7.667  70.443  1.00  0.00    -0.143 A  
HETATM   16  C   UNL     1      -8.642   8.974  69.962  1.00  0.00    -0.157 A  
BRANCH  13  17
HETATM   17  N   UNL     1      -9.492  10.707  68.429  1.00  0.00    -0.159 NA 
HETATM   18  H   UNL     1      -8.647  11.278  68.458  1.00  0.00     0.000 HD 
BRANCH  17  19
HETATM   19  C   UNL     1     -10.724  11.202  67.824  1.00  0.00    -0.222 C  
BRANCH  19  20
HETATM   20  C   UNL     1     -10.770  12.713  67.789  1.00  0.00    -0.239 A  
HETATM   21  C   UNL     1     -10.046  13.396  66.795  1.00  0.00    -0.260 A  
HETATM   22  C   UNL     1     -10.119  14.785  66.691  1.00  0.00    -0.269 A  
HETATM   23  C   UNL     1     -10.922  15.496  67.575  1.00  0.00    -0.316 A  
HETATM   24  C   UNL     1     -11.663  14.843  68.550  1.00  0.00    -0.338 A  
HETATM   25  F   UNL     1     -10.991  16.831  67.471  1.00  0.00    -0.322 F  
HETATM   26  C   UNL     1     -11.597  13.454  68.653  1.00  0.00    -0.362 A  
ENDBRANCH  19  20
ENDBRANCH  17  19
ENDBRANCH  13  17
ENDBRANCH   6   8
ENDBRANCH   3   4
ENDBRANCH   2   3
TORSDOF 6
ENDMDL
MODEL      174
REMARK 921   NORMALIZED FREE ENERGY PREDICTED BY IDOCK:   -3.70 KCAL/MOL
REMARK 922        TOTAL FREE ENERGY PREDICTED BY IDOCK:   -5.71 KCAL/MOL
REMARK 923 INTER-LIGAND FREE ENERGY PREDICTED BY IDOCK:   -5.14 KCAL/MOL
REMARK 924 INTRA-LIGAND FREE ENERGY PREDICTED BY IDOCK:   -0.56 KCAL/MOL
REMARK 927      BINDING AFFINITY PREDICTED BY RF-SCORE:    0.00 PKD
ROOT
HETATM    1  C   UNL     1     -10.643  16.391  67.470  1.00  0.00    -0.309 C  
HETATM    2  C   UNL     1     -10.012  15.714  66.266  1.00  0.00    -0.295 C  
ENDROOT
BRANCH   2   3
HETATM    3  O   UNL     1      -9.499  14.446  66.695  1.00  0.00    -0.260 OA 
BRANCH   3   4
HETATM    4  C   UNL     1     -10.422  13.563  67.156  1.00  0.00    -0.256 C  
HETATM    5  O   UNL     1     -11.410  13.197  66.534  1.00  0.00    -0.295 OA 
HETATM    6  N   UNL     1      -9.959  13.070  68.342  1.00  0.00    -0.267 N  
HETATM    7  H   UNL     1      -9.334  13.647  68.906  1.00  0.00     0.000 HD 
BRANCH   6   8
HETATM    8  C   UNL     1     -10.316  11.789  68.815  1.00  0.00    -0.179 A  
HETATM    9  C   UNL     1     -11.451  11.538  69.606  1.00  0.00    -0.301 A  
HETATM   10  C   UNL     1     -11.682  10.220  70.035  1.00  0.00    -0.330 A  
HETATM   11  N   UNL     1     -12.182  12.585  70.208  1.00  0.00    -0.310 NA 
HETATM   12  H2  UNL     1     -12.451  13.241  69.474  1.00  0.00     0.000 HD 
HETATM   13  C   UNL     1     -10.852   9.156  69.649  1.00  0.00    -0.197 A  
HETATM   14  H1  UNL     1     -13.006  12.403  70.782  1.00  0.00     0.000 HD 
HETATM   15  C   UNL     1      -9.485  10.736  68.422  1.00  0.00    -0.174 A  
HETATM   16  C   UNL     1      -9.776   9.428  68.803  1.00  0.00    -0.161 A  
BRANCH  13  17
HETATM   17  N   UNL     1     -11.184   7.863  70.087  1.00  0.00    -0.408 NA 
HETATM   18  H   UNL     1     -12.143   7.612  70.326  1.00  0.00     0.000 HD 
BRANCH  17  19
HETATM   19  C   UNL     1     -10.096   6.895  70.185  1.00  0.00    -0.182 C  
BRANCH  19  20
HETATM   20  C   UNL     1      -9.821   6.219  68.861  1.00  0.00    -0.155 A  
HETATM   21  C   UNL     1     -10.904   5.856  68.040  1.00  0.00    -0.321 A  
HETATM   22  C   UNL     1     -10.685   5.292  66.783  1.00  0.00    -0.241 A  
HETATM   23  C   UNL     1      -9.384   5.096  66.337  1.00  0.00    -0.146 A  
HETATM   24  C   UNL     1      -8.299   5.465  67.120  1.00  0.00    -0.107 A  
HETATM   25  F   UNL     1      -9.177   4.556  65.129  1.00  0.00    -0.135 F  
HETATM   26  C   UNL     1      -8.513   6.035  68.375  1.00  0.00    -0.112 A  
ENDBRANCH  19  20
ENDBRANCH  17  19
ENDBRANCH  13  17
ENDBRANCH   6   8
ENDBRANCH   3   4
ENDBRANCH   2   3
TORSDOF 6
ENDMDL
MODEL      175
REMARK 921   NORMALIZED FREE ENERGY PREDICTED BY IDOCK:   -3.68 KCAL/MOL
REMARK 922        TOTAL FREE ENERGY PREDICTED BY IDOCK:   -5.67 KCAL/MOL
REMARK 923 INTER-LIGAND FREE ENERGY PREDICTED BY IDOCK:   -5.04 KCAL/MOL
REMARK 924 INTRA-LIGAND FREE ENERGY PREDICTED BY IDOCK:   -0.63 KCAL/MOL
REMARK 927      BINDING AFFINITY PREDICTED BY RF-SCORE:    0.00 PKD
ROOT
HETATM    1  C   UNL     1      -8.012   1.677  65.531  1.00  0.00    -0.073 C  
HETATM    2  C   UNL     1      -8.427   2.432  66.783  1.00  0.00    -0.098 C  
ENDROOT
BRANCH   2   3
HETATM    3  O   UNL     1      -9.138   3.607  66.370  1.00  0.00    -0.137 OA 
BRANCH   3   4
HETATM    4  C   UNL     1      -8.537   4.789  66.657  1.00  0.00    -0.108 C  
HETATM    5  O   UNL     1      -7.554   5.233  66.078  1.00  0.00    -0.085 OA 
HETATM    6  N   UNL     1      -9.314   5.429  67.581  1.00  0.00    -0.113 N  
HETATM    7  H   UNL     1      -9.891   4.870  68.210  1.00  0.00     0.000 HD 
BRANCH   6   8
HETATM    8  C   UNL     1      -9.345   6.835  67.694  1.00  0.00    -0.120 A  
HETATM    9  C   UNL     1      -8.300   7.596  68.247  1.00  0.00    -0.125 A  
HETATM   10  C   UNL     1      -8.464   8.989  68.326  1.00  0.00    -0.129 A  
HETATM   11  N   UNL     1      -7.246   6.995  68.970  1.00  0.00    -0.088 NA 
HETATM   12  H2  UNL     1      -6.831   6.276  68.377  1.00  0.00     0.000 HD 
HETATM   13  C   UNL     1      -9.604   9.634  67.821  1.00  0.00    -0.139 A  
HETATM   14  H1  UNL     1      -6.488   7.547  69.371  1.00  0.00     0.000 HD 
HETATM   15  C   UNL     1     -10.483   7.467  67.185  1.00  0.00    -0.403 A  
HETATM   16  C   UNL     1     -10.589   8.856  67.212  1.00  0.00    -0.304 A  
BRANCH  13  17
HETATM   17  N   UNL     1      -9.664  11.035  67.901  1.00  0.00    -0.169 NA 
HETATM   18  H   UNL     1      -8.834  11.612  67.765  1.00  0.00     0.000 HD 
BRANCH  17  19
HETATM   19  C   UNL     1     -10.966  11.629  68.187  1.00  0.00    -0.226 C  
BRANCH  19  20
HETATM   20  C   UNL     1     -11.443  12.515  67.058  1.00  0.00    -0.419 A  
HETATM   21  C   UNL     1     -11.390  13.912  67.217  1.00  0.00    -0.344 A  
HETATM   22  C   UNL     1     -11.758  14.760  66.172  1.00  0.00    -0.255 A  
HETATM   23  C   UNL     1     -12.172  14.215  64.962  1.00  0.00    -0.441 A  
HETATM   24  C   UNL     1     -12.212  12.841  64.774  1.00  0.00    -0.517 A  
HETATM   25  F   UNL     1     -12.523  15.032  63.959  1.00  0.00    -0.510 F  
HETATM   26  C   UNL     1     -11.838  11.990  65.814  1.00  0.00    -0.236 A  
ENDBRANCH  19  20
ENDBRANCH  17  19
ENDBRANCH  13  17
ENDBRANCH   6   8
ENDBRANCH   3   4
ENDBRANCH   2   3
TORSDOF 6
ENDMDL
MODEL      176
REMARK 921   NORMALIZED FREE ENERGY PREDICTED BY IDOCK:   -3.66 KCAL/MOL
REMARK 922        TOTAL FREE ENERGY PREDICTED BY IDOCK:   -5.65 KCAL/MOL
REMARK 923 INTER-LIGAND FREE ENERGY PREDICTED BY IDOCK:   -5.68 KCAL/MOL
REMARK 924 INTRA-LIGAND FREE ENERGY PREDICTED BY IDOCK:    0.02 KCAL/MOL
REMARK 927      BINDING AFFINITY PREDICTED BY RF-SCORE:    0.00 PKD
ROOT
HETATM    1  C   UNL     1      -9.987   4.496  66.199  1.00  0.00    -0.267 C  
HETATM    2  C   UNL     1     -10.712   5.516  67.060  1.00  0.00    -0.204 C  
ENDROOT
BRANCH   2   3
HETATM    3  O   UNL     1      -9.722   6.352  67.675  1.00  0.00    -0.117 OA 
BRANCH   3   4
HETATM    4  C   UNL     1     -10.125   7.611  67.983  1.00  0.00    -0.187 C  
HETATM    5  O   UNL     1     -10.702   8.368  67.215  1.00  0.00    -0.285 OA 
HETATM    6  N   UNL     1      -9.902   7.795  69.318  1.00  0.00    -0.170 N  
HETATM    7  H   UNL     1      -9.156   7.266  69.772  1.00  0.00     0.000 HD 
BRANCH   6   8
HETATM    8  C   UNL     1     -10.669   8.693  70.092  1.00  0.00    -0.234 A  
HETATM    9  C   UNL     1     -10.702  10.081  69.872  1.00  0.00    -0.286 A  
HETATM   10  C   UNL     1     -11.487  10.869  70.730  1.00  0.00    -0.115 A  
HETATM   11  N   UNL     1      -9.770  10.720  69.026  1.00  0.00    -0.251 NA 
HETATM   12  H2  UNL     1      -9.805  10.258  68.117  1.00  0.00     0.000 HD 
HETATM   13  C   UNL     1     -12.272  10.306  71.748  1.00  0.00    -0.192 A  
HETATM   14  H1  UNL     1      -9.793  11.728  68.866  1.00  0.00     0.000 HD 
HETATM   15  C   UNL     1     -11.450   8.120  71.100  1.00  0.00    -0.304 A  
HETATM   16  C   UNL     1     -12.274   8.919  71.892  1.00  0.00    -0.445 A  
BRANCH  13  17
HETATM   17  N   UNL     1     -13.062  11.166  72.529  1.00  0.00    -0.214 NA 
HETATM   18  H   UNL     1     -13.131  11.053  73.540  1.00  0.00     0.000 HD 
BRANCH  17  19
HETATM   19  C   UNL     1     -13.778  12.228  71.830  1.00  0.00     0.067 C  
BRANCH  19  20
HETATM   20  C   UNL     1     -12.943  13.482  71.700  1.00  0.00    -0.447 A  
HETATM   21  C   UNL     1     -12.458  13.852  70.432  1.00  0.00    -0.404 A  
HETATM   22  C   UNL     1     -11.741  15.037  70.263  1.00  0.00    -0.338 A  
HETATM   23  C   UNL     1     -11.515  15.862  71.359  1.00  0.00    -0.417 A  
HETATM   24  C   UNL     1     -12.001  15.530  72.615  1.00  0.00    -0.562 A  
HETATM   25  F   UNL     1     -10.828  17.000  71.193  1.00  0.00     0.125 F  
HETATM   26  C   UNL     1     -12.724  14.348  72.786  1.00  0.00    -0.429 A  
ENDBRANCH  19  20
ENDBRANCH  17  19
ENDBRANCH  13  17
ENDBRANCH   6   8
ENDBRANCH   3   4
ENDBRANCH   2   3
TORSDOF 6
ENDMDL
MODEL      177
REMARK 921   NORMALIZED FREE ENERGY PREDICTED BY IDOCK:   -3.66 KCAL/MOL
REMARK 922        TOTAL FREE ENERGY PREDICTED BY IDOCK:   -5.65 KCAL/MOL
REMARK 923 INTER-LIGAND FREE ENERGY PREDICTED BY IDOCK:   -4.97 KCAL/MOL
REMARK 924 INTRA-LIGAND FREE ENERGY PREDICTED BY IDOCK:   -0.68 KCAL/MOL
REMARK 927      BINDING AFFINITY PREDICTED BY RF-SCORE:    0.00 PKD
ROOT
HETATM    1  C   UNL     1     -12.191  14.335  66.034  1.00  0.00    -0.422 C  
HETATM    2  C   UNL     1     -11.820  12.985  66.623  1.00  0.00    -0.393 C  
ENDROOT
BRANCH   2   3
HETATM    3  O   UNL     1     -10.580  12.575  66.031  1.00  0.00    -0.254 OA 
BRANCH   3   4
HETATM    4  C   UNL     1     -10.055  11.418  66.509  1.00  0.00    -0.215 C  
HETATM    5  O   UNL     1      -8.861  11.148  66.529  1.00  0.00    -0.160 OA 
HETATM    6  N   UNL     1     -11.075  10.711  67.080  1.00  0.00    -0.255 N  
HETATM    7  H   UNL     1     -12.025  10.852  66.737  1.00  0.00     0.000 HD 
BRANCH   6   8
HETATM    8  C   UNL     1     -10.858   9.793  68.130  1.00  0.00    -0.214 A  
HETATM    9  C   UNL     1     -10.367   8.490  67.937  1.00  0.00    -0.223 A  
HETATM   10  C   UNL     1     -10.220   7.664  69.064  1.00  0.00    -0.211 A  
HETATM   11  N   UNL     1     -10.296   7.907  66.653  1.00  0.00    -0.466 NA 
HETATM   12  H2  UNL     1      -9.761   8.535  66.054  1.00  0.00     0.000 HD 
HETATM   13  C   UNL     1     -10.492   8.120  70.362  1.00  0.00    -0.215 A  
HETATM   14  H1  UNL     1      -9.939   6.961  66.513  1.00  0.00     0.000 HD 
HETATM   15  C   UNL     1     -11.129  10.260  69.419  1.00  0.00    -0.299 A  
HETATM   16  C   UNL     1     -10.908   9.442  70.526  1.00  0.00    -0.336 A  
BRANCH  13  17
HETATM   17  N   UNL     1     -10.273   7.240  71.435  1.00  0.00    -0.189 NA 
HETATM   18  H   UNL     1      -9.797   7.544  72.284  1.00  0.00     0.000 HD 
BRANCH  17  19
HETATM   19  C   UNL     1     -10.757   5.872  71.280  1.00  0.00    -0.264 C  
BRANCH  19  20
HETATM   20  C   UNL     1      -9.622   4.874  71.233  1.00  0.00    -0.229 A  
HETATM   21  C   UNL     1      -9.657   3.844  70.276  1.00  0.00    -0.271 A  
HETATM   22  C   UNL     1      -8.595   2.946  70.159  1.00  0.00    -0.111 A  
HETATM   23  C   UNL     1      -7.491   3.080  70.992  1.00  0.00    -0.036 A  
HETATM   24  C   UNL     1      -7.424   4.100  71.930  1.00  0.00    -0.065 A  
HETATM   25  F   UNL     1      -6.472   2.217  70.876  1.00  0.00    -0.021 F  
HETATM   26  C   UNL     1      -8.481   5.004  72.046  1.00  0.00    -0.125 A  
ENDBRANCH  19  20
ENDBRANCH  17  19
ENDBRANCH  13  17
ENDBRANCH   6   8
ENDBRANCH   3   4
ENDBRANCH   2   3
TORSDOF 6
ENDMDL
MODEL      178
REMARK 921   NORMALIZED FREE ENERGY PREDICTED BY IDOCK:   -3.63 KCAL/MOL
REMARK 922        TOTAL FREE ENERGY PREDICTED BY IDOCK:   -5.61 KCAL/MOL
REMARK 923 INTER-LIGAND FREE ENERGY PREDICTED BY IDOCK:   -5.37 KCAL/MOL
REMARK 924 INTRA-LIGAND FREE ENERGY PREDICTED BY IDOCK:   -0.24 KCAL/MOL
REMARK 927      BINDING AFFINITY PREDICTED BY RF-SCORE:    0.00 PKD
ROOT
HETATM    1  C   UNL     1      -7.917   1.999  63.589  1.00  0.00    -0.065 C  
HETATM    2  C   UNL     1      -9.322   1.523  63.916  1.00  0.00    -0.114 C  
ENDROOT
BRANCH   2   3
HETATM    3  O   UNL     1     -10.186   2.667  63.906  1.00  0.00    -0.158 OA 
BRANCH   3   4
HETATM    4  C   UNL     1      -9.583   3.861  64.141  1.00  0.00    -0.165 C  
HETATM    5  O   UNL     1      -9.229   4.647  63.274  1.00  0.00    -0.127 OA 
HETATM    6  N   UNL     1      -9.596   4.065  65.492  1.00  0.00    -0.177 N  
HETATM    7  H   UNL     1      -9.606   3.255  66.113  1.00  0.00     0.000 HD 
BRANCH   6   8
HETATM    8  C   UNL     1      -9.594   5.358  66.057  1.00  0.00    -0.131 A  
HETATM    9  C   UNL     1      -8.527   6.264  65.928  1.00  0.00    -0.146 A  
HETATM   10  C   UNL     1      -8.638   7.514  66.561  1.00  0.00    -0.134 A  
HETATM   11  N   UNL     1      -7.264   5.859  65.443  1.00  0.00    -0.072 NA 
HETATM   12  H2  UNL     1      -7.407   5.412  64.537  1.00  0.00     0.000 HD 
HETATM   13  C   UNL     1      -9.795   7.894  67.258  1.00  0.00    -0.195 A  
HETATM   14  H1  UNL     1      -6.490   6.517  65.349  1.00  0.00     0.000 HD 
HETATM   15  C   UNL     1     -10.753   5.728  66.746  1.00  0.00    -0.369 A  
HETATM   16  C   UNL     1     -10.865   7.000  67.305  1.00  0.00    -0.403 A  
BRANCH  13  17
HETATM   17  N   UNL     1      -9.837   9.180  67.821  1.00  0.00    -0.165 NA 
HETATM   18  H   UNL     1     -10.337   9.364  68.692  1.00  0.00     0.000 HD 
BRANCH  17  19
HETATM   19  C   UNL     1      -9.136  10.242  67.107  1.00  0.00    -0.142 C  
BRANCH  19  20
HETATM   20  C   UNL     1     -10.046  10.972  66.144  1.00  0.00    -0.286 A  
HETATM   21  C   UNL     1      -9.988  10.654  64.775  1.00  0.00    -0.391 A  
HETATM   22  C   UNL     1     -10.860  11.259  63.869  1.00  0.00    -0.427 A  
HETATM   23  C   UNL     1     -11.797  12.176  64.328  1.00  0.00    -0.378 A  
HETATM   24  C   UNL     1     -11.888  12.490  65.677  1.00  0.00    -0.493 A  
HETATM   25  F   UNL     1     -12.634  12.753  63.455  1.00  0.00    -0.493 F  
HETATM   26  C   UNL     1     -11.022  11.883  66.587  1.00  0.00    -0.336 A  
ENDBRANCH  19  20
ENDBRANCH  17  19
ENDBRANCH  13  17
ENDBRANCH   6   8
ENDBRANCH   3   4
ENDBRANCH   2   3
TORSDOF 6
ENDMDL
MODEL      179
REMARK 921   NORMALIZED FREE ENERGY PREDICTED BY IDOCK:   -3.62 KCAL/MOL
REMARK 922        TOTAL FREE ENERGY PREDICTED BY IDOCK:   -5.59 KCAL/MOL
REMARK 923 INTER-LIGAND FREE ENERGY PREDICTED BY IDOCK:   -4.88 KCAL/MOL
REMARK 924 INTRA-LIGAND FREE ENERGY PREDICTED BY IDOCK:   -0.72 KCAL/MOL
REMARK 927      BINDING AFFINITY PREDICTED BY RF-SCORE:    0.00 PKD
ROOT
HETATM    1  C   UNL     1      -9.202   2.125  63.249  1.00  0.00    -0.092 C  
HETATM    2  C   UNL     1      -8.911   1.748  64.692  1.00  0.00    -0.118 C  
ENDROOT
BRANCH   2   3
HETATM    3  O   UNL     1      -7.879   2.619  65.172  1.00  0.00    -0.079 OA 
BRANCH   3   4
HETATM    4  C   UNL     1      -7.833   2.791  66.517  1.00  0.00    -0.077 C  
HETATM    5  O   UNL     1      -6.806   2.854  67.180  1.00  0.00    -0.044 OA 
HETATM    6  N   UNL     1      -9.110   3.027  66.942  1.00  0.00    -0.163 N  
HETATM    7  H   UNL     1      -9.888   2.644  66.403  1.00  0.00     0.000 HD 
BRANCH   6   8
HETATM    8  C   UNL     1      -9.390   3.782  68.101  1.00  0.00    -0.173 A  
HETATM    9  C   UNL     1      -9.618   5.169  68.092  1.00  0.00    -0.134 A  
HETATM   10  C   UNL     1      -9.861   5.809  69.319  1.00  0.00    -0.220 A  
HETATM   11  N   UNL     1      -9.329   5.960  66.959  1.00  0.00    -0.118 NA 
HETATM   12  H2  UNL     1      -9.822   5.557  66.162  1.00  0.00     0.000 HD 
HETATM   13  C   UNL     1      -9.938   5.098  70.527  1.00  0.00    -0.234 A  
HETATM   14  H1  UNL     1      -9.495   6.968  66.952  1.00  0.00     0.000 HD 
HETATM   15  C   UNL     1      -9.468   3.063  69.298  1.00  0.00    -0.167 A  
HETATM   16  C   UNL     1      -9.781   3.712  70.491  1.00  0.00    -0.210 A  
BRANCH  13  17
HETATM   17  N   UNL     1     -10.231   5.813  71.700  1.00  0.00    -0.197 NA 
HETATM   18  H   UNL     1      -9.499   6.277  72.237  1.00  0.00     0.000 HD 
BRANCH  17  19
HETATM   19  C   UNL     1     -11.629   5.862  72.116  1.00  0.00    -0.256 C  
BRANCH  19  20
HETATM   20  C   UNL     1     -12.204   7.256  72.001  1.00  0.00    -0.312 A  
HETATM   21  C   UNL     1     -11.343   8.362  72.116  1.00  0.00    -0.437 A  
HETATM   22  C   UNL     1     -11.827   9.660  71.948  1.00  0.00    -0.280 A  
HETATM   23  C   UNL     1     -13.172   9.856  71.656  1.00  0.00    -0.421 A  
HETATM   24  C   UNL     1     -14.037   8.780  71.516  1.00  0.00    -0.383 A  
HETATM   25  F   UNL     1     -13.634  11.104  71.493  1.00  0.00    -0.323 F  
HETATM   26  C   UNL     1     -13.555   7.481  71.678  1.00  0.00    -0.442 A  
ENDBRANCH  19  20
ENDBRANCH  17  19
ENDBRANCH  13  17
ENDBRANCH   6   8
ENDBRANCH   3   4
ENDBRANCH   2   3
TORSDOF 6
ENDMDL
MODEL      180
REMARK 921   NORMALIZED FREE ENERGY PREDICTED BY IDOCK:   -3.61 KCAL/MOL
REMARK 922        TOTAL FREE ENERGY PREDICTED BY IDOCK:   -5.59 KCAL/MOL
REMARK 923 INTER-LIGAND FREE ENERGY PREDICTED BY IDOCK:   -4.91 KCAL/MOL
REMARK 924 INTRA-LIGAND FREE ENERGY PREDICTED BY IDOCK:   -0.68 KCAL/MOL
REMARK 927      BINDING AFFINITY PREDICTED BY RF-SCORE:    0.00 PKD
ROOT
HETATM    1  C   UNL     1      -9.414  17.123  65.986  1.00  0.00    -0.167 C  
HETATM    2  C   UNL     1      -8.347  16.134  66.426  1.00  0.00    -0.322 C  
ENDROOT
BRANCH   2   3
HETATM    3  O   UNL     1      -8.860  14.813  66.211  1.00  0.00    -0.197 OA 
BRANCH   3   4
HETATM    4  C   UNL     1      -9.078  14.077  67.330  1.00  0.00    -0.209 C  
HETATM    5  O   UNL     1      -9.596  14.500  68.355  1.00  0.00    -0.201 OA 
HETATM    6  N   UNL     1      -8.757  12.782  67.037  1.00  0.00    -0.232 N  
HETATM    7  H   UNL     1      -8.061  12.598  66.314  1.00  0.00     0.000 HD 
BRANCH   6   8
HETATM    8  C   UNL     1      -9.355  11.690  67.701  1.00  0.00    -0.178 A  
HETATM    9  C   UNL     1      -8.834  11.107  68.869  1.00  0.00    -0.079 A  
HETATM   10  C   UNL     1      -9.511  10.006  69.420  1.00  0.00    -0.237 A  
HETATM   11  N   UNL     1      -7.531  11.401  69.327  1.00  0.00    -0.307 NA 
HETATM   12  H2  UNL     1      -7.454  12.414  69.421  1.00  0.00     0.000 HD 
HETATM   13  C   UNL     1     -10.708   9.518  68.872  1.00  0.00    -0.195 A  
HETATM   14  H1  UNL     1      -7.153  10.978  70.176  1.00  0.00     0.000 HD 
HETATM   15  C   UNL     1     -10.548  11.215  67.149  1.00  0.00    -0.286 A  
HETATM   16  C   UNL     1     -11.237  10.166  67.755  1.00  0.00    -0.205 A  
BRANCH  13  17
HETATM   17  N   UNL     1     -11.341   8.442  69.514  1.00  0.00    -0.412 NA 
HETATM   18  H   UNL     1     -12.192   8.574  70.062  1.00  0.00     0.000 HD 
BRANCH  17  19
HETATM   19  C   UNL     1     -10.730   7.125  69.364  1.00  0.00    -0.231 C  
BRANCH  19  20
HETATM   20  C   UNL     1     -10.369   6.514  70.699  1.00  0.00    -0.239 A  
HETATM   21  C   UNL     1     -11.342   6.465  71.714  1.00  0.00    -0.337 A  
HETATM   22  C   UNL     1     -11.066   5.847  72.934  1.00  0.00    -0.306 A  
HETATM   23  C   UNL     1      -9.819   5.270  73.142  1.00  0.00    -0.154 A  
HETATM   24  C   UNL     1      -8.850   5.287  72.149  1.00  0.00    -0.135 A  
HETATM   25  F   UNL     1      -9.558   4.676  74.314  1.00  0.00    -0.118 F  
HETATM   26  C   UNL     1      -9.125   5.897  70.925  1.00  0.00    -0.159 A  
ENDBRANCH  19  20
ENDBRANCH  17  19
ENDBRANCH  13  17
ENDBRANCH   6   8
ENDBRANCH   3   4
ENDBRANCH   2   3
TORSDOF 6
ENDMDL
MODEL      181
REMARK 921   NORMALIZED FREE ENERGY PREDICTED BY IDOCK:   -3.60 KCAL/MOL
REMARK 922        TOTAL FREE ENERGY PREDICTED BY IDOCK:   -5.58 KCAL/MOL
REMARK 923 INTER-LIGAND FREE ENERGY PREDICTED BY IDOCK:   -5.47 KCAL/MOL
REMARK 924 INTRA-LIGAND FREE ENERGY PREDICTED BY IDOCK:   -0.10 KCAL/MOL
REMARK 927      BINDING AFFINITY PREDICTED BY RF-SCORE:    0.00 PKD
ROOT
HETATM    1  C   UNL     1      -8.539   7.398  68.368  1.00  0.00    -0.124 C  
HETATM    2  C   UNL     1      -9.362   6.788  67.246  1.00  0.00    -0.134 C  
ENDROOT
BRANCH   2   3
HETATM    3  O   UNL     1     -10.342   7.755  66.847  1.00  0.00    -0.295 OA 
BRANCH   3   4
HETATM    4  C   UNL     1      -9.856   8.872  66.247  1.00  0.00    -0.285 C  
HETATM    5  O   UNL     1      -9.307   8.896  65.154  1.00  0.00    -0.127 OA 
HETATM    6  N   UNL     1     -10.230   9.941  67.011  1.00  0.00    -0.220 N  
HETATM    7  H   UNL     1     -10.382   9.804  68.011  1.00  0.00     0.000 HD 
BRANCH   6   8
HETATM    8  C   UNL     1     -10.413  11.229  66.464  1.00  0.00    -0.253 A  
HETATM    9  C   UNL     1      -9.384  11.975  65.863  1.00  0.00    -0.157 A  
HETATM   10  C   UNL     1      -9.690  13.257  65.379  1.00  0.00    -0.030 A  
HETATM   11  N   UNL     1      -8.027  11.603  65.991  1.00  0.00    -0.362 NA 
HETATM   12  H2  UNL     1      -7.937  10.637  65.678  1.00  0.00     0.000 HD 
HETATM   13  C   UNL     1     -10.992  13.780  65.427  1.00  0.00    -0.309 A  
HETATM   14  H1  UNL     1      -7.280  12.145  65.555  1.00  0.00     0.000 HD 
HETATM   15  C   UNL     1     -11.714  11.738  66.514  1.00  0.00    -0.149 A  
HETATM   16  C   UNL     1     -12.005  12.985  65.963  1.00  0.00    -0.498 A  
BRANCH  13  17
HETATM   17  N   UNL     1     -11.216  15.053  64.878  1.00  0.00    -0.432 NA 
HETATM   18  H   UNL     1     -11.843  15.187  64.084  1.00  0.00     0.000 HD 
BRANCH  17  19
HETATM   19  C   UNL     1     -10.514  16.175  65.492  1.00  0.00    -0.386 C  
BRANCH  19  20
HETATM   20  C   UNL     1     -10.559  16.111  67.002  1.00  0.00    -0.292 A  
HETATM   21  C   UNL     1     -11.775  15.797  67.637  1.00  0.00     0.082 A  
HETATM   22  C   UNL     1     -11.838  15.663  69.025  1.00  0.00    -0.379 A  
HETATM   23  C   UNL     1     -10.685  15.833  69.782  1.00  0.00    -0.316 A  
HETATM   24  C   UNL     1      -9.470  16.123  69.177  1.00  0.00    -0.251 A  
HETATM   25  F   UNL     1     -10.749  15.702  71.114  1.00  0.00    -0.340 F  
HETATM   26  C   UNL     1      -9.402  16.251  67.790  1.00  0.00    -0.216 A  
ENDBRANCH  19  20
ENDBRANCH  17  19
ENDBRANCH  13  17
ENDBRANCH   6   8
ENDBRANCH   3   4
ENDBRANCH   2   3
TORSDOF 6
ENDMDL
MODEL      182
REMARK 921   NORMALIZED FREE ENERGY PREDICTED BY IDOCK:   -3.57 KCAL/MOL
REMARK 922        TOTAL FREE ENERGY PREDICTED BY IDOCK:   -5.53 KCAL/MOL
REMARK 923 INTER-LIGAND FREE ENERGY PREDICTED BY IDOCK:   -4.97 KCAL/MOL
REMARK 924 INTRA-LIGAND FREE ENERGY PREDICTED BY IDOCK:   -0.56 KCAL/MOL
REMARK 927      BINDING AFFINITY PREDICTED BY RF-SCORE:    0.00 PKD
ROOT
HETATM    1  C   UNL     1     -10.621  16.727  67.835  1.00  0.00    -0.350 C  
HETATM    2  C   UNL     1     -11.360  15.567  68.481  1.00  0.00    -0.351 C  
ENDROOT
BRANCH   2   3
HETATM    3  O   UNL     1     -11.640  14.602  67.458  1.00  0.00    -0.349 OA 
BRANCH   3   4
HETATM    4  C   UNL     1     -10.931  13.447  67.529  1.00  0.00    -0.267 C  
HETATM    5  O   UNL     1      -9.710  13.374  67.510  1.00  0.00    -0.215 OA 
HETATM    6  N   UNL     1     -11.819  12.438  67.773  1.00  0.00    -0.345 N  
HETATM    7  H   UNL     1     -12.783  12.542  67.456  1.00  0.00     0.000 HD 
BRANCH   6   8
HETATM    8  C   UNL     1     -11.447  11.256  68.449  1.00  0.00    -0.307 A  
HETATM    9  C   UNL     1     -10.779  10.183  67.833  1.00  0.00    -0.269 A  
HETATM   10  C   UNL     1     -10.487   9.050  68.611  1.00  0.00    -0.229 A  
HETATM   11  N   UNL     1     -10.657  10.093  66.429  1.00  0.00    -0.136 NA 
HETATM   12  H2  UNL     1     -10.232  10.958  66.096  1.00  0.00     0.000 HD 
HETATM   13  C   UNL     1     -10.789   8.989  69.980  1.00  0.00    -0.231 A  
HETATM   14  H1  UNL     1     -10.172   9.314  65.982  1.00  0.00     0.000 HD 
HETATM   15  C   UNL     1     -11.750  11.207  69.812  1.00  0.00    -0.419 A  
HETATM   16  C   UNL     1     -11.386  10.100  70.576  1.00  0.00    -0.416 A  
BRANCH  13  17
HETATM   17  N   UNL     1     -10.420   7.835  70.690  1.00  0.00    -0.211 NA 
HETATM   18  H   UNL     1     -11.119   7.215  71.100  1.00  0.00     0.000 HD 
BRANCH  17  19
HETATM   19  C   UNL     1      -8.992   7.560  70.816  1.00  0.00    -0.149 C  
BRANCH  19  20
HETATM   20  C   UNL     1      -8.693   6.080  70.741  1.00  0.00    -0.135 A  
HETATM   21  C   UNL     1      -7.513   5.652  70.105  1.00  0.00    -0.077 A  
HETATM   22  C   UNL     1      -7.171   4.300  70.078  1.00  0.00    -0.046 A  
HETATM   23  C   UNL     1      -8.002   3.371  70.693  1.00  0.00    -0.053 A  
HETATM   24  C   UNL     1      -9.160   3.771  71.345  1.00  0.00    -0.177 A  
HETATM   25  F   UNL     1      -7.670   2.073  70.666  1.00  0.00    -0.038 F  
HETATM   26  C   UNL     1      -9.502   5.123  71.380  1.00  0.00    -0.200 A  
ENDBRANCH  19  20
ENDBRANCH  17  19
ENDBRANCH  13  17
ENDBRANCH   6   8
ENDBRANCH   3   4
ENDBRANCH   2   3
TORSDOF 6
ENDMDL
MODEL      183
REMARK 921   NORMALIZED FREE ENERGY PREDICTED BY IDOCK:   -3.56 KCAL/MOL
REMARK 922        TOTAL FREE ENERGY PREDICTED BY IDOCK:   -5.52 KCAL/MOL
REMARK 923 INTER-LIGAND FREE ENERGY PREDICTED BY IDOCK:   -5.26 KCAL/MOL
REMARK 924 INTRA-LIGAND FREE ENERGY PREDICTED BY IDOCK:   -0.26 KCAL/MOL
REMARK 927      BINDING AFFINITY PREDICTED BY RF-SCORE:    0.00 PKD
ROOT
HETATM    1  C   UNL     1     -10.905   6.279  70.083  1.00  0.00    -0.375 C  
HETATM    2  C   UNL     1     -10.841   6.271  68.565  1.00  0.00    -0.323 C  
ENDROOT
BRANCH   2   3
HETATM    3  O   UNL     1      -9.459   6.238  68.186  1.00  0.00    -0.116 OA 
BRANCH   3   4
HETATM    4  C   UNL     1      -9.069   7.189  67.300  1.00  0.00    -0.123 C  
HETATM    5  O   UNL     1      -9.128   7.077  66.083  1.00  0.00    -0.162 OA 
HETATM    6  N   UNL     1      -8.758   8.311  68.015  1.00  0.00    -0.135 N  
HETATM    7  H   UNL     1      -8.436   8.208  68.978  1.00  0.00     0.000 HD 
BRANCH   6   8
HETATM    8  C   UNL     1      -8.865   9.607  67.466  1.00  0.00    -0.125 A  
HETATM    9  C   UNL     1      -7.758  10.416  67.155  1.00  0.00    -0.100 A  
HETATM   10  C   UNL     1      -8.001  11.699  66.637  1.00  0.00    -0.098 A  
HETATM   11  N   UNL     1      -6.459  10.102  67.608  1.00  0.00    -0.062 NA 
HETATM   12  H2  UNL     1      -6.245   9.150  67.308  1.00  0.00     0.000 HD 
HETATM   13  C   UNL     1      -9.299  12.162  66.371  1.00  0.00    -0.224 A  
HETATM   14  H1  UNL     1      -5.655  10.689  67.383  1.00  0.00     0.000 HD 
HETATM   15  C   UNL     1     -10.162  10.056  67.202  1.00  0.00    -0.284 A  
HETATM   16  C   UNL     1     -10.371  11.306  66.622  1.00  0.00    -0.279 A  
BRANCH  13  17
HETATM   17  N   UNL     1      -9.445  13.441  65.810  1.00  0.00    -0.487 NA 
HETATM   18  H   UNL     1      -9.825  13.571  64.872  1.00  0.00     0.000 HD 
BRANCH  17  19
HETATM   19  C   UNL     1      -9.030  14.577  66.627  1.00  0.00    -0.219 C  
BRANCH  19  20
HETATM   20  C   UNL     1     -10.036  14.889  67.712  1.00  0.00    -0.234 A  
HETATM   21  C   UNL     1      -9.835  16.018  68.527  1.00  0.00    -0.216 A  
HETATM   22  C   UNL     1     -10.777  16.374  69.493  1.00  0.00    -0.325 A  
HETATM   23  C   UNL     1     -11.927  15.609  69.642  1.00  0.00    -0.349 A  
HETATM   24  C   UNL     1     -12.159  14.503  68.836  1.00  0.00    -0.272 A  
HETATM   25  F   UNL     1     -12.831  15.955  70.569  1.00  0.00    -0.455 F  
HETATM   26  C   UNL     1     -11.223  14.148  67.865  1.00  0.00    -0.299 A  
ENDBRANCH  19  20
ENDBRANCH  17  19
ENDBRANCH  13  17
ENDBRANCH   6   8
ENDBRANCH   3   4
ENDBRANCH   2   3
TORSDOF 6
ENDMDL
MODEL      184
REMARK 921   NORMALIZED FREE ENERGY PREDICTED BY IDOCK:   -3.55 KCAL/MOL
REMARK 922        TOTAL FREE ENERGY PREDICTED BY IDOCK:   -5.50 KCAL/MOL
REMARK 923 INTER-LIGAND FREE ENERGY PREDICTED BY IDOCK:   -4.84 KCAL/MOL
REMARK 924 INTRA-LIGAND FREE ENERGY PREDICTED BY IDOCK:   -0.66 KCAL/MOL
REMARK 927      BINDING AFFINITY PREDICTED BY RF-SCORE:    0.00 PKD
ROOT
HETATM    1  C   UNL     1      -7.273  20.304  66.866  1.00  0.00    -0.316 C  
HETATM    2  C   UNL     1      -7.948  19.053  67.404  1.00  0.00    -0.250 C  
ENDROOT
BRANCH   2   3
HETATM    3  O   UNL     1      -9.256  19.424  67.861  1.00  0.00    -0.304 OA 
BRANCH   3   4
HETATM    4  C   UNL     1     -10.127  18.400  68.045  1.00  0.00    -0.368 C  
HETATM    5  O   UNL     1     -11.343  18.490  67.946  1.00  0.00     0.140 OA 
HETATM    6  N   UNL     1      -9.390  17.260  68.204  1.00  0.00    -0.266 N  
HETATM    7  H   UNL     1      -8.445  17.333  68.584  1.00  0.00     0.000 HD 
BRANCH   6   8
HETATM    8  C   UNL     1      -9.890  15.987  67.859  1.00  0.00    -0.226 A  
HETATM    9  C   UNL     1     -10.339  15.648  66.570  1.00  0.00    -0.291 A  
HETATM   10  C   UNL     1     -10.839  14.351  66.362  1.00  0.00    -0.314 A  
HETATM   11  N   UNL     1     -10.567  16.630  65.582  1.00  0.00    -0.438 NA 
HETATM   12  H2  UNL     1      -9.712  17.178  65.482  1.00  0.00     0.000 HD 
HETATM   13  C   UNL     1     -10.847  13.385  67.379  1.00  0.00    -0.268 A  
HETATM   14  H1  UNL     1     -10.893  16.385  64.647  1.00  0.00     0.000 HD 
HETATM   15  C   UNL     1      -9.890  15.030  68.878  1.00  0.00    -0.233 A  
HETATM   16  C   UNL     1     -10.326  13.731  68.626  1.00  0.00    -0.225 A  
BRANCH  13  17
HETATM   17  N   UNL     1     -11.323  12.100  67.069  1.00  0.00    -0.316 NA 
HETATM   18  H   UNL     1     -12.191  11.744  67.468  1.00  0.00     0.000 HD 
BRANCH  17  19
HETATM   19  C   UNL     1     -10.520  11.297  66.152  1.00  0.00    -0.254 C  
BRANCH  19  20
HETATM   20  C   UNL     1      -9.445  10.519  66.875  1.00  0.00    -0.191 A  
HETATM   21  C   UNL     1      -9.818   9.453  67.714  1.00  0.00    -0.207 A  
HETATM   22  C   UNL     1      -8.850   8.671  68.343  1.00  0.00    -0.142 A  
HETATM   23  C   UNL     1      -7.504   8.945  68.131  1.00  0.00    -0.092 A  
HETATM   24  C   UNL     1      -7.110   9.978  67.291  1.00  0.00    -0.085 A  
HETATM   25  F   UNL     1      -6.576   8.191  68.735  1.00  0.00    -0.048 F  
HETATM   26  C   UNL     1      -8.076  10.758  66.655  1.00  0.00    -0.142 A  
ENDBRANCH  19  20
ENDBRANCH  17  19
ENDBRANCH  13  17
ENDBRANCH   6   8
ENDBRANCH   3   4
ENDBRANCH   2   3
TORSDOF 6
ENDMDL
MODEL      185
REMARK 921   NORMALIZED FREE ENERGY PREDICTED BY IDOCK:   -3.52 KCAL/MOL
REMARK 922        TOTAL FREE ENERGY PREDICTED BY IDOCK:   -5.46 KCAL/MOL
REMARK 923 INTER-LIGAND FREE ENERGY PREDICTED BY IDOCK:   -4.61 KCAL/MOL
REMARK 924 INTRA-LIGAND FREE ENERGY PREDICTED BY IDOCK:   -0.85 KCAL/MOL
REMARK 927      BINDING AFFINITY PREDICTED BY RF-SCORE:    0.00 PKD
ROOT
HETATM    1  C   UNL     1      -6.580  14.121  67.901  1.00  0.00    -0.174 C  
HETATM    2  C   UNL     1      -5.479  13.111  67.623  1.00  0.00    -0.073 C  
ENDROOT
BRANCH   2   3
HETATM    3  O   UNL     1      -6.005  12.128  66.721  1.00  0.00    -0.241 OA 
BRANCH   3   4
HETATM    4  C   UNL     1      -6.446  10.980  67.294  1.00  0.00    -0.073 C  
HETATM    5  O   UNL     1      -6.426  10.746  68.495  1.00  0.00    -0.053 OA 
HETATM    6  N   UNL     1      -7.035  10.234  66.313  1.00  0.00    -0.108 N  
HETATM    7  H   UNL     1      -6.723  10.352  65.349  1.00  0.00     0.000 HD 
BRANCH   6   8
HETATM    8  C   UNL     1      -8.062   9.306  66.589  1.00  0.00    -0.108 A  
HETATM    9  C   UNL     1      -9.430   9.583  66.422  1.00  0.00    -0.195 A  
HETATM   10  C   UNL     1     -10.356   8.581  66.756  1.00  0.00    -0.346 A  
HETATM   11  N   UNL     1      -9.900  10.899  66.213  1.00  0.00    -0.209 NA 
HETATM   12  H2  UNL     1      -9.402  11.284  65.410  1.00  0.00     0.000 HD 
HETATM   13  C   UNL     1      -9.951   7.309  67.190  1.00  0.00    -0.215 A  
HETATM   14  H1  UNL     1     -10.893  11.100  66.092  1.00  0.00     0.000 HD 
HETATM   15  C   UNL     1      -7.647   8.041  67.017  1.00  0.00    -0.096 A  
HETATM   16  C   UNL     1      -8.584   7.042  67.275  1.00  0.00    -0.121 A  
BRANCH  13  17
HETATM   17  N   UNL     1     -10.944   6.353  67.459  1.00  0.00    -0.375 NA 
HETATM   18  H   UNL     1     -11.829   6.348  66.953  1.00  0.00     0.000 HD 
BRANCH  17  19
HETATM   19  C   UNL     1     -10.652   5.366  68.494  1.00  0.00    -0.082 C  
BRANCH  19  20
HETATM   20  C   UNL     1     -10.808   5.942  69.884  1.00  0.00    -0.439 A  
HETATM   21  C   UNL     1      -9.713   5.908  70.765  1.00  0.00    -0.212 A  
HETATM   22  C   UNL     1      -9.800   6.490  72.030  1.00  0.00    -0.169 A  
HETATM   23  C   UNL     1     -10.979   7.117  72.416  1.00  0.00    -0.251 A  
HETATM   24  C   UNL     1     -12.066   7.183  71.556  1.00  0.00    -0.377 A  
HETATM   25  F   UNL     1     -11.058   7.677  73.630  1.00  0.00    -0.394 F  
HETATM   26  C   UNL     1     -11.981   6.607  70.288  1.00  0.00    -0.302 A  
ENDBRANCH  19  20
ENDBRANCH  17  19
ENDBRANCH  13  17
ENDBRANCH   6   8
ENDBRANCH   3   4
ENDBRANCH   2   3
TORSDOF 6
ENDMDL
MODEL      186
REMARK 921   NORMALIZED FREE ENERGY PREDICTED BY IDOCK:   -3.52 KCAL/MOL
REMARK 922        TOTAL FREE ENERGY PREDICTED BY IDOCK:   -5.46 KCAL/MOL
REMARK 923 INTER-LIGAND FREE ENERGY PREDICTED BY IDOCK:   -4.94 KCAL/MOL
REMARK 924 INTRA-LIGAND FREE ENERGY PREDICTED BY IDOCK:   -0.51 KCAL/MOL
REMARK 927      BINDING AFFINITY PREDICTED BY RF-SCORE:    0.00 PKD
ROOT
HETATM    1  C   UNL     1      -9.061   7.758  66.891  1.00  0.00    -0.171 C  
HETATM    2  C   UNL     1      -9.895   8.860  66.258  1.00  0.00    -0.285 C  
ENDROOT
BRANCH   2   3
HETATM    3  O   UNL     1     -10.995   9.135  67.136  1.00  0.00    -0.127 OA 
BRANCH   3   4
HETATM    4  C   UNL     1     -11.284  10.448  67.322  1.00  0.00    -0.075 C  
HETATM    5  O   UNL     1     -11.706  10.929  68.365  1.00  0.00    -0.436 OA 
HETATM    6  N   UNL     1     -10.877  11.119  66.204  1.00  0.00    -0.227 N  
HETATM    7  H   UNL     1     -10.850  10.622  65.313  1.00  0.00     0.000 HD 
BRANCH   6   8
HETATM    8  C   UNL     1     -10.492  12.476  66.240  1.00  0.00    -0.246 A  
HETATM    9  C   UNL     1     -11.050  13.467  65.414  1.00  0.00    -0.287 A  
HETATM   10  C   UNL     1     -10.561  14.779  65.529  1.00  0.00    -0.374 A  
HETATM   11  N   UNL     1     -11.856  13.138  64.302  1.00  0.00    -0.383 NA 
HETATM   12  H2  UNL     1     -12.615  12.541  64.632  1.00  0.00     0.000 HD 
HETATM   13  C   UNL     1      -9.585  15.129  66.475  1.00  0.00    -0.271 A  
HETATM   14  H1  UNL     1     -12.262  13.858  63.703  1.00  0.00     0.000 HD 
HETATM   15  C   UNL     1      -9.522  12.814  67.188  1.00  0.00    -0.223 A  
HETATM   16  C   UNL     1      -9.105  14.136  67.329  1.00  0.00    -0.218 A  
BRANCH  13  17
HETATM   17  N   UNL     1      -9.187  16.474  66.551  1.00  0.00    -0.252 NA 
HETATM   18  H   UNL     1      -9.861  17.219  66.725  1.00  0.00     0.000 HD 
BRANCH  17  19
HETATM   19  C   UNL     1      -7.767  16.758  66.370  1.00  0.00    -0.310 C  
BRANCH  19  20
HETATM   20  C   UNL     1      -7.070  17.013  67.688  1.00  0.00    -0.163 A  
HETATM   21  C   UNL     1      -7.365  18.188  68.401  1.00  0.00    -0.276 A  
HETATM   22  C   UNL     1      -6.792  18.424  69.652  1.00  0.00     0.021 A  
HETATM   23  C   UNL     1      -5.928  17.482  70.197  1.00  0.00    -0.118 A  
HETATM   24  C   UNL     1      -5.638  16.305  69.522  1.00  0.00    -0.143 A  
HETATM   25  F   UNL     1      -5.381  17.710  71.398  1.00  0.00    -0.262 F  
HETATM   26  C   UNL     1      -6.214  16.063  68.274  1.00  0.00    -0.116 A  
ENDBRANCH  19  20
ENDBRANCH  17  19
ENDBRANCH  13  17
ENDBRANCH   6   8
ENDBRANCH   3   4
ENDBRANCH   2   3
TORSDOF 6
ENDMDL
MODEL      187
REMARK 921   NORMALIZED FREE ENERGY PREDICTED BY IDOCK:   -3.48 KCAL/MOL
REMARK 922        TOTAL FREE ENERGY PREDICTED BY IDOCK:   -5.40 KCAL/MOL
REMARK 923 INTER-LIGAND FREE ENERGY PREDICTED BY IDOCK:   -4.73 KCAL/MOL
REMARK 924 INTRA-LIGAND FREE ENERGY PREDICTED BY IDOCK:   -0.67 KCAL/MOL
REMARK 927      BINDING AFFINITY PREDICTED BY RF-SCORE:    0.00 PKD
ROOT
HETATM    1  C   UNL     1      -6.592  14.196  69.234  1.00  0.00    -0.120 C  
HETATM    2  C   UNL     1      -5.378  13.289  69.111  1.00  0.00    -0.073 C  
ENDROOT
BRANCH   2   3
HETATM    3  O   UNL     1      -5.849  11.964  68.834  1.00  0.00    -0.050 OA 
BRANCH   3   4
HETATM    4  C   UNL     1      -6.240  11.241  69.914  1.00  0.00    -0.137 C  
HETATM    5  O   UNL     1      -6.008  11.541  71.077  1.00  0.00    -0.379 OA 
HETATM    6  N   UNL     1      -7.048  10.236  69.462  1.00  0.00    -0.091 N  
HETATM    7  H   UNL     1      -6.916   9.888  68.512  1.00  0.00     0.000 HD 
BRANCH   6   8
HETATM    8  C   UNL     1      -8.056   9.662  70.266  1.00  0.00    -0.183 A  
HETATM    9  C   UNL     1      -7.796   8.901  71.418  1.00  0.00    -0.097 A  
HETATM   10  C   UNL     1      -8.890   8.362  72.117  1.00  0.00    -0.285 A  
HETATM   11  N   UNL     1      -6.499   8.430  71.719  1.00  0.00    -0.058 NA 
HETATM   12  H2  UNL     1      -5.870   9.233  71.726  1.00  0.00     0.000 HD 
HETATM   13  C   UNL     1     -10.215   8.611  71.732  1.00  0.00    -0.308 A  
HETATM   14  H1  UNL     1      -6.311   7.877  72.556  1.00  0.00     0.000 HD 
HETATM   15  C   UNL     1      -9.373   9.920  69.874  1.00  0.00    -0.250 A  
HETATM   16  C   UNL     1     -10.440   9.432  70.626  1.00  0.00    -0.354 A  
BRANCH  13  17
HETATM   17  N   UNL     1     -11.247   8.071  72.516  1.00  0.00    -0.362 NA 
HETATM   18  H   UNL     1     -11.438   8.416  73.457  1.00  0.00     0.000 HD 
BRANCH  17  19
HETATM   19  C   UNL     1     -12.035   6.993  71.926  1.00  0.00    -0.320 C  
BRANCH  19  20
HETATM   20  C   UNL     1     -11.359   5.649  72.080  1.00  0.00    -0.277 A  
HETATM   21  C   UNL     1     -10.580   5.150  71.021  1.00  0.00    -0.201 A  
HETATM   22  C   UNL     1      -9.887   3.946  71.154  1.00  0.00    -0.223 A  
HETATM   23  C   UNL     1      -9.964   3.241  72.349  1.00  0.00    -0.162 A  
HETATM   24  C   UNL     1     -10.709   3.723  73.416  1.00  0.00    -0.297 A  
HETATM   25  F   UNL     1      -9.297   2.086  72.475  1.00  0.00    -0.094 F  
HETATM   26  C   UNL     1     -11.398   4.930  73.289  1.00  0.00    -0.408 A  
ENDBRANCH  19  20
ENDBRANCH  17  19
ENDBRANCH  13  17
ENDBRANCH   6   8
ENDBRANCH   3   4
ENDBRANCH   2   3
TORSDOF 6
ENDMDL
MODEL      188
REMARK 921   NORMALIZED FREE ENERGY PREDICTED BY IDOCK:   -3.45 KCAL/MOL
REMARK 922        TOTAL FREE ENERGY PREDICTED BY IDOCK:   -5.37 KCAL/MOL
REMARK 923 INTER-LIGAND FREE ENERGY PREDICTED BY IDOCK:   -4.63 KCAL/MOL
REMARK 924 INTRA-LIGAND FREE ENERGY PREDICTED BY IDOCK:   -0.74 KCAL/MOL
REMARK 927      BINDING AFFINITY PREDICTED BY RF-SCORE:    0.00 PKD
ROOT
HETATM    1  C   UNL     1     -11.092   6.632  70.775  1.00  0.00    -0.336 C  
HETATM    2  C   UNL     1      -9.896   6.887  69.873  1.00  0.00    -0.165 C  
ENDROOT
BRANCH   2   3
HETATM    3  O   UNL     1      -8.756   7.114  70.713  1.00  0.00    -0.144 OA 
BRANCH   3   4
HETATM    4  C   UNL     1      -7.839   7.993  70.234  1.00  0.00    -0.088 C  
HETATM    5  O   UNL     1      -6.840   7.684  69.599  1.00  0.00    -0.043 OA 
HETATM    6  N   UNL     1      -8.321   9.251  70.463  1.00  0.00    -0.191 N  
HETATM    7  H   UNL     1      -8.957   9.400  71.247  1.00  0.00     0.000 HD 
BRANCH   6   8
HETATM    8  C   UNL     1      -7.970  10.350  69.650  1.00  0.00    -0.118 A  
HETATM    9  C   UNL     1      -6.799  11.108  69.827  1.00  0.00    -0.089 A  
HETATM   10  C   UNL     1      -6.577  12.195  68.966  1.00  0.00    -0.100 A  
HETATM   11  N   UNL     1      -6.010  10.992  70.992  1.00  0.00    -0.363 NA 
HETATM   12  H2  UNL     1      -5.766  10.008  71.108  1.00  0.00     0.000 HD 
HETATM   13  C   UNL     1      -7.453  12.502  67.914  1.00  0.00    -0.120 A  
HETATM   14  H1  UNL     1      -5.159  11.542  71.121  1.00  0.00     0.000 HD 
HETATM   15  C   UNL     1      -8.848  10.644  68.603  1.00  0.00    -0.151 A  
HETATM   16  C   UNL     1      -8.567  11.686  67.720  1.00  0.00    -0.144 A  
BRANCH  13  17
HETATM   17  N   UNL     1      -7.128  13.580  67.073  1.00  0.00    -0.370 NA 
HETATM   18  H   UNL     1      -7.094  13.473  66.059  1.00  0.00     0.000 HD 
BRANCH  17  19
HETATM   19  C   UNL     1      -6.843  14.860  67.714  1.00  0.00    -0.174 C  
BRANCH  19  20
HETATM   20  C   UNL     1      -7.891  15.900  67.391  1.00  0.00    -0.195 A  
HETATM   21  C   UNL     1      -7.875  17.125  68.082  1.00  0.00    -0.206 A  
HETATM   22  C   UNL     1      -8.785  18.133  67.762  1.00  0.00    -0.259 A  
HETATM   23  C   UNL     1      -9.709  17.924  66.746  1.00  0.00    -0.314 A  
HETATM   24  C   UNL     1      -9.732  16.732  66.035  1.00  0.00    -0.287 A  
HETATM   25  F   UNL     1     -10.581  18.895  66.440  1.00  0.00    -0.405 F  
HETATM   26  C   UNL     1      -8.819  15.724  66.348  1.00  0.00    -0.371 A  
ENDBRANCH  19  20
ENDBRANCH  17  19
ENDBRANCH  13  17
ENDBRANCH   6   8
ENDBRANCH   3   4
ENDBRANCH   2   3
TORSDOF 6
ENDMDL
MODEL      189
REMARK 921   NORMALIZED FREE ENERGY PREDICTED BY IDOCK:   -3.38 KCAL/MOL
REMARK 922        TOTAL FREE ENERGY PREDICTED BY IDOCK:   -5.27 KCAL/MOL
REMARK 923 INTER-LIGAND FREE ENERGY PREDICTED BY IDOCK:   -4.92 KCAL/MOL
REMARK 924 INTRA-LIGAND FREE ENERGY PREDICTED BY IDOCK:   -0.35 KCAL/MOL
REMARK 927      BINDING AFFINITY PREDICTED BY RF-SCORE:    0.00 PKD
ROOT
HETATM    1  C   UNL     1      -8.658  13.050  67.761  1.00  0.00    -0.189 C  
HETATM    2  C   UNL     1      -9.490  13.366  68.993  1.00  0.00     0.348 C  
ENDROOT
BRANCH   2   3
HETATM    3  O   UNL     1     -10.870  13.209  68.640  1.00  0.00    -0.248 OA 
BRANCH   3   4
HETATM    4  C   UNL     1     -11.386  11.967  68.819  1.00  0.00    -0.274 C  
HETATM    5  O   UNL     1     -11.514  11.129  67.936  1.00  0.00    -0.368 OA 
HETATM    6  N   UNL     1     -11.578  11.793  70.161  1.00  0.00    -0.508 N  
HETATM    7  H   UNL     1     -11.749  12.613  70.744  1.00  0.00     0.000 HD 
BRANCH   6   8
HETATM    8  C   UNL     1     -11.549  10.519  70.766  1.00  0.00    -0.338 A  
HETATM    9  C   UNL     1     -12.449  10.110  71.766  1.00  0.00    -0.360 A  
HETATM   10  C   UNL     1     -12.297   8.822  72.308  1.00  0.00    -0.448 A  
HETATM   11  N   UNL     1     -13.290  11.031  72.429  1.00  0.00    -0.465 NA 
HETATM   12  H2  UNL     1     -13.819  11.537  71.719  1.00  0.00     0.000 HD 
HETATM   13  C   UNL     1     -11.322   7.929  71.841  1.00  0.00    -0.276 A  
HETATM   14  H1  UNL     1     -13.943  10.734  73.155  1.00  0.00     0.000 HD 
HETATM   15  C   UNL     1     -10.576   9.636  70.290  1.00  0.00    -0.333 A  
HETATM   16  C   UNL     1     -10.493   8.340  70.796  1.00  0.00    -0.223 A  
BRANCH  13  17
HETATM   17  N   UNL     1     -11.272   6.645  72.408  1.00  0.00    -0.257 NA 
HETATM   18  H   UNL     1     -11.312   6.507  73.418  1.00  0.00     0.000 HD 
BRANCH  17  19
HETATM   19  C   UNL     1     -11.159   5.516  71.490  1.00  0.00    -0.094 C  
BRANCH  19  20
HETATM   20  C   UNL     1      -9.945   4.665  71.786  1.00  0.00    -0.260 A  
HETATM   21  C   UNL     1      -9.328   4.770  73.046  1.00  0.00    -0.140 A  
HETATM   22  C   UNL     1      -8.248   3.952  73.378  1.00  0.00    -0.088 A  
HETATM   23  C   UNL     1      -7.785   3.021  72.456  1.00  0.00    -0.058 A  
HETATM   24  C   UNL     1      -8.391   2.884  71.215  1.00  0.00    -0.085 A  
HETATM   25  F   UNL     1      -6.749   2.235  72.779  1.00  0.00    -0.019 F  
HETATM   26  C   UNL     1      -9.475   3.696  70.881  1.00  0.00    -0.235 A  
ENDBRANCH  19  20
ENDBRANCH  17  19
ENDBRANCH  13  17
ENDBRANCH   6   8
ENDBRANCH   3   4
ENDBRANCH   2   3
TORSDOF 6
ENDMDL
MODEL      190
REMARK 921   NORMALIZED FREE ENERGY PREDICTED BY IDOCK:   -3.37 KCAL/MOL
REMARK 922        TOTAL FREE ENERGY PREDICTED BY IDOCK:   -5.25 KCAL/MOL
REMARK 923 INTER-LIGAND FREE ENERGY PREDICTED BY IDOCK:   -4.48 KCAL/MOL
REMARK 924 INTRA-LIGAND FREE ENERGY PREDICTED BY IDOCK:   -0.77 KCAL/MOL
REMARK 927      BINDING AFFINITY PREDICTED BY RF-SCORE:    0.00 PKD
ROOT
HETATM    1  C   UNL     1      -5.354   2.472  73.370  1.00  0.00     0.000 C  
HETATM    2  C   UNL     1      -6.102   2.380  72.051  1.00  0.00    -0.013 C  
ENDROOT
BRANCH   2   3
HETATM    3  O   UNL     1      -7.483   2.136  72.348  1.00  0.00    -0.041 OA 
BRANCH   3   4
HETATM    4  C   UNL     1      -8.326   3.176  72.124  1.00  0.00    -0.074 C  
HETATM    5  O   UNL     1      -9.010   3.718  72.982  1.00  0.00    -0.096 OA 
HETATM    6  N   UNL     1      -8.143   3.579  70.832  1.00  0.00    -0.064 N  
HETATM    7  H   UNL     1      -7.822   2.897  70.144  1.00  0.00     0.000 HD 
BRANCH   6   8
HETATM    8  C   UNL     1      -8.385   4.906  70.416  1.00  0.00    -0.092 A  
HETATM    9  C   UNL     1      -7.457   5.951  70.567  1.00  0.00    -0.090 A  
HETATM   10  C   UNL     1      -7.830   7.235  70.134  1.00  0.00    -0.100 A  
HETATM   11  N   UNL     1      -6.312   5.815  71.380  1.00  0.00    -0.042 NA 
HETATM   12  H2  UNL     1      -5.803   4.988  71.068  1.00  0.00     0.000 HD 
HETATM   13  C   UNL     1      -9.063   7.483  69.513  1.00  0.00    -0.143 A  
HETATM   14  H1  UNL     1      -5.638   6.574  71.490  1.00  0.00     0.000 HD 
HETATM   15  C   UNL     1      -9.615   5.140  69.795  1.00  0.00    -0.242 A  
HETATM   16  C   UNL     1      -9.931   6.409  69.312  1.00  0.00    -0.178 A  
BRANCH  13  17
HETATM   17  N   UNL     1      -9.333   8.788  69.070  1.00  0.00    -0.145 NA 
HETATM   18  H   UNL     1      -9.447   9.002  68.079  1.00  0.00     0.000 HD 
BRANCH  17  19
HETATM   19  C   UNL     1      -9.445   9.825  70.091  1.00  0.00    -0.229 C  
BRANCH  19  20
HETATM   20  C   UNL     1     -10.709   9.680  70.909  1.00  0.00    -0.402 A  
HETATM   21  C   UNL     1     -11.846  10.426  70.549  1.00  0.00    -0.430 A  
HETATM   22  C   UNL     1     -13.048  10.266  71.238  1.00  0.00    -0.492 A  
HETATM   23  C   UNL     1     -13.121   9.354  72.285  1.00  0.00    -0.428 A  
HETATM   24  C   UNL     1     -12.019   8.591  72.645  1.00  0.00    -0.309 A  
HETATM   25  F   UNL     1     -14.278   9.202  72.944  1.00  0.00    -0.444 F  
HETATM   26  C   UNL     1     -10.817   8.743  71.953  1.00  0.00    -0.431 A  
ENDBRANCH  19  20
ENDBRANCH  17  19
ENDBRANCH  13  17
ENDBRANCH   6   8
ENDBRANCH   3   4
ENDBRANCH   2   3
TORSDOF 6
ENDMDL
MODEL      191
REMARK 921   NORMALIZED FREE ENERGY PREDICTED BY IDOCK:   -3.36 KCAL/MOL
REMARK 922        TOTAL FREE ENERGY PREDICTED BY IDOCK:   -5.24 KCAL/MOL
REMARK 923 INTER-LIGAND FREE ENERGY PREDICTED BY IDOCK:   -4.45 KCAL/MOL
REMARK 924 INTRA-LIGAND FREE ENERGY PREDICTED BY IDOCK:   -0.79 KCAL/MOL
REMARK 927      BINDING AFFINITY PREDICTED BY RF-SCORE:    0.00 PKD
ROOT
HETATM    1  C   UNL     1      -6.556  15.244  69.177  1.00  0.00    -0.130 C  
HETATM    2  C   UNL     1      -5.488  14.179  69.362  1.00  0.00    -0.083 C  
ENDROOT
BRANCH   2   3
HETATM    3  O   UNL     1      -5.996  12.951  68.825  1.00  0.00    -0.066 OA 
BRANCH   3   4
HETATM    4  C   UNL     1      -6.323  12.000  69.737  1.00  0.00    -0.110 C  
HETATM    5  O   UNL     1      -6.118  12.087  70.940  1.00  0.00    -0.295 OA 
HETATM    6  N   UNL     1      -7.038  11.036  69.085  1.00  0.00    -0.106 N  
HETATM    7  H   UNL     1      -6.877  10.893  68.087  1.00  0.00     0.000 HD 
BRANCH   6   8
HETATM    8  C   UNL     1      -7.992  10.232  69.744  1.00  0.00    -0.126 A  
HETATM    9  C   UNL     1      -7.660   9.236  70.679  1.00  0.00    -0.147 A  
HETATM   10  C   UNL     1      -8.704   8.485  71.246  1.00  0.00    -0.228 A  
HETATM   11  N   UNL     1      -6.333   8.783  70.840  1.00  0.00    -0.043 NA 
HETATM   12  H2  UNL     1      -5.746   9.596  71.027  1.00  0.00     0.000 HD 
HETATM   13  C   UNL     1     -10.051   8.742  70.951  1.00  0.00    -0.219 A  
HETATM   14  H1  UNL     1      -6.092   8.060  71.519  1.00  0.00     0.000 HD 
HETATM   15  C   UNL     1      -9.331  10.499  69.445  1.00  0.00    -0.139 A  
HETATM   16  C   UNL     1     -10.350   9.787  70.075  1.00  0.00    -0.307 A  
BRANCH  13  17
HETATM   17  N   UNL     1     -11.031   7.973  71.600  1.00  0.00    -0.232 NA 
HETATM   18  H   UNL     1     -11.177   8.036  72.607  1.00  0.00     0.000 HD 
BRANCH  17  19
HETATM   19  C   UNL     1     -11.831   7.079  70.769  1.00  0.00    -0.355 C  
BRANCH  19  20
HETATM   20  C   UNL     1     -10.969   6.208  69.883  1.00  0.00    -0.458 A  
HETATM   21  C   UNL     1     -10.378   5.052  70.426  1.00  0.00    -0.297 A  
HETATM   22  C   UNL     1      -9.632   4.190  69.622  1.00  0.00    -0.277 A  
HETATM   23  C   UNL     1      -9.481   4.475  68.270  1.00  0.00    -0.149 A  
HETATM   24  C   UNL     1     -10.071   5.597  67.706  1.00  0.00    -0.209 A  
HETATM   25  F   UNL     1      -8.765   3.644  67.500  1.00  0.00    -0.094 F  
HETATM   26  C   UNL     1     -10.823   6.458  68.506  1.00  0.00    -0.382 A  
ENDBRANCH  19  20
ENDBRANCH  17  19
ENDBRANCH  13  17
ENDBRANCH   6   8
ENDBRANCH   3   4
ENDBRANCH   2   3
TORSDOF 6
ENDMDL
MODEL      192
REMARK 921   NORMALIZED FREE ENERGY PREDICTED BY IDOCK:   -3.31 KCAL/MOL
REMARK 922        TOTAL FREE ENERGY PREDICTED BY IDOCK:   -5.17 KCAL/MOL
REMARK 923 INTER-LIGAND FREE ENERGY PREDICTED BY IDOCK:   -4.57 KCAL/MOL
REMARK 924 INTRA-LIGAND FREE ENERGY PREDICTED BY IDOCK:   -0.60 KCAL/MOL
REMARK 927      BINDING AFFINITY PREDICTED BY RF-SCORE:    0.00 PKD
ROOT
HETATM    1  C   UNL     1      -9.799  16.239  69.380  1.00  0.00    -0.217 C  
HETATM    2  C   UNL     1     -10.285  15.995  67.961  1.00  0.00    -0.245 C  
ENDROOT
BRANCH   2   3
HETATM    3  O   UNL     1     -11.050  14.783  67.963  1.00  0.00    -0.265 OA 
BRANCH   3   4
HETATM    4  C   UNL     1     -10.373  13.659  67.617  1.00  0.00    -0.239 C  
HETATM    5  O   UNL     1      -9.162  13.513  67.721  1.00  0.00    -0.195 OA 
HETATM    6  N   UNL     1     -11.298  12.709  67.289  1.00  0.00    -0.299 N  
HETATM    7  H   UNL     1     -12.205  13.008  66.930  1.00  0.00     0.000 HD 
BRANCH   6   8
HETATM    8  C   UNL     1     -11.040  11.328  67.429  1.00  0.00    -0.297 A  
HETATM    9  C   UNL     1     -10.548  10.517  66.392  1.00  0.00    -0.149 A  
HETATM   10  C   UNL     1     -10.359   9.150  66.653  1.00  0.00    -0.289 A  
HETATM   11  N   UNL     1     -10.517  10.963  65.053  1.00  0.00    -0.286 NA 
HETATM   12  H2  UNL     1     -10.006  11.846  65.029  1.00  0.00     0.000 HD 
HETATM   13  C   UNL     1     -10.590   8.595  67.921  1.00  0.00    -0.161 A  
HETATM   14  H1  UNL     1     -10.160  10.374  64.300  1.00  0.00     0.000 HD 
HETATM   15  C   UNL     1     -11.271  10.788  68.698  1.00  0.00    -0.333 A  
HETATM   16  C   UNL     1     -11.007   9.442  68.948  1.00  0.00    -0.081 A  
BRANCH  13  17
HETATM   17  N   UNL     1     -10.330   7.227  68.105  1.00  0.00    -0.187 NA 
HETATM   18  H   UNL     1      -9.691   6.899  68.829  1.00  0.00     0.000 HD 
BRANCH  17  19
HETATM   19  C   UNL     1     -11.014   6.296  67.213  1.00  0.00    -0.366 C  
BRANCH  19  20
HETATM   20  C   UNL     1     -10.047   5.351  66.534  1.00  0.00    -0.250 A  
HETATM   21  C   UNL     1     -10.462   4.662  65.380  1.00  0.00    -0.174 A  
HETATM   22  C   UNL     1      -9.575   3.836  64.689  1.00  0.00    -0.173 A  
HETATM   23  C   UNL     1      -8.269   3.701  65.144  1.00  0.00    -0.097 A  
HETATM   24  C   UNL     1      -7.830   4.387  66.268  1.00  0.00    -0.095 A  
HETATM   25  F   UNL     1      -7.420   2.907  64.478  1.00  0.00    -0.067 F  
HETATM   26  C   UNL     1      -8.712   5.219  66.958  1.00  0.00    -0.107 A  
ENDBRANCH  19  20
ENDBRANCH  17  19
ENDBRANCH  13  17
ENDBRANCH   6   8
ENDBRANCH   3   4
ENDBRANCH   2   3
TORSDOF 6
ENDMDL
MODEL      193
REMARK 921   NORMALIZED FREE ENERGY PREDICTED BY IDOCK:   -3.25 KCAL/MOL
REMARK 922        TOTAL FREE ENERGY PREDICTED BY IDOCK:   -5.10 KCAL/MOL
REMARK 923 INTER-LIGAND FREE ENERGY PREDICTED BY IDOCK:   -4.57 KCAL/MOL
REMARK 924 INTRA-LIGAND FREE ENERGY PREDICTED BY IDOCK:   -0.53 KCAL/MOL
REMARK 927      BINDING AFFINITY PREDICTED BY RF-SCORE:    0.00 PKD
ROOT
HETATM    1  C   UNL     1     -11.079  15.160  66.252  1.00  0.00    -0.309 C  
HETATM    2  C   UNL     1      -9.911  14.385  65.665  1.00  0.00    -0.337 C  
ENDROOT
BRANCH   2   3
HETATM    3  O   UNL     1      -9.349  13.582  66.711  1.00  0.00    -0.247 OA 
BRANCH   3   4
HETATM    4  C   UNL     1     -10.053  12.470  67.041  1.00  0.00    -0.216 C  
HETATM    5  O   UNL     1     -10.625  11.742  66.242  1.00  0.00    -0.236 OA 
HETATM    6  N   UNL     1      -9.868  12.252  68.377  1.00  0.00    -0.250 N  
HETATM    7  H   UNL     1      -9.667  13.047  68.983  1.00  0.00     0.000 HD 
BRANCH   6   8
HETATM    8  C   UNL     1      -9.947  10.963  68.947  1.00  0.00    -0.196 A  
HETATM    9  C   UNL     1     -11.147  10.243  69.086  1.00  0.00    -0.235 A  
HETATM   10  C   UNL     1     -11.094   8.978  69.694  1.00  0.00    -0.080 A  
HETATM   11  N   UNL     1     -12.405  10.858  68.904  1.00  0.00    -0.759 NA 
HETATM   12  H2  UNL     1     -12.408  11.297  67.983  1.00  0.00     0.000 HD 
HETATM   13  C   UNL     1      -9.884   8.400  70.107  1.00  0.00    -0.181 A  
HETATM   14  H1  UNL     1     -13.276  10.335  69.005  1.00  0.00     0.000 HD 
HETATM   15  C   UNL     1      -8.735  10.396  69.351  1.00  0.00    -0.138 A  
HETATM   16  C   UNL     1      -8.703   9.110  69.887  1.00  0.00    -0.170 A  
BRANCH  13  17
HETATM   17  N   UNL     1      -9.920   7.112  70.664  1.00  0.00    -0.190 NA 
HETATM   18  H   UNL     1     -10.803   6.640  70.857  1.00  0.00     0.000 HD 
BRANCH  17  19
HETATM   19  C   UNL     1      -8.638   6.477  70.955  1.00  0.00    -0.135 C  
BRANCH  19  20
HETATM   20  C   UNL     1      -8.794   5.275  71.859  1.00  0.00    -0.142 A  
HETATM   21  C   UNL     1      -7.642   4.643  72.361  1.00  0.00    -0.085 A  
HETATM   22  C   UNL     1      -7.750   3.574  73.251  1.00  0.00    -0.066 A  
HETATM   23  C   UNL     1      -9.008   3.138  73.649  1.00  0.00    -0.079 A  
HETATM   24  C   UNL     1     -10.158   3.759  73.184  1.00  0.00    -0.208 A  
HETATM   25  F   UNL     1      -9.107   2.113  74.505  1.00  0.00    -0.070 F  
HETATM   26  C   UNL     1     -10.055   4.833  72.299  1.00  0.00    -0.245 A  
ENDBRANCH  19  20
ENDBRANCH  17  19
ENDBRANCH  13  17
ENDBRANCH   6   8
ENDBRANCH   3   4
ENDBRANCH   2   3
TORSDOF 6
ENDMDL
MODEL      194
REMARK 921   NORMALIZED FREE ENERGY PREDICTED BY IDOCK:   -3.22 KCAL/MOL
REMARK 922        TOTAL FREE ENERGY PREDICTED BY IDOCK:   -5.05 KCAL/MOL
REMARK 923 INTER-LIGAND FREE ENERGY PREDICTED BY IDOCK:   -4.20 KCAL/MOL
REMARK 924 INTRA-LIGAND FREE ENERGY PREDICTED BY IDOCK:   -0.85 KCAL/MOL
REMARK 927      BINDING AFFINITY PREDICTED BY RF-SCORE:    0.00 PKD
ROOT
HETATM    1  C   UNL     1      -6.167  14.629  70.450  1.00  0.00    -0.168 C  
HETATM    2  C   UNL     1      -5.301  13.460  70.888  1.00  0.00    -0.163 C  
ENDROOT
BRANCH   2   3
HETATM    3  O   UNL     1      -5.359  12.464  69.859  1.00  0.00    -0.077 OA 
BRANCH   3   4
HETATM    4  C   UNL     1      -5.671  11.209  70.272  1.00  0.00    -0.128 C  
HETATM    5  O   UNL     1      -5.882  10.888  71.434  1.00  0.00    -0.348 OA 
HETATM    6  N   UNL     1      -5.848  10.443  69.155  1.00  0.00    -0.037 N  
HETATM    7  H   UNL     1      -5.352  10.697  68.300  1.00  0.00     0.000 HD 
BRANCH   6   8
HETATM    8  C   UNL     1      -6.693   9.313  69.144  1.00  0.00    -0.050 A  
HETATM    9  C   UNL     1      -6.432   8.136  69.868  1.00  0.00    -0.039 A  
HETATM   10  C   UNL     1      -7.340   7.071  69.752  1.00  0.00    -0.088 A  
HETATM   11  N   UNL     1      -5.173   7.894  70.459  1.00  0.00    -0.023 NA 
HETATM   12  H2  UNL     1      -4.951   8.687  71.060  1.00  0.00     0.000 HD 
HETATM   13  C   UNL     1      -8.514   7.173  68.989  1.00  0.00    -0.129 A  
HETATM   14  H1  UNL     1      -4.983   7.040  70.985  1.00  0.00     0.000 HD 
HETATM   15  C   UNL     1      -7.861   9.427  68.384  1.00  0.00    -0.090 A  
HETATM   16  C   UNL     1      -8.780   8.380  68.342  1.00  0.00    -0.136 A  
BRANCH  13  17
HETATM   17  N   UNL     1      -9.388   6.074  68.966  1.00  0.00    -0.124 NA 
HETATM   18  H   UNL     1      -9.729   5.684  68.088  1.00  0.00     0.000 HD 
BRANCH  17  19
HETATM   19  C   UNL     1      -9.787   5.516  70.254  1.00  0.00    -0.198 C  
BRANCH  19  20
HETATM   20  C   UNL     1     -10.754   6.420  70.986  1.00  0.00    -0.301 A  
HETATM   21  C   UNL     1     -10.273   7.235  72.027  1.00  0.00    -0.212 A  
HETATM   22  C   UNL     1     -11.122   8.130  72.679  1.00  0.00    -0.450 A  
HETATM   23  C   UNL     1     -12.452   8.220  72.287  1.00  0.00    -0.335 A  
HETATM   24  C   UNL     1     -12.945   7.443  71.249  1.00  0.00    -0.358 A  
HETATM   25  F   UNL     1     -13.265   9.082  72.914  1.00  0.00    -0.485 F  
HETATM   26  C   UNL     1     -12.098   6.551  70.591  1.00  0.00    -0.265 A  
ENDBRANCH  19  20
ENDBRANCH  17  19
ENDBRANCH  13  17
ENDBRANCH   6   8
ENDBRANCH   3   4
ENDBRANCH   2   3
TORSDOF 6
ENDMDL
MODEL      195
REMARK 921   NORMALIZED FREE ENERGY PREDICTED BY IDOCK:   -3.21 KCAL/MOL
REMARK 922        TOTAL FREE ENERGY PREDICTED BY IDOCK:   -5.04 KCAL/MOL
REMARK 923 INTER-LIGAND FREE ENERGY PREDICTED BY IDOCK:   -4.13 KCAL/MOL
REMARK 924 INTRA-LIGAND FREE ENERGY PREDICTED BY IDOCK:   -0.91 KCAL/MOL
REMARK 927      BINDING AFFINITY PREDICTED BY RF-SCORE:    0.00 PKD
ROOT
HETATM    1  C   UNL     1      -8.814   4.162  63.102  1.00  0.00    -0.115 C  
HETATM    2  C   UNL     1      -7.638   4.196  64.064  1.00  0.00    -0.071 C  
ENDROOT
BRANCH   2   3
HETATM    3  O   UNL     1      -7.036   5.494  63.974  1.00  0.00    -0.045 OA 
BRANCH   3   4
HETATM    4  C   UNL     1      -6.601   6.023  65.146  1.00  0.00    -0.043 C  
HETATM    5  O   UNL     1      -5.577   6.680  65.279  1.00  0.00    -0.028 OA 
HETATM    6  N   UNL     1      -7.578   5.812  66.077  1.00  0.00    -0.085 N  
HETATM    7  H   UNL     1      -8.203   5.013  65.964  1.00  0.00     0.000 HD 
BRANCH   6   8
HETATM    8  C   UNL     1      -7.754   6.664  67.189  1.00  0.00    -0.100 A  
HETATM    9  C   UNL     1      -8.573   7.806  67.175  1.00  0.00    -0.128 A  
HETATM   10  C   UNL     1      -8.643   8.586  68.342  1.00  0.00    -0.139 A  
HETATM   11  N   UNL     1      -9.083   8.338  65.971  1.00  0.00    -0.230 NA 
HETATM   12  H2  UNL     1      -9.579   7.591  65.484  1.00  0.00     0.000 HD 
HETATM   13  C   UNL     1      -7.970   8.225  69.519  1.00  0.00    -0.112 A  
HETATM   14  H1  UNL     1      -9.678   9.167  65.961  1.00  0.00     0.000 HD 
HETATM   15  C   UNL     1      -7.082   6.293  68.357  1.00  0.00    -0.083 A  
HETATM   16  C   UNL     1      -7.224   7.046  69.521  1.00  0.00    -0.080 A  
BRANCH  13  17
HETATM   17  N   UNL     1      -8.133   9.039  70.652  1.00  0.00    -0.145 NA 
HETATM   18  H   UNL     1      -7.939  10.040  70.621  1.00  0.00     0.000 HD 
BRANCH  17  19
HETATM   19  C   UNL     1      -8.593   8.390  71.876  1.00  0.00    -0.186 C  
BRANCH  19  20
HETATM   20  C   UNL     1     -10.084   8.138  71.856  1.00  0.00    -0.285 A  
HETATM   21  C   UNL     1     -10.955   9.210  71.590  1.00  0.00    -0.445 A  
HETATM   22  C   UNL     1     -12.331   9.000  71.497  1.00  0.00    -0.397 A  
HETATM   23  C   UNL     1     -12.841   7.718  71.660  1.00  0.00    -0.340 A  
HETATM   24  C   UNL     1     -12.000   6.641  71.901  1.00  0.00    -0.386 A  
HETATM   25  F   UNL     1     -14.163   7.520  71.568  1.00  0.00    -0.445 F  
HETATM   26  C   UNL     1     -10.623   6.845  71.989  1.00  0.00    -0.238 A  
ENDBRANCH  19  20
ENDBRANCH  17  19
ENDBRANCH  13  17
ENDBRANCH   6   8
ENDBRANCH   3   4
ENDBRANCH   2   3
TORSDOF 6
ENDMDL
MODEL      196
REMARK 921   NORMALIZED FREE ENERGY PREDICTED BY IDOCK:   -3.18 KCAL/MOL
REMARK 922        TOTAL FREE ENERGY PREDICTED BY IDOCK:   -5.00 KCAL/MOL
REMARK 923 INTER-LIGAND FREE ENERGY PREDICTED BY IDOCK:   -4.28 KCAL/MOL
REMARK 924 INTRA-LIGAND FREE ENERGY PREDICTED BY IDOCK:   -0.71 KCAL/MOL
REMARK 927      BINDING AFFINITY PREDICTED BY RF-SCORE:    0.00 PKD
ROOT
HETATM    1  C   UNL     1     -10.674   6.344  70.889  1.00  0.00    -0.301 C  
HETATM    2  C   UNL     1      -9.905   7.111  69.827  1.00  0.00    -0.173 C  
ENDROOT
BRANCH   2   3
HETATM    3  O   UNL     1      -8.539   7.200  70.255  1.00  0.00    -0.140 OA 
BRANCH   3   4
HETATM    4  C   UNL     1      -7.779   8.118  69.606  1.00  0.00    -0.101 C  
HETATM    5  O   UNL     1      -6.998   7.863  68.699  1.00  0.00    -0.067 OA 
HETATM    6  N   UNL     1      -8.163   9.353  70.047  1.00  0.00    -0.143 N  
HETATM    7  H   UNL     1      -8.555   9.441  70.985  1.00  0.00     0.000 HD 
BRANCH   6   8
HETATM    8  C   UNL     1      -8.035  10.510  69.249  1.00  0.00    -0.154 A  
HETATM    9  C   UNL     1      -6.990  11.440  69.387  1.00  0.00    -0.092 A  
HETATM   10  C   UNL     1      -6.990  12.567  68.547  1.00  0.00    -0.086 A  
HETATM   11  N   UNL     1      -6.129  11.429  70.506  1.00  0.00    -0.359 NA 
HETATM   12  H2  UNL     1      -5.728  10.494  70.582  1.00  0.00     0.000 HD 
HETATM   13  C   UNL     1      -7.961  12.751  67.550  1.00  0.00    -0.177 A  
HETATM   14  H1  UNL     1      -5.371  12.104  70.607  1.00  0.00     0.000 HD 
HETATM   15  C   UNL     1      -9.004  10.682  68.257  1.00  0.00    -0.143 A  
HETATM   16  C   UNL     1      -8.941  11.772  67.391  1.00  0.00    -0.173 A  
BRANCH  13  17
HETATM   17  N   UNL     1      -7.857  13.884  66.726  1.00  0.00    -0.243 NA 
HETATM   18  H   UNL     1      -7.707  13.798  65.720  1.00  0.00     0.000 HD 
BRANCH  17  19
HETATM   19  C   UNL     1      -7.975  15.188  67.370  1.00  0.00    -0.190 C  
BRANCH  19  20
HETATM   20  C   UNL     1      -9.295  15.345  68.091  1.00  0.00    -0.197 A  
HETATM   21  C   UNL     1      -9.380  14.985  69.448  1.00  0.00    -0.120 A  
HETATM   22  C   UNL     1     -10.563  15.180  70.162  1.00  0.00    -0.227 A  
HETATM   23  C   UNL     1     -11.663  15.742  69.525  1.00  0.00    -0.360 A  
HETATM   24  C   UNL     1     -11.597  16.124  68.192  1.00  0.00    -0.133 A  
HETATM   25  F   UNL     1     -12.797  15.929  70.214  1.00  0.00    -0.408 F  
HETATM   26  C   UNL     1     -10.414  15.937  67.477  1.00  0.00    -0.298 A  
ENDBRANCH  19  20
ENDBRANCH  17  19
ENDBRANCH  13  17
ENDBRANCH   6   8
ENDBRANCH   3   4
ENDBRANCH   2   3
TORSDOF 6
ENDMDL
MODEL      197
REMARK 921   NORMALIZED FREE ENERGY PREDICTED BY IDOCK:   -3.15 KCAL/MOL
REMARK 922        TOTAL FREE ENERGY PREDICTED BY IDOCK:   -4.96 KCAL/MOL
REMARK 923 INTER-LIGAND FREE ENERGY PREDICTED BY IDOCK:   -4.06 KCAL/MOL
REMARK 924 INTRA-LIGAND FREE ENERGY PREDICTED BY IDOCK:   -0.90 KCAL/MOL
REMARK 927      BINDING AFFINITY PREDICTED BY RF-SCORE:    0.00 PKD
ROOT
HETATM    1  C   UNL     1      -9.028  15.046  68.264  1.00  0.00    -0.174 C  
HETATM    2  C   UNL     1      -9.100  14.350  66.915  1.00  0.00    -0.251 C  
ENDROOT
BRANCH   2   3
HETATM    3  O   UNL     1      -9.818  13.122  67.094  1.00  0.00    -0.226 OA 
BRANCH   3   4
HETATM    4  C   UNL     1      -9.108  11.987  66.869  1.00  0.00    -0.196 C  
HETATM    5  O   UNL     1      -7.991  11.762  67.316  1.00  0.00    -0.145 OA 
HETATM    6  N   UNL     1      -9.925  11.120  66.201  1.00  0.00    -0.221 N  
HETATM    7  H   UNL     1     -10.671  11.497  65.616  1.00  0.00     0.000 HD 
BRANCH   6   8
HETATM    8  C   UNL     1      -9.771   9.720  66.292  1.00  0.00    -0.234 A  
HETATM    9  C   UNL     1      -8.687   9.017  65.737  1.00  0.00    -0.169 A  
HETATM   10  C   UNL     1      -8.664   7.619  65.875  1.00  0.00    -0.176 A  
HETATM   11  N   UNL     1      -7.800   9.623  64.821  1.00  0.00    -0.122 NA 
HETATM   12  H2  UNL     1      -7.434  10.471  65.256  1.00  0.00     0.000 HD 
HETATM   13  C   UNL     1      -9.651   6.925  66.592  1.00  0.00    -0.168 A  
HETATM   14  H1  UNL     1      -7.013   9.113  64.419  1.00  0.00     0.000 HD 
HETATM   15  C   UNL     1     -10.758   9.040  67.011  1.00  0.00    -0.185 A  
HETATM   16  C   UNL     1     -10.673   7.661  67.192  1.00  0.00    -0.361 A  
BRANCH  13  17
HETATM   17  N   UNL     1      -9.524   5.532  66.718  1.00  0.00    -0.134 NA 
HETATM   18  H   UNL     1     -10.148   4.894  66.225  1.00  0.00     0.000 HD 
BRANCH  17  19
HETATM   19  C   UNL     1      -8.460   5.038  67.585  1.00  0.00    -0.104 C  
BRANCH  19  20
HETATM   20  C   UNL     1      -8.729   5.347  69.041  1.00  0.00    -0.103 A  
HETATM   21  C   UNL     1      -9.829   4.743  69.676  1.00  0.00    -0.292 A  
HETATM   22  C   UNL     1     -10.068   4.952  71.035  1.00  0.00    -0.288 A  
HETATM   23  C   UNL     1      -9.203   5.757  71.766  1.00  0.00    -0.145 A  
HETATM   24  C   UNL     1      -8.098   6.346  71.167  1.00  0.00    -0.117 A  
HETATM   25  F   UNL     1      -9.434   5.954  73.071  1.00  0.00    -0.149 F  
HETATM   26  C   UNL     1      -7.853   6.135  69.810  1.00  0.00    -0.106 A  
ENDBRANCH  19  20
ENDBRANCH  17  19
ENDBRANCH  13  17
ENDBRANCH   6   8
ENDBRANCH   3   4
ENDBRANCH   2   3
TORSDOF 6
ENDMDL
MODEL      198
REMARK 921   NORMALIZED FREE ENERGY PREDICTED BY IDOCK:   -3.14 KCAL/MOL
REMARK 922        TOTAL FREE ENERGY PREDICTED BY IDOCK:   -4.94 KCAL/MOL
REMARK 923 INTER-LIGAND FREE ENERGY PREDICTED BY IDOCK:   -4.26 KCAL/MOL
REMARK 924 INTRA-LIGAND FREE ENERGY PREDICTED BY IDOCK:   -0.68 KCAL/MOL
REMARK 927      BINDING AFFINITY PREDICTED BY RF-SCORE:    0.00 PKD
ROOT
HETATM    1  C   UNL     1      -9.414  18.845  66.245  1.00  0.00    -0.318 C  
HETATM    2  C   UNL     1      -8.389  18.710  67.358  1.00  0.00    -0.260 C  
ENDROOT
BRANCH   2   3
HETATM    3  O   UNL     1      -7.569  17.572  67.062  1.00  0.00    -0.190 OA 
BRANCH   3   4
HETATM    4  C   UNL     1      -7.756  16.489  67.858  1.00  0.00    -0.153 C  
HETATM    5  O   UNL     1      -8.164  16.531  69.011  1.00  0.00    -0.235 OA 
HETATM    6  N   UNL     1      -7.555  15.377  67.089  1.00  0.00    -0.211 N  
HETATM    7  H   UNL     1      -6.931  15.441  66.284  1.00  0.00     0.000 HD 
BRANCH   6   8
HETATM    8  C   UNL     1      -8.182  14.144  67.370  1.00  0.00    -0.193 A  
HETATM    9  C   UNL     1      -7.560  13.096  68.070  1.00  0.00    -0.144 A  
HETATM   10  C   UNL     1      -8.284  11.907  68.263  1.00  0.00    -0.157 A  
HETATM   11  N   UNL     1      -6.171  13.092  68.321  1.00  0.00    -0.082 NA 
HETATM   12  H2  UNL     1      -5.937  13.966  68.794  1.00  0.00     0.000 HD 
HETATM   13  C   UNL     1      -9.612  11.766  67.832  1.00  0.00    -0.187 A  
HETATM   14  H1  UNL     1      -5.719  12.331  68.829  1.00  0.00     0.000 HD 
HETATM   15  C   UNL     1      -9.505  14.017  66.939  1.00  0.00    -0.271 A  
HETATM   16  C   UNL     1     -10.224  12.852  67.206  1.00  0.00    -0.234 A  
BRANCH  13  17
HETATM   17  N   UNL     1     -10.275  10.559  68.108  1.00  0.00    -0.156 NA 
HETATM   18  H   UNL     1     -10.901  10.127  67.427  1.00  0.00     0.000 HD 
BRANCH  17  19
HETATM   19  C   UNL     1     -10.029   9.949  69.411  1.00  0.00    -0.212 C  
BRANCH  19  20
HETATM   20  C   UNL     1      -9.904   8.444  69.315  1.00  0.00    -0.186 A  
HETATM   21  C   UNL     1      -8.623   7.868  69.235  1.00  0.00    -0.138 A  
HETATM   22  C   UNL     1      -8.468   6.482  69.214  1.00  0.00    -0.127 A  
HETATM   23  C   UNL     1      -9.591   5.666  69.282  1.00  0.00    -0.138 A  
HETATM   24  C   UNL     1     -10.864   6.210  69.383  1.00  0.00    -0.420 A  
HETATM   25  F   UNL     1      -9.438   4.335  69.263  1.00  0.00    -0.180 F  
HETATM   26  C   UNL     1     -11.022   7.596  69.410  1.00  0.00    -0.071 A  
ENDBRANCH  19  20
ENDBRANCH  17  19
ENDBRANCH  13  17
ENDBRANCH   6   8
ENDBRANCH   3   4
ENDBRANCH   2   3
TORSDOF 6
ENDMDL
MODEL      199
REMARK 921   NORMALIZED FREE ENERGY PREDICTED BY IDOCK:   -3.13 KCAL/MOL
REMARK 922        TOTAL FREE ENERGY PREDICTED BY IDOCK:   -4.93 KCAL/MOL
REMARK 923 INTER-LIGAND FREE ENERGY PREDICTED BY IDOCK:   -4.93 KCAL/MOL
REMARK 924 INTRA-LIGAND FREE ENERGY PREDICTED BY IDOCK:    0.00 KCAL/MOL
REMARK 927      BINDING AFFINITY PREDICTED BY RF-SCORE:    0.00 PKD
ROOT
HETATM    1  C   UNL     1     -10.267   5.838  69.015  1.00  0.00    -0.282 C  
HETATM    2  C   UNL     1     -11.396   6.800  69.346  1.00  0.00    -0.197 C  
ENDROOT
BRANCH   2   3
HETATM    3  O   UNL     1     -11.120   7.372  70.631  1.00  0.00    -0.255 OA 
BRANCH   3   4
HETATM    4  C   UNL     1     -10.774   8.685  70.629  1.00  0.00    -0.222 C  
HETATM    5  O   UNL     1      -9.650   9.110  70.403  1.00  0.00    -0.190 OA 
HETATM    6  N   UNL     1     -11.923   9.410  70.769  1.00  0.00    -0.390 N  
HETATM    7  H   UNL     1     -12.715   8.990  71.258  1.00  0.00     0.000 HD 
BRANCH   6   8
HETATM    8  C   UNL     1     -12.052  10.721  70.262  1.00  0.00    -0.348 A  
HETATM    9  C   UNL     1     -11.976  11.039  68.895  1.00  0.00    -0.262 A  
HETATM   10  C   UNL     1     -12.095  12.388  68.521  1.00  0.00    -0.126 A  
HETATM   11  N   UNL     1     -11.507  10.109  67.942  1.00  0.00    -0.636 NA 
HETATM   12  H2  UNL     1     -12.063   9.258  68.035  1.00  0.00     0.000 HD 
HETATM   13  C   UNL     1     -12.341  13.402  69.459  1.00  0.00    -0.102 A  
HETATM   14  H1  UNL     1     -11.453  10.340  66.949  1.00  0.00     0.000 HD 
HETATM   15  C   UNL     1     -12.301  11.722  71.206  1.00  0.00    -0.250 A  
HETATM   16  C   UNL     1     -12.484  13.043  70.800  1.00  0.00    -0.384 A  
BRANCH  13  17
HETATM   17  N   UNL     1     -12.491  14.717  68.991  1.00  0.00    -0.578 NA 
HETATM   18  H   UNL     1     -13.413  15.116  68.809  1.00  0.00     0.000 HD 
BRANCH  17  19
HETATM   19  C   UNL     1     -11.272  15.489  68.777  1.00  0.00    -0.315 C  
BRANCH  19  20
HETATM   20  C   UNL     1     -10.215  14.687  68.051  1.00  0.00    -0.231 A  
HETATM   21  C   UNL     1      -9.169  14.106  68.791  1.00  0.00    -0.080 A  
HETATM   22  C   UNL     1      -8.216  13.303  68.164  1.00  0.00    -0.160 A  
HETATM   23  C   UNL     1      -8.309  13.071  66.797  1.00  0.00     0.061 A  
HETATM   24  C   UNL     1      -9.344  13.614  66.049  1.00  0.00    -0.029 A  
HETATM   25  F   UNL     1      -7.393  12.298  66.198  1.00  0.00     0.316 F  
HETATM   26  C   UNL     1     -10.302  14.413  66.674  1.00  0.00    -0.275 A  
ENDBRANCH  19  20
ENDBRANCH  17  19
ENDBRANCH  13  17
ENDBRANCH   6   8
ENDBRANCH   3   4
ENDBRANCH   2   3
TORSDOF 6
ENDMDL
MODEL      200
REMARK 921   NORMALIZED FREE ENERGY PREDICTED BY IDOCK:   -2.98 KCAL/MOL
REMARK 922        TOTAL FREE ENERGY PREDICTED BY IDOCK:   -4.74 KCAL/MOL
REMARK 923 INTER-LIGAND FREE ENERGY PREDICTED BY IDOCK:   -3.89 KCAL/MOL
REMARK 924 INTRA-LIGAND FREE ENERGY PREDICTED BY IDOCK:   -0.85 KCAL/MOL
REMARK 927      BINDING AFFINITY PREDICTED BY RF-SCORE:    0.00 PKD
ROOT
HETATM    1  C   UNL     1      -6.757  13.803  67.526  1.00  0.00    -0.131 C  
HETATM    2  C   UNL     1      -5.887  12.562  67.645  1.00  0.00    -0.134 C  
ENDROOT
BRANCH   2   3
HETATM    3  O   UNL     1      -6.709  11.423  67.359  1.00  0.00    -0.078 OA 
BRANCH   3   4
HETATM    4  C   UNL     1      -7.342  10.872  68.426  1.00  0.00    -0.094 C  
HETATM    5  O   UNL     1      -8.434  11.226  68.850  1.00  0.00    -0.139 OA 
HETATM    6  N   UNL     1      -6.613   9.785  68.817  1.00  0.00    -0.046 N  
HETATM    7  H   UNL     1      -5.610   9.771  68.631  1.00  0.00     0.000 HD 
BRANCH   6   8
HETATM    8  C   UNL     1      -7.201   8.680  69.470  1.00  0.00    -0.060 A  
HETATM    9  C   UNL     1      -7.814   7.611  68.795  1.00  0.00    -0.120 A  
HETATM   10  C   UNL     1      -8.386   6.583  69.563  1.00  0.00    -0.130 A  
HETATM   11  N   UNL     1      -8.122   7.682  67.419  1.00  0.00    -0.118 NA 
HETATM   12  H2  UNL     1      -7.265   7.917  66.918  1.00  0.00     0.000 HD 
HETATM   13  C   UNL     1      -8.309   6.569  70.964  1.00  0.00    -0.126 A  
HETATM   14  H1  UNL     1      -8.567   6.906  66.928  1.00  0.00     0.000 HD 
HETATM   15  C   UNL     1      -7.114   8.676  70.865  1.00  0.00    -0.067 A  
HETATM   16  C   UNL     1      -7.628   7.608  71.600  1.00  0.00    -0.085 A  
BRANCH  13  17
HETATM   17  N   UNL     1      -8.868   5.478  71.649  1.00  0.00    -0.135 NA 
HETATM   18  H   UNL     1      -8.688   4.517  71.357  1.00  0.00     0.000 HD 
BRANCH  17  19
HETATM   19  C   UNL     1      -9.718   5.779  72.796  1.00  0.00    -0.155 C  
BRANCH  19  20
HETATM   20  C   UNL     1     -10.919   6.612  72.406  1.00  0.00    -0.277 A  
HETATM   21  C   UNL     1     -11.127   7.851  73.039  1.00  0.00    -0.379 A  
HETATM   22  C   UNL     1     -12.185   8.675  72.656  1.00  0.00    -0.274 A  
HETATM   23  C   UNL     1     -13.035   8.269  71.634  1.00  0.00    -0.337 A  
HETATM   24  C   UNL     1     -12.838   7.061  70.980  1.00  0.00    -0.258 A  
HETATM   25  F   UNL     1     -14.049   9.064  71.268  1.00  0.00    -0.432 F  
HETATM   26  C   UNL     1     -11.777   6.237  71.355  1.00  0.00    -0.316 A  
ENDBRANCH  19  20
ENDBRANCH  17  19
ENDBRANCH  13  17
ENDBRANCH   6   8
ENDBRANCH   3   4
ENDBRANCH   2   3
TORSDOF 6
ENDMDL
MODEL      201
REMARK 921   NORMALIZED FREE ENERGY PREDICTED BY IDOCK:   -2.97 KCAL/MOL
REMARK 922        TOTAL FREE ENERGY PREDICTED BY IDOCK:   -4.72 KCAL/MOL
REMARK 923 INTER-LIGAND FREE ENERGY PREDICTED BY IDOCK:   -3.76 KCAL/MOL
REMARK 924 INTRA-LIGAND FREE ENERGY PREDICTED BY IDOCK:   -0.95 KCAL/MOL
REMARK 927      BINDING AFFINITY PREDICTED BY RF-SCORE:    0.00 PKD
ROOT
HETATM    1  C   UNL     1      -9.007  13.338  68.165  1.00  0.00    -0.195 C  
HETATM    2  C   UNL     1      -8.918  12.333  67.029  1.00  0.00    -0.204 C  
ENDROOT
BRANCH   2   3
HETATM    3  O   UNL     1      -9.559  11.126  67.461  1.00  0.00    -0.167 OA 
BRANCH   3   4
HETATM    4  C   UNL     1      -8.974   9.971  67.052  1.00  0.00    -0.138 C  
HETATM    5  O   UNL     1      -7.827   9.637  67.315  1.00  0.00    -0.095 OA 
HETATM    6  N   UNL     1      -9.939   9.218  66.445  1.00  0.00    -0.277 N  
HETATM    7  H   UNL     1     -10.728   9.691  66.003  1.00  0.00     0.000 HD 
BRANCH   6   8
HETATM    8  C   UNL     1      -9.881   7.809  66.408  1.00  0.00    -0.128 A  
HETATM    9  C   UNL     1      -8.964   7.086  65.624  1.00  0.00     0.061 A  
HETATM   10  C   UNL     1      -9.026   5.683  65.656  1.00  0.00    -0.139 A  
HETATM   11  N   UNL     1      -8.200   7.710  64.613  1.00  0.00    -0.295 NA 
HETATM   12  H2  UNL     1      -7.701   8.493  65.036  1.00  0.00     0.000 HD 
HETATM   13  C   UNL     1      -9.928   4.996  66.483  1.00  0.00    -0.224 A  
HETATM   14  H1  UNL     1      -7.534   7.185  64.044  1.00  0.00     0.000 HD 
HETATM   15  C   UNL     1     -10.781   7.135  67.238  1.00  0.00    -0.399 A  
HETATM   16  C   UNL     1     -10.774   5.743  67.303  1.00  0.00    -0.345 A  
BRANCH  13  17
HETATM   17  N   UNL     1      -9.889   3.593  66.485  1.00  0.00    -0.410 NA 
HETATM   18  H   UNL     1     -10.692   3.037  66.188  1.00  0.00     0.000 HD 
BRANCH  17  19
HETATM   19  C   UNL     1      -8.650   2.963  66.931  1.00  0.00    -0.107 C  
BRANCH  19  20
HETATM   20  C   UNL     1      -8.417   3.162  68.412  1.00  0.00    -0.102 A  
HETATM   21  C   UNL     1      -7.348   3.975  68.832  1.00  0.00    -0.055 A  
HETATM   22  C   UNL     1      -7.144   4.236  70.187  1.00  0.00    -0.042 A  
HETATM   23  C   UNL     1      -8.012   3.693  71.127  1.00  0.00    -0.059 A  
HETATM   24  C   UNL     1      -9.085   2.905  70.736  1.00  0.00    -0.190 A  
HETATM   25  F   UNL     1      -7.814   3.946  72.428  1.00  0.00    -0.071 F  
HETATM   26  C   UNL     1      -9.296   2.647  69.381  1.00  0.00    -0.183 A  
ENDBRANCH  19  20
ENDBRANCH  17  19
ENDBRANCH  13  17
ENDBRANCH   6   8
ENDBRANCH   3   4
ENDBRANCH   2   3
TORSDOF 6
ENDMDL
MODEL      202
REMARK 921   NORMALIZED FREE ENERGY PREDICTED BY IDOCK:   -2.82 KCAL/MOL
REMARK 922        TOTAL FREE ENERGY PREDICTED BY IDOCK:   -4.51 KCAL/MOL
REMARK 923 INTER-LIGAND FREE ENERGY PREDICTED BY IDOCK:   -3.58 KCAL/MOL
REMARK 924 INTRA-LIGAND FREE ENERGY PREDICTED BY IDOCK:   -0.93 KCAL/MOL
REMARK 927      BINDING AFFINITY PREDICTED BY RF-SCORE:    0.00 PKD
ROOT
HETATM    1  C   UNL     1      -5.770   8.687  71.705  1.00  0.00    -0.047 C  
HETATM    2  C   UNL     1      -5.715  10.093  71.132  1.00  0.00    -0.054 C  
ENDROOT
BRANCH   2   3
HETATM    3  O   UNL     1      -7.025  10.423  70.653  1.00  0.00    -0.324 OA 
BRANCH   3   4
HETATM    4  C   UNL     1      -7.355   9.906  69.441  1.00  0.00    -0.091 C  
HETATM    5  O   UNL     1      -6.550   9.563  68.586  1.00  0.00    -0.052 OA 
HETATM    6  N   UNL     1      -8.707   9.711  69.435  1.00  0.00    -0.157 N  
HETATM    7  H   UNL     1      -9.293  10.302  70.025  1.00  0.00     0.000 HD 
BRANCH   6   8
HETATM    8  C   UNL     1      -9.320   8.719  68.640  1.00  0.00    -0.141 A  
HETATM    9  C   UNL     1      -9.610   8.883  67.274  1.00  0.00    -0.164 A  
HETATM   10  C   UNL     1     -10.246   7.827  66.600  1.00  0.00    -0.288 A  
HETATM   11  N   UNL     1      -9.547  10.148  66.650  1.00  0.00    -0.176 NA 
HETATM   12  H2  UNL     1      -8.619  10.536  66.822  1.00  0.00     0.000 HD 
HETATM   13  C   UNL     1     -10.542   6.611  67.234  1.00  0.00    -0.317 A  
HETATM   14  H1  UNL     1      -9.757  10.267  65.658  1.00  0.00     0.000 HD 
HETATM   15  C   UNL     1      -9.607   7.510  69.281  1.00  0.00    -0.158 A  
HETATM   16  C   UNL     1     -10.175   6.454  68.571  1.00  0.00    -0.198 A  
BRANCH  13  17
HETATM   17  N   UNL     1     -11.138   5.593  66.471  1.00  0.00    -0.707 NA 
HETATM   18  H   UNL     1     -12.129   5.368  66.565  1.00  0.00     0.000 HD 
BRANCH  17  19
HETATM   19  C   UNL     1     -10.279   4.872  65.538  1.00  0.00    -0.062 C  
BRANCH  19  20
HETATM   20  C   UNL     1      -9.138   4.175  66.245  1.00  0.00    -0.134 A  
HETATM   21  C   UNL     1      -7.820   4.600  66.001  1.00  0.00    -0.095 A  
HETATM   22  C   UNL     1      -6.749   4.026  66.686  1.00  0.00    -0.050 A  
HETATM   23  C   UNL     1      -6.992   3.029  67.624  1.00  0.00    -0.049 A  
HETATM   24  C   UNL     1      -8.285   2.607  67.898  1.00  0.00    -0.081 A  
HETATM   25  F   UNL     1      -5.961   2.481  68.282  1.00  0.00    -0.021 F  
HETATM   26  C   UNL     1      -9.359   3.184  67.220  1.00  0.00    -0.217 A  
ENDBRANCH  19  20
ENDBRANCH  17  19
ENDBRANCH  13  17
ENDBRANCH   6   8
ENDBRANCH   3   4
ENDBRANCH   2   3
TORSDOF 6
ENDMDL
MODEL      203
REMARK 921   NORMALIZED FREE ENERGY PREDICTED BY IDOCK:   -2.48 KCAL/MOL
REMARK 922        TOTAL FREE ENERGY PREDICTED BY IDOCK:   -4.06 KCAL/MOL
REMARK 923 INTER-LIGAND FREE ENERGY PREDICTED BY IDOCK:   -3.31 KCAL/MOL
REMARK 924 INTRA-LIGAND FREE ENERGY PREDICTED BY IDOCK:   -0.76 KCAL/MOL
REMARK 927      BINDING AFFINITY PREDICTED BY RF-SCORE:    0.00 PKD
ROOT
HETATM    1  C   UNL     1      -7.706  12.708  67.341  1.00  0.00    -0.161 C  
HETATM    2  C   UNL     1      -6.572  11.908  66.721  1.00  0.00    -0.019 C  
ENDROOT
BRANCH   2   3
HETATM    3  O   UNL     1      -7.152  10.802  66.017  1.00  0.00    -0.132 OA 
BRANCH   3   4
HETATM    4  C   UNL     1      -7.025   9.591  66.617  1.00  0.00    -0.085 C  
HETATM    5  O   UNL     1      -6.400   9.385  67.649  1.00  0.00    -0.057 OA 
HETATM    6  N   UNL     1      -7.834   8.716  65.949  1.00  0.00    -0.100 N  
HETATM    7  H   UNL     1      -8.039   8.889  64.964  1.00  0.00     0.000 HD 
BRANCH   6   8
HETATM    8  C   UNL     1      -8.395   7.582  66.574  1.00  0.00    -0.126 A  
HETATM    9  C   UNL     1      -9.732   7.509  67.002  1.00  0.00    -0.198 A  
HETATM   10  C   UNL     1     -10.162   6.331  67.635  1.00  0.00    -0.206 A  
HETATM   11  N   UNL     1     -10.551   8.657  67.075  1.00  0.00    -0.316 NA 
HETATM   12  H2  UNL     1     -10.539   9.109  66.160  1.00  0.00     0.000 HD 
HETATM   13  C   UNL     1      -9.318   5.222  67.795  1.00  0.00    -0.119 A  
HETATM   14  H1  UNL     1     -11.522   8.604  67.385  1.00  0.00     0.000 HD 
HETATM   15  C   UNL     1      -7.546   6.482  66.725  1.00  0.00    -0.091 A  
HETATM   16  C   UNL     1      -8.018   5.301  67.294  1.00  0.00    -0.101 A  
BRANCH  13  17
HETATM   17  N   UNL     1      -9.845   4.069  68.399  1.00  0.00    -0.053 NA 
HETATM   18  H   UNL     1     -10.542   3.492  67.927  1.00  0.00     0.000 HD 
BRANCH  17  19
HETATM   19  C   UNL     1      -9.353   3.732  69.731  1.00  0.00    -0.175 C  
BRANCH  19  20
HETATM   20  C   UNL     1      -9.334   4.935  70.647  1.00  0.00    -0.222 A  
HETATM   21  C   UNL     1     -10.550   5.429  71.153  1.00  0.00    -0.276 A  
HETATM   22  C   UNL     1     -10.565   6.494  72.054  1.00  0.00    -0.244 A  
HETATM   23  C   UNL     1      -9.364   7.064  72.459  1.00  0.00    -0.138 A  
HETATM   24  C   UNL     1      -8.151   6.581  71.991  1.00  0.00    -0.107 A  
HETATM   25  F   UNL     1      -9.382   8.086  73.325  1.00  0.00    -0.268 F  
HETATM   26  C   UNL     1      -8.131   5.512  71.095  1.00  0.00    -0.112 A  
ENDBRANCH  19  20
ENDBRANCH  17  19
ENDBRANCH  13  17
ENDBRANCH   6   8
ENDBRANCH   3   4
ENDBRANCH   2   3
TORSDOF 6
ENDMDL
MODEL      204
REMARK 921   NORMALIZED FREE ENERGY PREDICTED BY IDOCK:   -2.45 KCAL/MOL
REMARK 922        TOTAL FREE ENERGY PREDICTED BY IDOCK:   -4.01 KCAL/MOL
REMARK 923 INTER-LIGAND FREE ENERGY PREDICTED BY IDOCK:   -3.14 KCAL/MOL
REMARK 924 INTRA-LIGAND FREE ENERGY PREDICTED BY IDOCK:   -0.87 KCAL/MOL
REMARK 927      BINDING AFFINITY PREDICTED BY RF-SCORE:    0.00 PKD
ROOT
HETATM    1  C   UNL     1      -6.167  14.598  70.454  1.00  0.00    -0.168 C  
HETATM    2  C   UNL     1      -5.437  13.333  70.875  1.00  0.00    -0.184 C  
ENDROOT
BRANCH   2   3
HETATM    3  O   UNL     1      -5.623  12.356  69.842  1.00  0.00    -0.089 OA 
BRANCH   3   4
HETATM    4  C   UNL     1      -6.019  11.127  70.260  1.00  0.00    -0.144 C  
HETATM    5  O   UNL     1      -6.081  10.773  71.429  1.00  0.00    -0.326 OA 
HETATM    6  N   UNL     1      -6.466  10.448  69.162  1.00  0.00    -0.045 N  
HETATM    7  H   UNL     1      -6.085  10.686  68.246  1.00  0.00     0.000 HD 
BRANCH   6   8
HETATM    8  C   UNL     1      -7.437   9.427  69.253  1.00  0.00    -0.076 A  
HETATM    9  C   UNL     1      -7.136   8.090  69.563  1.00  0.00    -0.058 A  
HETATM   10  C   UNL     1      -8.191   7.163  69.597  1.00  0.00    -0.131 A  
HETATM   11  N   UNL     1      -5.809   7.607  69.553  1.00  0.00    -0.023 NA 
HETATM   12  H2  UNL     1      -5.255   8.203  70.169  1.00  0.00     0.000 HD 
HETATM   13  C   UNL     1      -9.525   7.547  69.390  1.00  0.00    -0.155 A  
HETATM   14  H1  UNL     1      -5.590   6.636  69.779  1.00  0.00     0.000 HD 
HETATM   15  C   UNL     1      -8.762   9.822  69.048  1.00  0.00    -0.148 A  
HETATM   16  C   UNL     1      -9.798   8.895  69.158  1.00  0.00    -0.180 A  
BRANCH  13  17
HETATM   17  N   UNL     1     -10.522   6.562  69.488  1.00  0.00    -0.205 NA 
HETATM   18  H   UNL     1     -10.801   6.175  70.390  1.00  0.00     0.000 HD 
BRANCH  17  19
HETATM   19  C   UNL     1     -11.140   6.116  68.243  1.00  0.00    -0.239 C  
BRANCH  19  20
HETATM   20  C   UNL     1     -10.246   5.168  67.477  1.00  0.00    -0.210 A  
HETATM   21  C   UNL     1      -9.808   5.530  66.190  1.00  0.00    -0.137 A  
HETATM   22  C   UNL     1      -8.928   4.711  65.482  1.00  0.00    -0.142 A  
HETATM   23  C   UNL     1      -8.477   3.531  66.060  1.00  0.00    -0.112 A  
HETATM   24  C   UNL     1      -8.878   3.162  67.336  1.00  0.00    -0.159 A  
HETATM   25  F   UNL     1      -7.631   2.747  65.377  1.00  0.00    -0.071 F  
HETATM   26  C   UNL     1      -9.752   3.981  68.050  1.00  0.00    -0.142 A  
ENDBRANCH  19  20
ENDBRANCH  17  19
ENDBRANCH  13  17
ENDBRANCH   6   8
ENDBRANCH   3   4
ENDBRANCH   2   3
TORSDOF 6
ENDMDL
MODEL      205
REMARK 921   NORMALIZED FREE ENERGY PREDICTED BY IDOCK:   -2.44 KCAL/MOL
REMARK 922        TOTAL FREE ENERGY PREDICTED BY IDOCK:   -4.01 KCAL/MOL
REMARK 923 INTER-LIGAND FREE ENERGY PREDICTED BY IDOCK:   -3.92 KCAL/MOL
REMARK 924 INTRA-LIGAND FREE ENERGY PREDICTED BY IDOCK:   -0.09 KCAL/MOL
REMARK 927      BINDING AFFINITY PREDICTED BY RF-SCORE:    0.00 PKD
ROOT
HETATM    1  C   UNL     1      -5.853  10.174  63.608  1.00  0.00    -0.138 C  
HETATM    2  C   UNL     1      -7.190   9.651  63.111  1.00  0.00    -0.112 C  
ENDROOT
BRANCH   2   3
HETATM    3  O   UNL     1      -7.268   8.259  63.447  1.00  0.00    -0.087 OA 
BRANCH   3   4
HETATM    4  C   UNL     1      -7.489   7.982  64.758  1.00  0.00    -0.091 C  
HETATM    5  O   UNL     1      -6.677   7.457  65.507  1.00  0.00    -0.047 OA 
HETATM    6  N   UNL     1      -8.695   8.529  65.094  1.00  0.00    -0.332 N  
HETATM    7  H   UNL     1      -9.403   8.644  64.368  1.00  0.00     0.000 HD 
BRANCH   6   8
HETATM    8  C   UNL     1      -8.994   8.940  66.410  1.00  0.00    -0.158 A  
HETATM    9  C   UNL     1      -9.825  10.032  66.716  1.00  0.00    -0.198 A  
HETATM   10  C   UNL     1     -10.024  10.355  68.069  1.00  0.00    -0.178 A  
HETATM   11  N   UNL     1     -10.220  10.963  65.731  1.00  0.00    -0.252 NA 
HETATM   12  H2  UNL     1     -10.653  10.444  64.966  1.00  0.00     0.000 HD 
HETATM   13  C   UNL     1      -9.467   9.591  69.106  1.00  0.00    -0.163 A  
HETATM   14  H1  UNL     1     -10.824  11.755  65.953  1.00  0.00     0.000 HD 
HETATM   15  C   UNL     1      -8.437   8.170  67.435  1.00  0.00    -0.126 A  
HETATM   16  C   UNL     1      -8.707   8.471  68.769  1.00  0.00    -0.139 A  
BRANCH  13  17
HETATM   17  N   UNL     1      -9.755   9.960  70.430  1.00  0.00    -0.379 NA 
HETATM   18  H   UNL     1     -10.347  10.764  70.642  1.00  0.00     0.000 HD 
BRANCH  17  19
HETATM   19  C   UNL     1      -9.171   9.144  71.489  1.00  0.00    -0.086 C  
BRANCH  19  20
HETATM   20  C   UNL     1     -10.082   8.007  71.894  1.00  0.00    -0.264 A  
HETATM   21  C   UNL     1     -11.446   8.269  72.114  1.00  0.00    -0.427 A  
HETATM   22  C   UNL     1     -12.328   7.233  72.422  1.00  0.00    -0.047 A  
HETATM   23  C   UNL     1     -11.852   5.930  72.503  1.00  0.00    -0.185 A  
HETATM   24  C   UNL     1     -10.514   5.643  72.269  1.00  0.00    -0.260 A  
HETATM   25  F   UNL     1     -12.701   4.936  72.798  1.00  0.00    -0.095 F  
HETATM   26  C   UNL     1      -9.630   6.675  71.955  1.00  0.00    -0.152 A  
ENDBRANCH  19  20
ENDBRANCH  17  19
ENDBRANCH  13  17
ENDBRANCH   6   8
ENDBRANCH   3   4
ENDBRANCH   2   3
TORSDOF 6
ENDMDL
MODEL      206
REMARK 921   NORMALIZED FREE ENERGY PREDICTED BY IDOCK:   -2.38 KCAL/MOL
REMARK 922        TOTAL FREE ENERGY PREDICTED BY IDOCK:   -3.92 KCAL/MOL
REMARK 923 INTER-LIGAND FREE ENERGY PREDICTED BY IDOCK:   -4.20 KCAL/MOL
REMARK 924 INTRA-LIGAND FREE ENERGY PREDICTED BY IDOCK:    0.29 KCAL/MOL
REMARK 927      BINDING AFFINITY PREDICTED BY RF-SCORE:    0.00 PKD
ROOT
HETATM    1  C   UNL     1      -6.201   1.667  68.854  1.00  0.00    -0.025 C  
HETATM    2  C   UNL     1      -7.264   2.651  68.394  1.00  0.00    -0.048 C  
ENDROOT
BRANCH   2   3
HETATM    3  O   UNL     1      -8.169   2.860  69.486  1.00  0.00    -0.050 OA 
BRANCH   3   4
HETATM    4  C   UNL     1      -8.640   4.125  69.625  1.00  0.00    -0.072 C  
HETATM    5  O   UNL     1      -8.666   4.750  70.677  1.00  0.00    -0.104 OA 
HETATM    6  N   UNL     1      -8.923   4.596  68.374  1.00  0.00    -0.109 N  
HETATM    7  H   UNL     1      -9.173   3.930  67.642  1.00  0.00     0.000 HD 
BRANCH   6   8
HETATM    8  C   UNL     1      -8.882   5.971  68.061  1.00  0.00    -0.110 A  
HETATM    9  C   UNL     1      -7.910   6.856  68.559  1.00  0.00    -0.118 A  
HETATM   10  C   UNL     1      -7.994   8.209  68.191  1.00  0.00    -0.127 A  
HETATM   11  N   UNL     1      -7.050   6.493  69.618  1.00  0.00    -0.070 NA 
HETATM   12  H2  UNL     1      -6.580   5.626  69.356  1.00  0.00     0.000 HD 
HETATM   13  C   UNL     1      -8.976   8.680  67.306  1.00  0.00    -0.133 A  
HETATM   14  H1  UNL     1      -6.344   7.135  69.980  1.00  0.00     0.000 HD 
HETATM   15  C   UNL     1      -9.863   6.428  67.176  1.00  0.00    -0.182 A  
HETATM   16  C   UNL     1      -9.881   7.762  66.772  1.00  0.00    -0.312 A  
BRANCH  13  17
HETATM   17  N   UNL     1      -8.958  10.040  66.958  1.00  0.00    -0.138 NA 
HETATM   18  H   UNL     1      -8.651  10.755  67.617  1.00  0.00     0.000 HD 
BRANCH  17  19
HETATM   19  C   UNL     1      -9.399  10.387  65.610  1.00  0.00    -0.198 C  
BRANCH  19  20
HETATM   20  C   UNL     1     -10.433  11.490  65.621  1.00  0.00    -0.317 A  
HETATM   21  C   UNL     1     -11.503  11.434  64.709  1.00  0.00    -0.056 A  
HETATM   22  C   UNL     1     -12.511  12.398  64.736  1.00  0.00    -0.480 A  
HETATM   23  C   UNL     1     -12.458  13.417  65.679  1.00  0.00    -0.464 A  
HETATM   24  C   UNL     1     -11.425  13.483  66.602  1.00  0.00    -0.366 A  
HETATM   25  F   UNL     1     -13.429  14.341  65.703  1.00  0.00    -0.474 F  
HETATM   26  C   UNL     1     -10.418  12.517  66.583  1.00  0.00    -0.252 A  
ENDBRANCH  19  20
ENDBRANCH  17  19
ENDBRANCH  13  17
ENDBRANCH   6   8
ENDBRANCH   3   4
ENDBRANCH   2   3
TORSDOF 6
ENDMDL
MODEL      207
REMARK 921   NORMALIZED FREE ENERGY PREDICTED BY IDOCK:   -2.34 KCAL/MOL
REMARK 922        TOTAL FREE ENERGY PREDICTED BY IDOCK:   -3.87 KCAL/MOL
REMARK 923 INTER-LIGAND FREE ENERGY PREDICTED BY IDOCK:   -3.36 KCAL/MOL
REMARK 924 INTRA-LIGAND FREE ENERGY PREDICTED BY IDOCK:   -0.50 KCAL/MOL
REMARK 927      BINDING AFFINITY PREDICTED BY RF-SCORE:    0.00 PKD
ROOT
HETATM    1  C   UNL     1     -10.860  18.504  66.378  1.00  0.00    -0.080 C  
HETATM    2  C   UNL     1     -10.061  18.533  67.670  1.00  0.00    -0.364 C  
ENDROOT
BRANCH   2   3
HETATM    3  O   UNL     1      -8.824  17.848  67.435  1.00  0.00    -0.241 OA 
BRANCH   3   4
HETATM    4  C   UNL     1      -8.741  16.592  67.945  1.00  0.00    -0.193 C  
HETATM    5  O   UNL     1      -9.410  16.173  68.880  1.00  0.00    -0.213 OA 
HETATM    6  N   UNL     1      -7.908  15.876  67.134  1.00  0.00    -0.192 N  
HETATM    7  H   UNL     1      -7.183  16.370  66.612  1.00  0.00     0.000 HD 
BRANCH   6   8
HETATM    8  C   UNL     1      -8.015  14.476  66.993  1.00  0.00    -0.041 A  
HETATM    9  C   UNL     1      -6.993  13.576  67.346  1.00  0.00    -0.070 A  
HETATM   10  C   UNL     1      -7.215  12.205  67.133  1.00  0.00    -0.117 A  
HETATM   11  N   UNL     1      -5.681  14.017  67.626  1.00  0.00    -0.336 NA 
HETATM   12  H2  UNL     1      -5.739  14.726  68.357  1.00  0.00     0.000 HD 
HETATM   13  C   UNL     1      -8.434  11.716  66.639  1.00  0.00    -0.165 A  
HETATM   14  H1  UNL     1      -4.940  13.364  67.883  1.00  0.00     0.000 HD 
HETATM   15  C   UNL     1      -9.234  14.000  66.504  1.00  0.00    -0.240 A  
HETATM   16  C   UNL     1      -9.453  12.630  66.368  1.00  0.00    -0.231 A  
BRANCH  13  17
HETATM   17  N   UNL     1      -8.584  10.327  66.500  1.00  0.00    -0.130 NA 
HETATM   18  H   UNL     1      -8.669   9.889  65.582  1.00  0.00     0.000 HD 
BRANCH  17  19
HETATM   19  C   UNL     1      -8.614   9.536  67.726  1.00  0.00    -0.115 C  
BRANCH  19  20
HETATM   20  C   UNL     1      -8.141   8.118  67.496  1.00  0.00    -0.123 A  
HETATM   21  C   UNL     1      -8.841   7.058  68.100  1.00  0.00    -0.129 A  
HETATM   22  C   UNL     1      -8.474   5.734  67.854  1.00  0.00    -0.103 A  
HETATM   23  C   UNL     1      -7.413   5.465  66.998  1.00  0.00    -0.088 A  
HETATM   24  C   UNL     1      -6.721   6.493  66.374  1.00  0.00    -0.056 A  
HETATM   25  F   UNL     1      -7.065   4.192  66.763  1.00  0.00    -0.059 F  
HETATM   26  C   UNL     1      -7.089   7.818  66.612  1.00  0.00    -0.079 A  
ENDBRANCH  19  20
ENDBRANCH  17  19
ENDBRANCH  13  17
ENDBRANCH   6   8
ENDBRANCH   3   4
ENDBRANCH   2   3
TORSDOF 6
ENDMDL
MODEL      208
REMARK 921   NORMALIZED FREE ENERGY PREDICTED BY IDOCK:   -2.34 KCAL/MOL
REMARK 922        TOTAL FREE ENERGY PREDICTED BY IDOCK:   -3.86 KCAL/MOL
REMARK 923 INTER-LIGAND FREE ENERGY PREDICTED BY IDOCK:   -3.25 KCAL/MOL
REMARK 924 INTRA-LIGAND FREE ENERGY PREDICTED BY IDOCK:   -0.61 KCAL/MOL
REMARK 927      BINDING AFFINITY PREDICTED BY RF-SCORE:    0.00 PKD
ROOT
HETATM    1  C   UNL     1      -6.134   9.301  64.666  1.00  0.00    -0.071 C  
HETATM    2  C   UNL     1      -7.381   8.545  65.094  1.00  0.00    -0.081 C  
ENDROOT
BRANCH   2   3
HETATM    3  O   UNL     1      -7.099   7.143  64.994  1.00  0.00    -0.059 OA 
BRANCH   3   4
HETATM    4  C   UNL     1      -6.911   6.496  66.172  1.00  0.00    -0.057 C  
HETATM    5  O   UNL     1      -5.840   6.409  66.758  1.00  0.00    -0.019 OA 
HETATM    6  N   UNL     1      -8.140   6.112  66.628  1.00  0.00    -0.108 N  
HETATM    7  H   UNL     1      -8.885   5.942  65.953  1.00  0.00     0.000 HD 
BRANCH   6   8
HETATM    8  C   UNL     1      -8.413   5.942  68.003  1.00  0.00    -0.110 A  
HETATM    9  C   UNL     1      -8.514   7.007  68.914  1.00  0.00    -0.125 A  
HETATM   10  C   UNL     1      -8.765   6.704  70.263  1.00  0.00    -0.147 A  
HETATM   11  N   UNL     1      -8.095   8.313  68.579  1.00  0.00    -0.122 NA 
HETATM   12  H2  UNL     1      -8.578   8.587  67.724  1.00  0.00     0.000 HD 
HETATM   13  C   UNL     1      -8.971   5.387  70.704  1.00  0.00    -0.143 A  
HETATM   14  H1  UNL     1      -8.169   9.087  69.241  1.00  0.00     0.000 HD 
HETATM   15  C   UNL     1      -8.619   4.627  68.429  1.00  0.00    -0.106 A  
HETATM   16  C   UNL     1      -8.936   4.360  69.760  1.00  0.00    -0.151 A  
BRANCH  13  17
HETATM   17  N   UNL     1      -9.261   5.180  72.062  1.00  0.00    -0.136 NA 
HETATM   18  H   UNL     1      -8.529   5.202  72.772  1.00  0.00     0.000 HD 
BRANCH  17  19
HETATM   19  C   UNL     1     -10.656   4.932  72.413  1.00  0.00    -0.200 C  
BRANCH  19  20
HETATM   20  C   UNL     1     -11.493   6.188  72.321  1.00  0.00    -0.360 A  
HETATM   21  C   UNL     1     -12.805   6.100  71.821  1.00  0.00     0.388 A  
HETATM   22  C   UNL     1     -13.629   7.225  71.786  1.00  0.00    -0.386 A  
HETATM   23  C   UNL     1     -13.148   8.441  72.257  1.00  0.00    -0.284 A  
HETATM   24  C   UNL     1     -11.865   8.548  72.775  1.00  0.00    -0.158 A  
HETATM   25  F   UNL     1     -13.942   9.519  72.223  1.00  0.00    -0.425 F  
HETATM   26  C   UNL     1     -11.040   7.424  72.818  1.00  0.00    -0.394 A  
ENDBRANCH  19  20
ENDBRANCH  17  19
ENDBRANCH  13  17
ENDBRANCH   6   8
ENDBRANCH   3   4
ENDBRANCH   2   3
TORSDOF 6
ENDMDL
MODEL      209
REMARK 921   NORMALIZED FREE ENERGY PREDICTED BY IDOCK:   -2.09 KCAL/MOL
REMARK 922        TOTAL FREE ENERGY PREDICTED BY IDOCK:   -3.53 KCAL/MOL
REMARK 923 INTER-LIGAND FREE ENERGY PREDICTED BY IDOCK:   -2.55 KCAL/MOL
REMARK 924 INTRA-LIGAND FREE ENERGY PREDICTED BY IDOCK:   -0.98 KCAL/MOL
REMARK 927      BINDING AFFINITY PREDICTED BY RF-SCORE:    0.00 PKD
ROOT
HETATM    1  C   UNL     1      -5.843   8.149  71.405  1.00  0.00    -0.035 C  
HETATM    2  C   UNL     1      -6.020   9.583  70.937  1.00  0.00    -0.073 C  
ENDROOT
BRANCH   2   3
HETATM    3  O   UNL     1      -7.411   9.783  70.655  1.00  0.00    -0.245 OA 
BRANCH   3   4
HETATM    4  C   UNL     1      -7.797   9.518  69.381  1.00  0.00    -0.097 C  
HETATM    5  O   UNL     1      -7.059   9.554  68.405  1.00  0.00    -0.070 OA 
HETATM    6  N   UNL     1      -9.086   9.067  69.430  1.00  0.00    -0.143 N  
HETATM    7  H   UNL     1      -9.686   9.373  70.197  1.00  0.00     0.000 HD 
BRANCH   6   8
HETATM    8  C   UNL     1      -9.615   8.194  68.456  1.00  0.00    -0.148 A  
HETATM    9  C   UNL     1      -9.876   8.574  67.128  1.00  0.00    -0.206 A  
HETATM   10  C   UNL     1     -10.428   7.615  66.261  1.00  0.00     0.494 A  
HETATM   11  N   UNL     1      -9.874   9.928  66.729  1.00  0.00    -0.190 NA 
HETATM   12  H2  UNL     1      -8.977  10.332  66.999  1.00  0.00     0.000 HD 
HETATM   13  C   UNL     1     -10.667   6.294  66.667  1.00  0.00    -0.216 A  
HETATM   14  H1  UNL     1     -10.064  10.204  65.765  1.00  0.00     0.000 HD 
HETATM   15  C   UNL     1      -9.845   6.879  68.871  1.00  0.00    -0.147 A  
HETATM   16  C   UNL     1     -10.328   5.930  67.971  1.00  0.00    -0.257 A  
BRANCH  13  17
HETATM   17  N   UNL     1     -11.178   5.391  65.721  1.00  0.00    -0.674 NA 
HETATM   18  H   UNL     1     -11.975   5.632  65.131  1.00  0.00     0.000 HD 
BRANCH  17  19
HETATM   19  C   UNL     1     -10.520   4.092  65.619  1.00  0.00    -0.022 C  
BRANCH  19  20
HETATM   20  C   UNL     1      -9.149   4.202  64.991  1.00  0.00    -0.143 A  
HETATM   21  C   UNL     1      -9.046   4.506  63.621  1.00  0.00    -0.112 A  
HETATM   22  C   UNL     1      -7.797   4.682  63.025  1.00  0.00    -0.070 A  
HETATM   23  C   UNL     1      -6.647   4.563  63.796  1.00  0.00    -0.042 A  
HETATM   24  C   UNL     1      -6.723   4.286  65.153  1.00  0.00    -0.049 A  
HETATM   25  F   UNL     1      -5.449   4.734  63.220  1.00  0.00    -0.011 F  
HETATM   26  C   UNL     1      -7.970   4.115  65.755  1.00  0.00    -0.094 A  
ENDBRANCH  19  20
ENDBRANCH  17  19
ENDBRANCH  13  17
ENDBRANCH   6   8
ENDBRANCH   3   4
ENDBRANCH   2   3
TORSDOF 6
ENDMDL
MODEL      210
REMARK 921   NORMALIZED FREE ENERGY PREDICTED BY IDOCK:   -1.73 KCAL/MOL
REMARK 922        TOTAL FREE ENERGY PREDICTED BY IDOCK:   -3.04 KCAL/MOL
REMARK 923 INTER-LIGAND FREE ENERGY PREDICTED BY IDOCK:   -5.39 KCAL/MOL
REMARK 924 INTRA-LIGAND FREE ENERGY PREDICTED BY IDOCK:    2.35 KCAL/MOL
REMARK 927      BINDING AFFINITY PREDICTED BY RF-SCORE:    0.00 PKD
ROOT
HETATM    1  C   UNL     1      -8.249  18.572  68.139  1.00  0.00    -0.315 C  
HETATM    2  C   UNL     1      -7.646  18.965  66.801  1.00  0.00    -0.230 C  
ENDROOT
BRANCH   2   3
HETATM    3  O   UNL     1      -7.995  17.953  65.849  1.00  0.00    -0.523 OA 
BRANCH   3   4
HETATM    4  C   UNL     1      -7.941  16.674  66.302  1.00  0.00    -0.305 C  
HETATM    5  O   UNL     1      -7.079  16.235  67.052  1.00  0.00    -0.194 OA 
HETATM    6  N   UNL     1      -9.083  16.046  65.893  1.00  0.00    -0.315 N  
HETATM    7  H   UNL     1      -9.547  16.372  65.045  1.00  0.00     0.000 HD 
BRANCH   6   8
HETATM    8  C   UNL     1      -9.641  14.962  66.603  1.00  0.00    -0.266 A  
HETATM    9  C   UNL     1      -8.877  13.938  67.189  1.00  0.00    -0.226 A  
HETATM   10  C   UNL     1      -9.556  12.899  67.848  1.00  0.00    -0.215 A  
HETATM   11  N   UNL     1      -7.506  13.772  66.893  1.00  0.00    -0.273 NA 
HETATM   12  H2  UNL     1      -7.037  14.658  67.079  1.00  0.00     0.000 HD 
HETATM   13  C   UNL     1     -10.952  12.891  67.984  1.00  0.00    -0.247 A  
HETATM   14  H1  UNL     1      -6.952  13.028  67.318  1.00  0.00     0.000 HD 
HETATM   15  C   UNL     1     -11.032  14.966  66.735  1.00  0.00    -0.326 A  
HETATM   16  C   UNL     1     -11.675  13.960  67.455  1.00  0.00    -0.422 A  
BRANCH  13  17
HETATM   17  N   UNL     1     -11.544  11.836  68.698  1.00  0.00    -0.283 NA 
HETATM   18  H   UNL     1     -12.516  11.880  69.005  1.00  0.00     0.000 HD 
BRANCH  17  19
HETATM   19  C   UNL     1     -10.707  10.675  68.983  1.00  0.00    -0.221 C  
BRANCH  19  20
HETATM   20  C   UNL     1      -9.989  10.180  67.747  1.00  0.00    -0.198 A  
HETATM   21  C   UNL     1     -10.686  10.129  66.526  1.00  0.00    -0.118 A  
HETATM   22  C   UNL     1     -10.037   9.742  65.353  1.00  0.00    -0.196 A  
HETATM   23  C   UNL     1      -8.687   9.413  65.394  1.00  0.00    -0.166 A  
HETATM   24  C   UNL     1      -7.973   9.476  66.582  1.00  0.00    -0.108 A  
HETATM   25  F   UNL     1      -8.066   9.044  64.266  1.00  0.00    -0.120 F  
HETATM   26  C   UNL     1      -8.617   9.869  67.756  1.00  0.00    -0.121 A  
ENDBRANCH  19  20
ENDBRANCH  17  19
ENDBRANCH  13  17
ENDBRANCH   6   8
ENDBRANCH   3   4
ENDBRANCH   2   3
TORSDOF 6
ENDMDL
MODEL      211
REMARK 921   NORMALIZED FREE ENERGY PREDICTED BY IDOCK:   -1.66 KCAL/MOL
REMARK 922        TOTAL FREE ENERGY PREDICTED BY IDOCK:   -2.94 KCAL/MOL
REMARK 923 INTER-LIGAND FREE ENERGY PREDICTED BY IDOCK:   -2.39 KCAL/MOL
REMARK 924 INTRA-LIGAND FREE ENERGY PREDICTED BY IDOCK:   -0.56 KCAL/MOL
REMARK 927      BINDING AFFINITY PREDICTED BY RF-SCORE:    0.00 PKD
ROOT
HETATM    1  C   UNL     1      -6.873   8.351  72.215  1.00  0.00    -0.100 C  
HETATM    2  C   UNL     1      -7.422   8.913  70.914  1.00  0.00    -0.102 C  
ENDROOT
BRANCH   2   3
HETATM    3  O   UNL     1      -8.319   7.940  70.361  1.00  0.00    -0.118 OA 
BRANCH   3   4
HETATM    4  C   UNL     1      -7.927   7.378  69.190  1.00  0.00    -0.118 C  
HETATM    5  O   UNL     1      -6.914   6.706  69.041  1.00  0.00    -0.079 OA 
HETATM    6  N   UNL     1      -8.931   7.575  68.285  1.00  0.00    -0.131 N  
HETATM    7  H   UNL     1      -9.543   8.384  68.397  1.00  0.00     0.000 HD 
BRANCH   6   8
HETATM    8  C   UNL     1      -9.150   6.699  67.201  1.00  0.00    -0.128 A  
HETATM    9  C   UNL     1      -8.264   6.561  66.118  1.00  0.00    -0.123 A  
HETATM   10  C   UNL     1      -8.610   5.672  65.087  1.00  0.00    -0.130 A  
HETATM   11  N   UNL     1      -7.211   7.477  65.900  1.00  0.00    -0.065 NA 
HETATM   12  H2  UNL     1      -6.657   7.525  66.755  1.00  0.00     0.000 HD 
HETATM   13  C   UNL     1      -9.772   4.888  65.140  1.00  0.00     0.017 A  
HETATM   14  H1  UNL     1      -6.568   7.377  65.114  1.00  0.00     0.000 HD 
HETATM   15  C   UNL     1     -10.309   5.920  67.266  1.00  0.00    -0.279 A  
HETATM   16  C   UNL     1     -10.593   4.995  66.263  1.00  0.00    -0.332 A  
BRANCH  13  17
HETATM   17  N   UNL     1     -10.017   3.992  64.086  1.00  0.00    -0.235 NA 
HETATM   18  H   UNL     1     -10.284   4.321  63.159  1.00  0.00     0.000 HD 
BRANCH  17  19
HETATM   19  C   UNL     1      -9.870   2.569  64.377  1.00  0.00    -0.052 C  
BRANCH  19  20
HETATM   20  C   UNL     1      -8.643   2.286  65.213  1.00  0.00    -0.112 A  
HETATM   21  C   UNL     1      -7.374   2.346  64.608  1.00  0.00    -0.062 A  
HETATM   22  C   UNL     1      -6.217   2.158  65.363  1.00  0.00    -0.023 A  
HETATM   23  C   UNL     1      -6.321   1.918  66.728  1.00  0.00    -0.023 A  
HETATM   24  C   UNL     1      -7.560   1.875  67.352  1.00  0.00    -0.060 A  
HETATM   25  F   UNL     1      -5.207   1.739  67.451  1.00  0.00    -0.007 F  
HETATM   26  C   UNL     1      -8.720   2.069  66.601  1.00  0.00    -0.123 A  
ENDBRANCH  19  20
ENDBRANCH  17  19
ENDBRANCH  13  17
ENDBRANCH   6   8
ENDBRANCH   3   4
ENDBRANCH   2   3
TORSDOF 6
ENDMDL
MODEL      212
REMARK 921   NORMALIZED FREE ENERGY PREDICTED BY IDOCK:   -1.60 KCAL/MOL
REMARK 922        TOTAL FREE ENERGY PREDICTED BY IDOCK:   -2.87 KCAL/MOL
REMARK 923 INTER-LIGAND FREE ENERGY PREDICTED BY IDOCK:   -3.34 KCAL/MOL
REMARK 924 INTRA-LIGAND FREE ENERGY PREDICTED BY IDOCK:    0.47 KCAL/MOL
REMARK 927      BINDING AFFINITY PREDICTED BY RF-SCORE:    0.00 PKD
ROOT
HETATM    1  C   UNL     1      -6.324   4.962  73.204  1.00  0.00    -0.046 C  
HETATM    2  C   UNL     1      -7.591   4.985  74.043  1.00  0.00    -0.094 C  
ENDROOT
BRANCH   2   3
HETATM    3  O   UNL     1      -8.645   5.516  73.230  1.00  0.00    -0.117 OA 
BRANCH   3   4
HETATM    4  C   UNL     1      -8.615   6.858  73.030  1.00  0.00    -0.118 C  
HETATM    5  O   UNL     1      -7.804   7.622  73.536  1.00  0.00    -0.112 OA 
HETATM    6  N   UNL     1      -9.537   7.149  72.065  1.00  0.00    -0.144 N  
HETATM    7  H   UNL     1     -10.345   6.535  71.955  1.00  0.00     0.000 HD 
BRANCH   6   8
HETATM    8  C   UNL     1      -9.411   8.269  71.216  1.00  0.00    -0.172 A  
HETATM    9  C   UNL     1     -10.504   8.924  70.621  1.00  0.00    -0.221 A  
HETATM   10  C   UNL     1     -10.242  10.013  69.774  1.00  0.00    -0.286 A  
HETATM   11  N   UNL     1     -11.796   8.355  70.616  1.00  0.00    -0.473 NA 
HETATM   12  H2  UNL     1     -12.047   8.142  71.582  1.00  0.00     0.000 HD 
HETATM   13  C   UNL     1      -8.941  10.492  69.557  1.00  0.00    -0.032 A  
HETATM   14  H1  UNL     1     -12.589   8.830  70.184  1.00  0.00     0.000 HD 
HETATM   15  C   UNL     1      -8.111   8.740  71.011  1.00  0.00    -0.186 A  
HETATM   16  C   UNL     1      -7.886   9.866  70.221  1.00  0.00    -0.151 A  
BRANCH  13  17
HETATM   17  N   UNL     1      -8.776  11.616  68.731  1.00  0.00    -0.352 NA 
HETATM   18  H   UNL     1      -8.463  12.511  69.106  1.00  0.00     0.000 HD 
BRANCH  17  19
HETATM   19  C   UNL     1      -9.073  11.446  67.312  1.00  0.00    -0.162 C  
BRANCH  19  20
HETATM   20  C   UNL     1      -8.276  10.316  66.700  1.00  0.00    -0.125 A  
HETATM   21  C   UNL     1      -8.699   8.990  66.907  1.00  0.00    -0.132 A  
HETATM   22  C   UNL     1      -8.028   7.927  66.302  1.00  0.00    -0.103 A  
HETATM   23  C   UNL     1      -6.937   8.185  65.481  1.00  0.00    -0.063 A  
HETATM   24  C   UNL     1      -6.514   9.485  65.243  1.00  0.00    -0.078 A  
HETATM   25  F   UNL     1      -6.295   7.162  64.900  1.00  0.00    -0.035 F  
HETATM   26  C   UNL     1      -7.186  10.551  65.842  1.00  0.00    -0.135 A  
ENDBRANCH  19  20
ENDBRANCH  17  19
ENDBRANCH  13  17
ENDBRANCH   6   8
ENDBRANCH   3   4
ENDBRANCH   2   3
TORSDOF 6
ENDMDL
MODEL      213
REMARK 921   NORMALIZED FREE ENERGY PREDICTED BY IDOCK:   -1.54 KCAL/MOL
REMARK 922        TOTAL FREE ENERGY PREDICTED BY IDOCK:   -2.78 KCAL/MOL
REMARK 923 INTER-LIGAND FREE ENERGY PREDICTED BY IDOCK:   -2.45 KCAL/MOL
REMARK 924 INTRA-LIGAND FREE ENERGY PREDICTED BY IDOCK:   -0.33 KCAL/MOL
REMARK 927      BINDING AFFINITY PREDICTED BY RF-SCORE:    0.00 PKD
ROOT
HETATM    1  C   UNL     1      -5.622  13.379  71.382  1.00  0.00    -0.145 C  
HETATM    2  C   UNL     1      -5.132  12.230  72.246  1.00  0.00     0.195 C  
ENDROOT
BRANCH   2   3
HETATM    3  O   UNL     1      -5.131  11.045  71.440  1.00  0.00    -0.116 OA 
BRANCH   3   4
HETATM    4  C   UNL     1      -5.488   9.900  72.076  1.00  0.00     0.050 C  
HETATM    5  O   UNL     1      -5.408   9.717  73.283  1.00  0.00    -0.286 OA 
HETATM    6  N   UNL     1      -6.078   9.085  71.151  1.00  0.00    -0.052 N  
HETATM    7  H   UNL     1      -5.811   9.179  70.170  1.00  0.00     0.000 HD 
BRANCH   6   8
HETATM    8  C   UNL     1      -7.043   8.119  71.506  1.00  0.00    -0.075 A  
HETATM    9  C   UNL     1      -6.739   6.768  71.753  1.00  0.00    -0.058 A  
HETATM   10  C   UNL     1      -7.796   5.900  72.074  1.00  0.00    -0.106 A  
HETATM   11  N   UNL     1      -5.486   6.216  71.413  1.00  0.00    -0.021 NA 
HETATM   12  H2  UNL     1      -4.763   6.785  71.854  1.00  0.00     0.000 HD 
HETATM   13  C   UNL     1      -9.117   6.353  72.208  1.00  0.00    -0.139 A  
HETATM   14  H1  UNL     1      -5.265   5.235  71.592  1.00  0.00     0.000 HD 
HETATM   15  C   UNL     1      -8.354   8.582  71.641  1.00  0.00    -0.218 A  
HETATM   16  C   UNL     1      -9.373   7.713  72.028  1.00  0.00    -0.182 A  
BRANCH  13  17
HETATM   17  N   UNL     1     -10.104   5.423  72.576  1.00  0.00    -0.171 NA 
HETATM   18  H   UNL     1      -9.999   4.836  73.404  1.00  0.00     0.000 HD 
BRANCH  17  19
HETATM   19  C   UNL     1     -11.284   5.334  71.722  1.00  0.00     0.070 C  
BRANCH  19  20
HETATM   20  C   UNL     1     -10.921   5.349  70.254  1.00  0.00    -0.089 A  
HETATM   21  C   UNL     1     -11.637   6.189  69.382  1.00  0.00    -0.031 A  
HETATM   22  C   UNL     1     -11.286   6.279  68.035  1.00  0.00    -0.223 A  
HETATM   23  C   UNL     1     -10.213   5.537  67.556  1.00  0.00    -0.199 A  
HETATM   24  C   UNL     1      -9.478   4.718  68.401  1.00  0.00    -0.196 A  
HETATM   25  F   UNL     1      -9.877   5.627  66.262  1.00  0.00    -0.165 F  
HETATM   26  C   UNL     1      -9.822   4.630  69.750  1.00  0.00    -0.296 A  
ENDBRANCH  19  20
ENDBRANCH  17  19
ENDBRANCH  13  17
ENDBRANCH   6   8
ENDBRANCH   3   4
ENDBRANCH   2   3
TORSDOF 6
ENDMDL
MODEL      214
REMARK 921   NORMALIZED FREE ENERGY PREDICTED BY IDOCK:   -1.44 KCAL/MOL
REMARK 922        TOTAL FREE ENERGY PREDICTED BY IDOCK:   -2.65 KCAL/MOL
REMARK 923 INTER-LIGAND FREE ENERGY PREDICTED BY IDOCK:   -1.86 KCAL/MOL
REMARK 924 INTRA-LIGAND FREE ENERGY PREDICTED BY IDOCK:   -0.79 KCAL/MOL
REMARK 927      BINDING AFFINITY PREDICTED BY RF-SCORE:    0.00 PKD
ROOT
HETATM    1  C   UNL     1      -5.253  12.349  73.334  1.00  0.00     0.552 C  
HETATM    2  C   UNL     1      -5.302  11.076  74.161  1.00  0.00     0.573 C  
ENDROOT
BRANCH   2   3
HETATM    3  O   UNL     1      -5.161   9.966  73.265  1.00  0.00    -0.223 OA 
BRANCH   3   4
HETATM    4  C   UNL     1      -6.199   9.092  73.243  1.00  0.00     0.120 C  
HETATM    5  O   UNL     1      -7.093   9.046  74.077  1.00  0.00    -0.382 OA 
HETATM    6  N   UNL     1      -6.129   8.405  72.064  1.00  0.00    -0.052 N  
HETATM    7  H   UNL     1      -5.220   8.282  71.618  1.00  0.00     0.000 HD 
BRANCH   6   8
HETATM    8  C   UNL     1      -7.273   7.860  71.442  1.00  0.00    -0.065 A  
HETATM    9  C   UNL     1      -7.629   6.502  71.515  1.00  0.00    -0.094 A  
HETATM   10  C   UNL     1      -8.780   6.080  70.829  1.00  0.00    -0.135 A  
HETATM   11  N   UNL     1      -6.731   5.526  72.000  1.00  0.00    -0.057 NA 
HETATM   12  H2  UNL     1      -6.421   5.819  72.927  1.00  0.00     0.000 HD 
HETATM   13  C   UNL     1      -9.602   6.979  70.132  1.00  0.00    -0.164 A  
HETATM   14  H1  UNL     1      -6.989   4.540  72.054  1.00  0.00     0.000 HD 
HETATM   15  C   UNL     1      -8.087   8.765  70.753  1.00  0.00    -0.156 A  
HETATM   16  C   UNL     1      -9.261   8.331  70.140  1.00  0.00    -0.155 A  
BRANCH  13  17
HETATM   17  N   UNL     1     -10.759   6.477  69.513  1.00  0.00    -0.243 NA 
HETATM   18  H   UNL     1     -11.384   5.831  69.997  1.00  0.00     0.000 HD 
BRANCH  17  19
HETATM   19  C   UNL     1     -11.027   6.919  68.149  1.00  0.00    -0.147 C  
BRANCH  19  20
HETATM   20  C   UNL     1     -10.172   6.186  67.139  1.00  0.00    -0.246 A  
HETATM   21  C   UNL     1     -10.724   5.101  66.435  1.00  0.00    -0.275 A  
HETATM   22  C   UNL     1      -9.987   4.445  65.448  1.00  0.00    -0.231 A  
HETATM   23  C   UNL     1      -8.699   4.877  65.156  1.00  0.00    -0.148 A  
HETATM   24  C   UNL     1      -8.140   5.958  65.822  1.00  0.00    -0.121 A  
HETATM   25  F   UNL     1      -7.994   4.246  64.207  1.00  0.00    -0.083 F  
HETATM   26  C   UNL     1      -8.876   6.620  66.805  1.00  0.00    -0.132 A  
ENDBRANCH  19  20
ENDBRANCH  17  19
ENDBRANCH  13  17
ENDBRANCH   6   8
ENDBRANCH   3   4
ENDBRANCH   2   3
TORSDOF 6
ENDMDL
MODEL      215
REMARK 921   NORMALIZED FREE ENERGY PREDICTED BY IDOCK:   -1.32 KCAL/MOL
REMARK 922        TOTAL FREE ENERGY PREDICTED BY IDOCK:   -2.48 KCAL/MOL
REMARK 923 INTER-LIGAND FREE ENERGY PREDICTED BY IDOCK:   -2.53 KCAL/MOL
REMARK 924 INTRA-LIGAND FREE ENERGY PREDICTED BY IDOCK:    0.04 KCAL/MOL
REMARK 927      BINDING AFFINITY PREDICTED BY RF-SCORE:    0.00 PKD
ROOT
HETATM    1  C   UNL     1      -8.267   9.526  70.574  1.00  0.00    -0.203 C  
HETATM    2  C   UNL     1      -8.549   9.805  69.107  1.00  0.00    -0.153 C  
ENDROOT
BRANCH   2   3
HETATM    3  O   UNL     1      -9.332   8.717  68.598  1.00  0.00    -0.141 OA 
BRANCH   3   4
HETATM    4  C   UNL     1      -8.670   7.837  67.804  1.00  0.00    -0.123 C  
HETATM    5  O   UNL     1      -7.608   7.301  68.089  1.00  0.00    -0.109 OA 
HETATM    6  N   UNL     1      -9.477   7.563  66.736  1.00  0.00    -0.169 N  
HETATM    7  H   UNL     1     -10.151   8.268  66.435  1.00  0.00     0.000 HD 
BRANCH   6   8
HETATM    8  C   UNL     1      -9.410   6.340  66.037  1.00  0.00    -0.036 A  
HETATM    9  C   UNL     1      -8.363   5.998  65.163  1.00  0.00    -0.140 A  
HETATM   10  C   UNL     1      -8.426   4.757  64.507  1.00  0.00    -0.140 A  
HETATM   11  N   UNL     1      -7.427   6.956  64.715  1.00  0.00    -0.089 NA 
HETATM   12  H2  UNL     1      -7.017   7.400  65.537  1.00  0.00     0.000 HD 
HETATM   13  C   UNL     1      -9.463   3.842  64.743  1.00  0.00    -0.166 A  
HETATM   14  H1  UNL     1      -6.667   6.707  64.081  1.00  0.00     0.000 HD 
HETATM   15  C   UNL     1     -10.446   5.434  66.283  1.00  0.00    -0.277 A  
HETATM   16  C   UNL     1     -10.447   4.182  65.671  1.00  0.00    -0.050 A  
BRANCH  13  17
HETATM   17  N   UNL     1      -9.422   2.606  64.077  1.00  0.00    -0.121 NA 
HETATM   18  H   UNL     1      -9.840   2.484  63.154  1.00  0.00     0.000 HD 
BRANCH  17  19
HETATM   19  C   UNL     1      -8.755   1.504  64.762  1.00  0.00    -0.102 C  
BRANCH  19  20
HETATM   20  C   UNL     1      -8.438   1.843  66.202  1.00  0.00    -0.106 A  
HETATM   21  C   UNL     1      -9.370   1.513  67.203  1.00  0.00    -0.011 A  
HETATM   22  C   UNL     1      -9.081   1.749  68.547  1.00  0.00    -0.192 A  
HETATM   23  C   UNL     1      -7.858   2.308  68.897  1.00  0.00    -0.049 A  
HETATM   24  C   UNL     1      -6.914   2.623  67.929  1.00  0.00    -0.048 A  
HETATM   25  F   UNL     1      -7.583   2.532  70.189  1.00  0.00    -0.042 F  
HETATM   26  C   UNL     1      -7.197   2.382  66.585  1.00  0.00    -0.057 A  
ENDBRANCH  19  20
ENDBRANCH  17  19
ENDBRANCH  13  17
ENDBRANCH   6   8
ENDBRANCH   3   4
ENDBRANCH   2   3
TORSDOF 6
ENDMDL
MODEL      216
REMARK 921   NORMALIZED FREE ENERGY PREDICTED BY IDOCK:    5.78 KCAL/MOL
REMARK 922        TOTAL FREE ENERGY PREDICTED BY IDOCK:    7.10 KCAL/MOL
REMARK 923 INTER-LIGAND FREE ENERGY PREDICTED BY IDOCK:    2.19 KCAL/MOL
REMARK 924 INTRA-LIGAND FREE ENERGY PREDICTED BY IDOCK:    4.91 KCAL/MOL
REMARK 927      BINDING AFFINITY PREDICTED BY RF-SCORE:    0.00 PKD
ROOT
HETATM    1  C   UNL     1     -10.945  11.944  63.679  1.00  0.00    -0.511 C  
HETATM    2  C   UNL     1     -12.187  11.493  64.430  1.00  0.00     0.240 C  
ENDROOT
BRANCH   2   3
HETATM    3  O   UNL     1     -12.158  12.100  65.728  1.00  0.00    -0.572 OA 
BRANCH   3   4
HETATM    4  C   UNL     1     -10.930  12.230  66.290  1.00  0.00    -0.291 C  
HETATM    5  O   UNL     1      -9.871  12.015  65.714  1.00  0.00    -0.236 OA 
HETATM    6  N   UNL     1     -11.103  12.776  67.530  1.00  0.00    -0.252 N  
HETATM    7  H   UNL     1     -11.983  12.616  68.021  1.00  0.00     0.000 HD 
BRANCH   6   8
HETATM    8  C   UNL     1     -10.106  13.555  68.155  1.00  0.00    -0.250 A  
HETATM    9  C   UNL     1      -8.837  13.790  67.598  1.00  0.00    -0.189 A  
HETATM   10  C   UNL     1      -7.923  14.563  68.333  1.00  0.00    -0.141 A  
HETATM   11  N   UNL     1      -8.365  13.053  66.490  1.00  0.00    -0.388 NA 
HETATM   12  H2  UNL     1      -9.055  13.135  65.743  1.00  0.00     0.000 HD 
HETATM   13  C   UNL     1      -8.262  15.146  69.564  1.00  0.00    -0.160 A  
HETATM   14  H1  UNL     1      -7.443  13.223  66.085  1.00  0.00     0.000 HD 
HETATM   15  C   UNL     1     -10.456  14.133  69.378  1.00  0.00    -0.000 A  
HETATM   16  C   UNL     1      -9.554  14.954  70.054  1.00  0.00     0.315 A  
BRANCH  13  17
HETATM   17  N   UNL     1      -7.301  15.941  70.209  1.00  0.00     0.591 NA 
HETATM   18  H   UNL     1      -7.379  16.958  70.230  1.00  0.00     0.000 HD 
BRANCH  17  19
HETATM   19  C   UNL     1      -6.186  15.250  70.848  1.00  0.00     0.291 C  
BRANCH  19  20
HETATM   20  C   UNL     1      -6.106  13.799  70.427  1.00  0.00    -0.128 A  
HETATM   21  C   UNL     1      -6.763  12.826  71.201  1.00  0.00     2.707 A  
HETATM   22  C   UNL     1      -6.767  11.488  70.806  1.00  0.00     1.414 A  
HETATM   23  C   UNL     1      -6.122  11.118  69.632  1.00  0.00    -0.093 A  
HETATM   24  C   UNL     1      -5.484  12.063  68.841  1.00  0.00    -0.050 A  
HETATM   25  F   UNL     1      -6.129   9.833  69.255  1.00  0.00    -0.037 F  
HETATM   26  C   UNL     1      -5.484  13.403  69.229  1.00  0.00    -0.076 A  
ENDBRANCH  19  20
ENDBRANCH  17  19
ENDBRANCH  13  17
ENDBRANCH   6   8
ENDBRANCH   3   4
ENDBRANCH   2   3
TORSDOF 6
ENDMDL
MODEL      217
REMARK 921   NORMALIZED FREE ENERGY PREDICTED BY IDOCK:    8.83 KCAL/MOL
REMARK 922        TOTAL FREE ENERGY PREDICTED BY IDOCK:   11.22 KCAL/MOL
REMARK 923 INTER-LIGAND FREE ENERGY PREDICTED BY IDOCK:    8.94 KCAL/MOL
REMARK 924 INTRA-LIGAND FREE ENERGY PREDICTED BY IDOCK:    2.28 KCAL/MOL
REMARK 927      BINDING AFFINITY PREDICTED BY RF-SCORE:    0.00 PKD
ROOT
HETATM    1  C   UNL     1      -9.330  15.134  72.891  1.00  0.00     7.815 C  
HETATM    2  C   UNL     1     -10.759  15.615  72.705  1.00  0.00     1.705 C  
ENDROOT
BRANCH   2   3
HETATM    3  O   UNL     1     -11.118  15.396  71.334  1.00  0.00    -0.364 OA 
BRANCH   3   4
HETATM    4  C   UNL     1     -10.083  15.203  70.478  1.00  0.00     0.315 C  
HETATM    5  O   UNL     1      -8.913  15.074  70.813  1.00  0.00     1.197 OA 
HETATM    6  N   UNL     1     -10.611  15.035  69.229  1.00  0.00    -0.240 N  
HETATM    7  H   UNL     1     -11.509  15.468  69.011  1.00  0.00     0.000 HD 
BRANCH   6   8
HETATM    8  C   UNL     1      -9.957  14.282  68.231  1.00  0.00    -0.239 A  
HETATM    9  C   UNL     1      -8.642  14.532  67.802  1.00  0.00    -0.175 A  
HETATM   10  C   UNL     1      -8.113  13.725  66.780  1.00  0.00     0.287 A  
HETATM   11  N   UNL     1      -7.961  15.719  68.150  1.00  0.00    -0.134 NA 
HETATM   12  H2  UNL     1      -7.980  15.803  69.167  1.00  0.00     0.000 HD 
HETATM   13  C   UNL     1      -8.835  12.656  66.228  1.00  0.00     0.106 A  
HETATM   14  H1  UNL     1      -7.006  15.901  67.839  1.00  0.00     0.000 HD 
HETATM   15  C   UNL     1     -10.684  13.217  67.690  1.00  0.00    -0.250 A  
HETATM   16  C   UNL     1     -10.110  12.389  66.728  1.00  0.00    -0.226 A  
BRANCH  13  17
HETATM   17  N   UNL     1      -8.211  11.874  65.242  1.00  0.00     0.356 NA 
HETATM   18  H   UNL     1      -8.367  12.044  64.249  1.00  0.00     0.000 HD 
BRANCH  17  19
HETATM   19  C   UNL     1      -7.329  10.805  65.702  1.00  0.00    -0.026 C  
BRANCH  19  20
HETATM   20  C   UNL     1      -8.060   9.802  66.566  1.00  0.00    -0.116 A  
HETATM   21  C   UNL     1      -7.365   9.161  67.607  1.00  0.00    -0.087 A  
HETATM   22  C   UNL     1      -8.024   8.281  68.466  1.00  0.00    -0.122 A  
HETATM   23  C   UNL     1      -9.383   8.045  68.293  1.00  0.00    -0.140 A  
HETATM   24  C   UNL     1     -10.096   8.682  67.287  1.00  0.00    -0.310 A  
HETATM   25  F   UNL     1     -10.014   7.201  69.120  1.00  0.00    -0.158 F  
HETATM   26  C   UNL     1      -9.441   9.567  66.430  1.00  0.00    -0.251 A  
ENDBRANCH  19  20
ENDBRANCH  17  19
ENDBRANCH  13  17
ENDBRANCH   6   8
ENDBRANCH   3   4
ENDBRANCH   2   3
TORSDOF 6
ENDMDL
MODEL      218
REMARK 921   NORMALIZED FREE ENERGY PREDICTED BY IDOCK:   12.46 KCAL/MOL
REMARK 922        TOTAL FREE ENERGY PREDICTED BY IDOCK:   16.12 KCAL/MOL
REMARK 923 INTER-LIGAND FREE ENERGY PREDICTED BY IDOCK:   16.13 KCAL/MOL
REMARK 924 INTRA-LIGAND FREE ENERGY PREDICTED BY IDOCK:   -0.00 KCAL/MOL
REMARK 927      BINDING AFFINITY PREDICTED BY RF-SCORE:    0.00 PKD
ROOT
HETATM    1  C   UNL     1      -6.034   9.923  63.235  1.00  0.00    -0.119 C  
HETATM    2  C   UNL     1      -7.253  10.031  64.135  1.00  0.00    -0.132 C  
ENDROOT
BRANCH   2   3
HETATM    3  O   UNL     1      -7.836  11.324  63.929  1.00  0.00     0.628 OA 
BRANCH   3   4
HETATM    4  C   UNL     1      -8.520  11.836  64.984  1.00  0.00     0.888 C  
HETATM    5  O   UNL     1      -9.188  11.177  65.770  1.00  0.00    -0.205 OA 
HETATM    6  N   UNL     1      -8.199  13.160  65.076  1.00  0.00     3.272 N  
HETATM    7  H   UNL     1      -7.920  13.660  64.231  1.00  0.00     0.000 HD 
BRANCH   6   8
HETATM    8  C   UNL     1      -8.238  13.861  66.300  1.00  0.00     1.128 A  
HETATM    9  C   UNL     1      -7.218  13.803  67.266  1.00  0.00     0.039 A  
HETATM   10  C   UNL     1      -7.390  14.528  68.457  1.00  0.00    -0.120 A  
HETATM   11  N   UNL     1      -6.191  12.836  67.202  1.00  0.00    -0.464 NA 
HETATM   12  H2  UNL     1      -5.750  12.908  66.284  1.00  0.00     0.000 HD 
HETATM   13  C   UNL     1      -8.512  15.341  68.677  1.00  0.00    -0.168 A  
HETATM   14  H1  UNL     1      -5.450  12.794  67.902  1.00  0.00     0.000 HD 
HETATM   15  C   UNL     1      -9.359  14.671  66.508  1.00  0.00    -0.313 A  
HETATM   16  C   UNL     1      -9.471  15.434  67.668  1.00  0.00    -0.205 A  
BRANCH  13  17
HETATM   17  N   UNL     1      -8.580  16.067  69.878  1.00  0.00     0.328 NA 
HETATM   18  H   UNL     1      -7.737  16.342  70.382  1.00  0.00     0.000 HD 
BRANCH  17  19
HETATM   19  C   UNL     1      -9.909  16.409  70.373  1.00  0.00     1.132 C  
BRANCH  19  20
HETATM   20  C   UNL     1     -10.573  17.469  69.522  1.00  0.00     0.204 A  
HETATM   21  C   UNL     1      -9.800  18.540  69.038  1.00  0.00    -0.313 A  
HETATM   22  C   UNL     1     -10.364  19.498  68.195  1.00  0.00    -0.550 A  
HETATM   23  C   UNL     1     -11.699  19.386  67.827  1.00  0.00     1.650 A  
HETATM   24  C   UNL     1     -12.476  18.327  68.275  1.00  0.00     5.661 A  
HETATM   25  F   UNL     1     -12.237  20.307  67.016  1.00  0.00     1.014 F  
HETATM   26  C   UNL     1     -11.915  17.363  69.112  1.00  0.00     2.769 A  
ENDBRANCH  19  20
ENDBRANCH  17  19
ENDBRANCH  13  17
ENDBRANCH   6   8
ENDBRANCH   3   4
ENDBRANCH   2   3
TORSDOF 6
ENDMDL
MODEL      219
REMARK 921   NORMALIZED FREE ENERGY PREDICTED BY IDOCK:   14.04 KCAL/MOL
REMARK 922        TOTAL FREE ENERGY PREDICTED BY IDOCK:   18.26 KCAL/MOL
REMARK 923 INTER-LIGAND FREE ENERGY PREDICTED BY IDOCK:   15.68 KCAL/MOL
REMARK 924 INTRA-LIGAND FREE ENERGY PREDICTED BY IDOCK:    2.58 KCAL/MOL
REMARK 927      BINDING AFFINITY PREDICTED BY RF-SCORE:    0.00 PKD
ROOT
HETATM    1  C   UNL     1      -9.231  15.070  73.038  1.00  0.00     8.361 C  
HETATM    2  C   UNL     1     -10.676  15.358  72.668  1.00  0.00     1.527 C  
ENDROOT
BRANCH   2   3
HETATM    3  O   UNL     1     -10.944  14.714  71.415  1.00  0.00     0.132 OA 
BRANCH   3   4
HETATM    4  C   UNL     1      -9.867  14.175  70.789  1.00  0.00     3.072 C  
HETATM    5  O   UNL     1      -8.745  14.097  71.271  1.00  0.00     4.298 OA 
HETATM    6  N   UNL     1     -10.309  13.619  69.622  1.00  0.00    -0.152 N  
HETATM    7  H   UNL     1     -11.142  14.005  69.177  1.00  0.00     0.000 HD 
BRANCH   6   8
HETATM    8  C   UNL     1      -9.652  12.529  69.012  1.00  0.00     0.378 A  
HETATM    9  C   UNL     1      -8.290  12.535  68.665  1.00  0.00     0.021 A  
HETATM   10  C   UNL     1      -7.761  11.394  68.038  1.00  0.00    -0.114 A  
HETATM   11  N   UNL     1      -7.530  13.725  68.662  1.00  0.00    -0.116 NA 
HETATM   12  H2  UNL     1      -7.620  14.155  69.583  1.00  0.00     0.000 HD 
HETATM   13  C   UNL     1      -8.533  10.246  67.806  1.00  0.00    -0.114 A  
HETATM   14  H1  UNL     1      -6.541  13.729  68.411  1.00  0.00     0.000 HD 
HETATM   15  C   UNL     1     -10.431  11.390  68.789  1.00  0.00    -0.228 A  
HETATM   16  C   UNL     1      -9.863  10.247  68.229  1.00  0.00    -0.161 A  
BRANCH  13  17
HETATM   17  N   UNL     1      -7.911   9.135  67.214  1.00  0.00    -0.099 NA 
HETATM   18  H   UNL     1      -7.968   8.965  66.210  1.00  0.00     0.000 HD 
BRANCH  17  19
HETATM   19  C   UNL     1      -7.177   8.236  68.099  1.00  0.00    -0.094 C  
BRANCH  19  20
HETATM   20  C   UNL     1      -8.058   7.681  69.196  1.00  0.00    -0.125 A  
HETATM   21  C   UNL     1      -7.486   7.376  70.445  1.00  0.00    -0.085 A  
HETATM   22  C   UNL     1      -8.280   6.927  71.500  1.00  0.00    -0.110 A  
HETATM   23  C   UNL     1      -9.651   6.788  71.314  1.00  0.00    -0.169 A  
HETATM   24  C   UNL     1     -10.242   7.102  70.099  1.00  0.00    -0.204 A  
HETATM   25  F   UNL     1     -10.411   6.358  72.330  1.00  0.00    -0.191 F  
HETATM   26  C   UNL     1      -9.452   7.558  69.043  1.00  0.00    -0.145 A  
ENDBRANCH  19  20
ENDBRANCH  17  19
ENDBRANCH  13  17
ENDBRANCH   6   8
ENDBRANCH   3   4
ENDBRANCH   2   3
TORSDOF 6
ENDMDL
MODEL      220
REMARK 921   NORMALIZED FREE ENERGY PREDICTED BY IDOCK:   17.79 KCAL/MOL
REMARK 922        TOTAL FREE ENERGY PREDICTED BY IDOCK:   23.33 KCAL/MOL
REMARK 923 INTER-LIGAND FREE ENERGY PREDICTED BY IDOCK:   20.74 KCAL/MOL
REMARK 924 INTRA-LIGAND FREE ENERGY PREDICTED BY IDOCK:    2.59 KCAL/MOL
REMARK 927      BINDING AFFINITY PREDICTED BY RF-SCORE:    0.00 PKD
ROOT
HETATM    1  C   UNL     1      -8.953  15.152  73.400  1.00  0.00    10.216 C  
HETATM    2  C   UNL     1     -10.225  15.461  72.629  1.00  0.00     3.685 C  
ENDROOT
BRANCH   2   3
HETATM    3  O   UNL     1      -9.997  15.125  71.254  1.00  0.00     0.820 OA 
BRANCH   3   4
HETATM    4  C   UNL     1      -8.741  14.708  70.952  1.00  0.00     2.987 C  
HETATM    5  O   UNL     1      -8.011  14.082  71.709  1.00  0.00     4.409 OA 
HETATM    6  N   UNL     1      -8.527  14.981  69.630  1.00  0.00    -0.443 N  
HETATM    7  H   UNL     1      -9.032  15.756  69.199  1.00  0.00     0.000 HD 
BRANCH   6   8
HETATM    8  C   UNL     1      -7.632  14.227  68.842  1.00  0.00    -0.113 A  
HETATM    9  C   UNL     1      -6.378  13.781  69.295  1.00  0.00    -0.110 A  
HETATM   10  C   UNL     1      -5.568  13.060  68.402  1.00  0.00    -0.072 A  
HETATM   11  N   UNL     1      -5.803  14.273  70.488  1.00  0.00    -0.159 NA 
HETATM   12  H2  UNL     1      -6.477  14.132  71.241  1.00  0.00     0.000 HD 
HETATM   13  C   UNL     1      -5.999  12.729  67.109  1.00  0.00     0.120 A  
HETATM   14  H1  UNL     1      -4.893  13.949  70.817  1.00  0.00     0.000 HD 
HETATM   15  C   UNL     1      -8.073  13.900  67.556  1.00  0.00    -0.191 A  
HETATM   16  C   UNL     1      -7.278  13.123  66.715  1.00  0.00     0.794 A  
BRANCH  13  17
HETATM   17  N   UNL     1      -5.142  11.965  66.299  1.00  0.00    -0.426 NA 
HETATM   18  H   UNL     1      -4.409  12.402  65.739  1.00  0.00     0.000 HD 
BRANCH  17  19
HETATM   19  C   UNL     1      -5.345  10.520  66.294  1.00  0.00    -0.070 C  
BRANCH  19  20
HETATM   20  C   UNL     1      -6.811  10.156  66.221  1.00  0.00    -0.104 A  
HETATM   21  C   UNL     1      -7.553  10.533  65.087  1.00  0.00    -0.046 A  
HETATM   22  C   UNL     1      -8.890  10.155  64.954  1.00  0.00    -0.214 A  
HETATM   23  C   UNL     1      -9.487   9.393  65.951  1.00  0.00    -0.251 A  
HETATM   24  C   UNL     1      -8.771   8.991  67.069  1.00  0.00    -0.124 A  
HETATM   25  F   UNL     1     -10.771   9.031  65.820  1.00  0.00     0.120 F  
HETATM   26  C   UNL     1      -7.432   9.361  67.202  1.00  0.00    -0.091 A  
ENDBRANCH  19  20
ENDBRANCH  17  19
ENDBRANCH  13  17
ENDBRANCH   6   8
ENDBRANCH   3   4
ENDBRANCH   2   3
TORSDOF 6
ENDMDL
MODEL      221
REMARK 921   NORMALIZED FREE ENERGY PREDICTED BY IDOCK:   29.63 KCAL/MOL
REMARK 922        TOTAL FREE ENERGY PREDICTED BY IDOCK:   39.32 KCAL/MOL
REMARK 923 INTER-LIGAND FREE ENERGY PREDICTED BY IDOCK:   35.97 KCAL/MOL
REMARK 924 INTRA-LIGAND FREE ENERGY PREDICTED BY IDOCK:    3.35 KCAL/MOL
REMARK 927      BINDING AFFINITY PREDICTED BY RF-SCORE:    0.00 PKD
ROOT
HETATM    1  C   UNL     1     -11.340  19.248  64.028  1.00  0.00     7.273 C  
HETATM    2  C   UNL     1     -11.435  17.743  63.843  1.00  0.00     5.688 C  
ENDROOT
BRANCH   2   3
HETATM    3  O   UNL     1     -10.131  17.262  63.492  1.00  0.00     6.500 OA 
BRANCH   3   4
HETATM    4  C   UNL     1      -9.946  15.923  63.614  1.00  0.00     7.007 C  
HETATM    5  O   UNL     1      -8.857  15.373  63.708  1.00  0.00     8.142 OA 
HETATM    6  N   UNL     1     -11.178  15.352  63.762  1.00  0.00    -0.013 N  
HETATM    7  H   UNL     1     -11.990  15.820  63.358  1.00  0.00     0.000 HD 
BRANCH   6   8
HETATM    8  C   UNL     1     -11.366  14.136  64.454  1.00  0.00    -0.299 A  
HETATM    9  C   UNL     1     -12.329  13.954  65.461  1.00  0.00    -0.480 A  
HETATM   10  C   UNL     1     -12.399  12.700  66.092  1.00  0.00    -0.101 A  
HETATM   11  N   UNL     1     -13.011  15.045  66.042  1.00  0.00     0.417 NA 
HETATM   12  H2  UNL     1     -13.444  15.580  65.289  1.00  0.00     0.000 HD 
HETATM   13  C   UNL     1     -11.582  11.627  65.707  1.00  0.00    -0.016 A  
HETATM   14  H1  UNL     1     -13.711  14.913  66.773  1.00  0.00     0.000 HD 
HETATM   15  C   UNL     1     -10.549  13.073  64.059  1.00  0.00    -0.371 A  
HETATM   16  C   UNL     1     -10.687  11.820  64.654  1.00  0.00    -0.363 A  
BRANCH  13  17
HETATM   17  N   UNL     1     -11.750  10.396  66.362  1.00  0.00     0.901 NA 
HETATM   18  H   UNL     1     -12.168   9.594  65.889  1.00  0.00     0.000 HD 
BRANCH  17  19
HETATM   19  C   UNL     1     -11.303  10.315  67.749  1.00  0.00    -0.059 C  
BRANCH  19  20
HETATM   20  C   UNL     1     -10.284  11.383  68.077  1.00  0.00    -0.201 A  
HETATM   21  C   UNL     1      -9.647  12.067  67.025  1.00  0.00    -0.200 A  
HETATM   22  C   UNL     1      -8.753  13.104  67.291  1.00  0.00    -0.210 A  
HETATM   23  C   UNL     1      -8.497  13.468  68.608  1.00  0.00    -0.017 A  
HETATM   24  C   UNL     1      -9.129  12.823  69.662  1.00  0.00     2.028 A  
HETATM   25  F   UNL     1      -7.639  14.465  68.859  1.00  0.00    -0.115 F  
HETATM   26  C   UNL     1     -10.029  11.789  69.400  1.00  0.00     0.456 A  
ENDBRANCH  19  20
ENDBRANCH  17  19
ENDBRANCH  13  17
ENDBRANCH   6   8
ENDBRANCH   3   4
ENDBRANCH   2   3
TORSDOF 6
ENDMDL
MODEL      222
REMARK 921   NORMALIZED FREE ENERGY PREDICTED BY IDOCK:   33.12 KCAL/MOL
REMARK 922        TOTAL FREE ENERGY PREDICTED BY IDOCK:   44.02 KCAL/MOL
REMARK 923 INTER-LIGAND FREE ENERGY PREDICTED BY IDOCK:   44.40 KCAL/MOL
REMARK 924 INTRA-LIGAND FREE ENERGY PREDICTED BY IDOCK:   -0.37 KCAL/MOL
REMARK 927      BINDING AFFINITY PREDICTED BY RF-SCORE:    0.00 PKD
ROOT
HETATM    1  C   UNL     1      -6.046   9.934  63.282  1.00  0.00    -0.121 C  
HETATM    2  C   UNL     1      -7.136   9.716  64.319  1.00  0.00    -0.119 C  
ENDROOT
BRANCH   2   3
HETATM    3  O   UNL     1      -7.762  10.982  64.568  1.00  0.00     0.304 OA 
BRANCH   3   4
HETATM    4  C   UNL     1      -8.372  11.108  65.774  1.00  0.00    -0.041 C  
HETATM    5  O   UNL     1      -9.025  10.231  66.323  1.00  0.00    -0.148 OA 
HETATM    6  N   UNL     1      -7.995  12.312  66.298  1.00  0.00    -0.234 N  
HETATM    7  H   UNL     1      -7.739  13.068  65.663  1.00  0.00     0.000 HD 
BRANCH   6   8
HETATM    8  C   UNL     1      -7.946  12.544  67.690  1.00  0.00    -0.170 A  
HETATM    9  C   UNL     1      -6.864  12.168  68.505  1.00  0.00    -0.086 A  
HETATM   10  C   UNL     1      -6.950  12.434  69.883  1.00  0.00     0.508 A  
HETATM   11  N   UNL     1      -5.854  11.297  68.043  1.00  0.00    -0.042 NA 
HETATM   12  H2  UNL     1      -5.475  11.688  67.181  1.00  0.00     0.000 HD 
HETATM   13  C   UNL     1      -8.045  13.106  70.445  1.00  0.00     4.169 A  
HETATM   14  H1  UNL     1      -5.069  11.024  68.635  1.00  0.00     0.000 HD 
HETATM   15  C   UNL     1      -9.041  13.218  68.238  1.00  0.00    -0.184 A  
HETATM   16  C   UNL     1      -9.068  13.531  69.596  1.00  0.00     1.580 A  
BRANCH  13  17
HETATM   17  N   UNL     1      -8.026  13.370  71.824  1.00  0.00     7.757 NA 
HETATM   18  H   UNL     1      -8.785  13.876  72.280  1.00  0.00     0.000 HD 
BRANCH  17  19
HETATM   19  C   UNL     1      -6.872  12.888  72.576  1.00  0.00     6.345 C  
BRANCH  19  20
HETATM   20  C   UNL     1      -6.947  11.400  72.835  1.00  0.00     8.364 A  
HETATM   21  C   UNL     1      -8.185  10.829  73.182  1.00  0.00    12.826 A  
HETATM   22  C   UNL     1      -8.306   9.450  73.362  1.00  0.00     2.509 A  
HETATM   23  C   UNL     1      -7.192   8.637  73.187  1.00  0.00     0.099 A  
HETATM   24  C   UNL     1      -5.966   9.175  72.824  1.00  0.00     0.056 A  
HETATM   25  F   UNL     1      -7.312   7.314  73.359  1.00  0.00    -0.072 F  
HETATM   26  C   UNL     1      -5.843  10.552  72.637  1.00  0.00     1.098 A  
ENDBRANCH  19  20
ENDBRANCH  17  19
ENDBRANCH  13  17
ENDBRANCH   6   8
ENDBRANCH   3   4
ENDBRANCH   2   3
TORSDOF 6
ENDMDL
